MODEL 1
REMARK VINA RESULT: -7.137759068      0.000      0.000
REMARK  9 active torsions:
REMARK  status: ('A' for Active; 'I' for Inactive)
REMARK    1  A    between atoms: N1_1  and  C1_4 
REMARK    2  A    between atoms: C2_7  and  N3_8 
REMARK    3  A    between atoms: N6_16  and  C4_17 
REMARK    4  A    between atoms: C4_17  and  C5_18 
REMARK    5  A    between atoms: C5_18  and  C6_19 
REMARK    6  A    between atoms: C6_19  and  N7_20 
REMARK    7  A    between atoms: N7_20  and  C7_22 
REMARK    8  A    between atoms: C7_22  and  C8_23 
REMARK    9  A    between atoms: C8_23  and  O1_24 
ROOT
HETATM    1  C1  UNL     1      17.118  12.297  28.160  1.00  0.00     0.679 A 
HETATM    2  N2  UNL     1      16.293  12.552  27.134  1.00  0.00    -0.175 N 
ATOM      3  H2  UNL     1      16.500  13.299  26.471  1.00  0.00     0.186 HD
HETATM    4  C2  UNL     1      15.176  11.795  26.998  1.00  0.00     0.147 A 
HETATM    5  C3  UNL     1      14.927  10.784  27.924  1.00  0.00     0.140 A 
HETATM    6  N4  UNL     1      13.913   9.883  28.045  1.00  0.00    -0.279 N 
ATOM      7  H4  UNL     1      13.107   9.798  27.426  1.00  0.00     0.189 HD
HETATM    8  N5  UNL     1      14.164   9.135  29.117  1.00  0.00    -0.238 N 
ATOM      9  H5  UNL     1      13.567   8.377  29.448  1.00  0.00     0.208 HD
HETATM   10  N6  UNL     1      15.283   9.509  29.687  1.00  0.00    -0.260 N 
HETATM   11  C9  UNL     1      15.787  10.532  28.976  1.00  0.00     0.171 A 
HETATM   12  N8  UNL     1      16.889  11.328  29.054  1.00  0.00    -0.173 N 
ATOM     13  H8  UNL     1      17.556  11.182  29.812  1.00  0.00     0.186 HD
ENDROOT
BRANCH  10  14
HETATM   14  C4  UNL     1      15.909   8.965  30.839  1.00  0.00     0.154 C 
BRANCH  14  15
HETATM   15  C5  UNL     1      17.245   8.288  30.494  1.00  0.00     0.041 C 
BRANCH  15  16
HETATM   16  C6  UNL     1      18.199   8.667  31.624  1.00  0.00     0.115 C 
BRANCH  16  17
HETATM   17  N7  UNL     1      19.541   8.335  31.340  1.00  0.00    -0.419 N 
ATOM     18  H7  UNL     1      20.157   7.927  32.043  1.00  0.00     0.153 HD
BRANCH  17  19
HETATM   19  C7  UNL     1      19.976   8.600  30.025  1.00  0.00     0.139 C 
BRANCH  19  20
HETATM   20  C8  UNL     1      20.695   9.866  29.744  1.00  0.00     0.183 C 
BRANCH  20  21
HETATM   21  O1  UNL     1      22.047   9.797  30.049  1.00  0.00    -0.399 OA
ATOM     22  H1  UNL     1      22.417  10.642  30.278  1.00  0.00     0.209 HD
ENDBRANCH  20  21
ENDBRANCH  19  20
ENDBRANCH  17  19
ENDBRANCH  16  17
ENDBRANCH  15  16
ENDBRANCH  14  15
ENDBRANCH  10  14
BRANCH   4  23
HETATM   23  N3  UNL     1      14.357  12.000  26.024  1.00  0.00    -0.383 N 
ATOM     24  H32 UNL     1      14.450  11.476  25.154  1.00  0.00     0.157 HD
ATOM     25  H31 UNL     1      13.611  12.690  26.108  1.00  0.00     0.157 HD
ENDBRANCH   4  23
BRANCH   1  26
HETATM   26  N1  UNL     1      18.185  13.064  28.236  1.00  0.00    -0.234 N 
ATOM     27  H12 UNL     1      18.162  13.960  28.723  1.00  0.00     0.174 HD
ATOM     28  H11 UNL     1      19.023  12.699  27.784  1.00  0.00     0.174 HD
ENDBRANCH   1  26
TORSDOF 9
ENDMDL
MODEL 2
REMARK VINA RESULT: -6.909997959      1.358      1.465
REMARK  9 active torsions:
REMARK  status: ('A' for Active; 'I' for Inactive)
REMARK    1  A    between atoms: N1_1  and  C1_4 
REMARK    2  A    between atoms: C2_7  and  N3_8 
REMARK    3  A    between atoms: N6_16  and  C4_17 
REMARK    4  A    between atoms: C4_17  and  C5_18 
REMARK    5  A    between atoms: C5_18  and  C6_19 
REMARK    6  A    between atoms: C6_19  and  N7_20 
REMARK    7  A    between atoms: N7_20  and  C7_22 
REMARK    8  A    between atoms: C7_22  and  C8_23 
REMARK    9  A    between atoms: C8_23  and  O1_24 
ROOT
HETATM    1  C1  UNL     1      17.345  12.728  28.233  1.00  0.00     0.679 A 
HETATM    2  N2  UNL     1      16.566  12.851  27.148  1.00  0.00    -0.175 N 
ATOM      3  H2  UNL     1      16.796  13.521  26.414  1.00  0.00     0.186 HD
HETATM    4  C2  UNL     1      15.467  12.063  27.048  1.00  0.00     0.147 A 
HETATM    5  C3  UNL     1      15.187  11.160  28.071  1.00  0.00     0.140 A 
HETATM    6  N4  UNL     1      14.179  10.261  28.247  1.00  0.00    -0.279 N 
ATOM      7  H4  UNL     1      13.404  10.092  27.605  1.00  0.00     0.189 HD
HETATM    8  N5  UNL     1      14.387   9.643  29.407  1.00  0.00    -0.238 N 
ATOM      9  H5  UNL     1      13.785   8.917  29.795  1.00  0.00     0.208 HD
HETATM   10  N6  UNL     1      15.474  10.099  29.982  1.00  0.00    -0.260 N 
HETATM   11  C9  UNL     1      15.998  11.043  29.182  1.00  0.00     0.171 A 
HETATM   12  N8  UNL     1      17.086  11.862  29.220  1.00  0.00    -0.173 N 
ATOM     13  H8  UNL     1      17.718  11.814  30.020  1.00  0.00     0.186 HD
ENDROOT
BRANCH  10  14
HETATM   14  C4  UNL     1      16.051   9.699  31.215  1.00  0.00     0.154 C 
BRANCH  14  15
HETATM   15  C5  UNL     1      16.773   8.347  31.095  1.00  0.00     0.041 C 
BRANCH  15  16
HETATM   16  C6  UNL     1      18.262   8.679  31.085  1.00  0.00     0.115 C 
BRANCH  16  17
HETATM   17  N7  UNL     1      19.002   7.843  30.221  1.00  0.00    -0.419 N 
ATOM     18  H7  UNL     1      18.550   7.241  29.533  1.00  0.00     0.153 HD
BRANCH  17  19
HETATM   19  C7  UNL     1      20.404   7.892  30.368  1.00  0.00     0.139 C 
BRANCH  19  20
HETATM   20  C8  UNL     1      21.058   7.007  31.363  1.00  0.00     0.183 C 
BRANCH  20  21
HETATM   21  O1  UNL     1      20.576   5.706  31.325  1.00  0.00    -0.399 OA
ATOM     22  H1  UNL     1      20.511   5.312  32.188  1.00  0.00     0.209 HD
ENDBRANCH  20  21
ENDBRANCH  19  20
ENDBRANCH  17  19
ENDBRANCH  16  17
ENDBRANCH  15  16
ENDBRANCH  14  15
ENDBRANCH  10  14
BRANCH   4  23
HETATM   23  N3  UNL     1      14.692  12.143  26.021  1.00  0.00    -0.383 N 
ATOM     24  H32 UNL     1      14.490  13.048  25.597  1.00  0.00     0.157 HD
ATOM     25  H31 UNL     1      14.269  11.305  25.622  1.00  0.00     0.157 HD
ENDBRANCH   4  23
BRANCH   1  26
HETATM   26  N1  UNL     1      18.398  13.516  28.270  1.00  0.00    -0.234 N 
ATOM     27  H12 UNL     1      18.301  14.532  28.301  1.00  0.00     0.174 HD
ATOM     28  H11 UNL     1      19.302  13.045  28.270  1.00  0.00     0.174 HD
ENDBRANCH   1  26
TORSDOF 9
ENDMDL
MODEL 3
REMARK VINA RESULT: -6.829576117      1.882      3.339
REMARK  9 active torsions:
REMARK  status: ('A' for Active; 'I' for Inactive)
REMARK    1  A    between atoms: N1_1  and  C1_4 
REMARK    2  A    between atoms: C2_7  and  N3_8 
REMARK    3  A    between atoms: N6_16  and  C4_17 
REMARK    4  A    between atoms: C4_17  and  C5_18 
REMARK    5  A    between atoms: C5_18  and  C6_19 
REMARK    6  A    between atoms: C6_19  and  N7_20 
REMARK    7  A    between atoms: N7_20  and  C7_22 
REMARK    8  A    between atoms: C7_22  and  C8_23 
REMARK    9  A    between atoms: C8_23  and  O1_24 
ROOT
HETATM    1  C1  UNL     1      14.494   9.883  28.254  1.00  0.00     0.679 A 
HETATM    2  N2  UNL     1      14.036  10.680  27.277  1.00  0.00    -0.175 N 
ATOM      3  H2  UNL     1      13.079  10.588  26.936  1.00  0.00     0.186 HD
HETATM    4  C2  UNL     1      14.874  11.610  26.754  1.00  0.00     0.147 A 
HETATM    5  C3  UNL     1      16.173  11.704  27.247  1.00  0.00     0.140 A 
HETATM    6  N4  UNL     1      17.216  12.518  26.926  1.00  0.00    -0.279 N 
ATOM      7  H4  UNL     1      17.213  13.249  26.215  1.00  0.00     0.189 HD
HETATM    8  N5  UNL     1      18.242  12.187  27.709  1.00  0.00    -0.238 N 
ATOM      9  H5  UNL     1      19.158  12.634  27.686  1.00  0.00     0.208 HD
HETATM   10  N6  UNL     1      17.909  11.206  28.511  1.00  0.00    -0.260 N 
HETATM   11  C9  UNL     1      16.632  10.877  28.255  1.00  0.00     0.171 A 
HETATM   12  N8  UNL     1      15.741   9.966  28.736  1.00  0.00    -0.173 N 
ATOM     13  H8  UNL     1      16.030   9.333  29.482  1.00  0.00     0.186 HD
ENDROOT
BRANCH  10  14
HETATM   14  C4  UNL     1      18.703  10.572  29.502  1.00  0.00     0.154 C 
BRANCH  14  15
HETATM   15  C5  UNL     1      19.844   9.750  28.879  1.00  0.00     0.041 C 
BRANCH  15  16
HETATM   16  C6  UNL     1      21.086  10.092  29.696  1.00  0.00     0.115 C 
BRANCH  16  17
HETATM   17  N7  UNL     1      21.508   9.026  30.520  1.00  0.00    -0.419 N 
ATOM     18  H7  UNL     1      22.280   9.125  31.179  1.00  0.00     0.153 HD
BRANCH  17  19
HETATM   19  C7  UNL     1      20.795   7.818  30.377  1.00  0.00     0.139 C 
BRANCH  19  20
HETATM   20  C8  UNL     1      20.709   6.888  31.529  1.00  0.00     0.183 C 
BRANCH  20  21
HETATM   21  O1  UNL     1      21.170   5.614  31.229  1.00  0.00    -0.399 OA
ATOM     22  H1  UNL     1      21.926   5.622  30.653  1.00  0.00     0.209 HD
ENDBRANCH  20  21
ENDBRANCH  19  20
ENDBRANCH  17  19
ENDBRANCH  16  17
ENDBRANCH  15  16
ENDBRANCH  14  15
ENDBRANCH  10  14
BRANCH   4  23
HETATM   23  N3  UNL     1      14.475  12.401  25.818  1.00  0.00    -0.383 N 
ATOM     24  H32 UNL     1      14.868  12.328  24.880  1.00  0.00     0.157 HD
ATOM     25  H31 UNL     1      13.766  13.110  26.003  1.00  0.00     0.157 HD
ENDBRANCH   4  23
BRANCH   1  26
HETATM   26  N1  UNL     1      13.635   9.004  28.723  1.00  0.00    -0.234 N 
ATOM     27  H12 UNL     1      13.923   8.273  29.373  1.00  0.00     0.174 HD
ATOM     28  H11 UNL     1      12.675   9.108  28.395  1.00  0.00     0.174 HD
ENDBRANCH   1  26
TORSDOF 9
ENDMDL
MODEL 4
REMARK VINA RESULT: -6.678327761      1.619      3.519
REMARK  9 active torsions:
REMARK  status: ('A' for Active; 'I' for Inactive)
REMARK    1  A    between atoms: N1_1  and  C1_4 
REMARK    2  A    between atoms: C2_7  and  N3_8 
REMARK    3  A    between atoms: N6_16  and  C4_17 
REMARK    4  A    between atoms: C4_17  and  C5_18 
REMARK    5  A    between atoms: C5_18  and  C6_19 
REMARK    6  A    between atoms: C6_19  and  N7_20 
REMARK    7  A    between atoms: N7_20  and  C7_22 
REMARK    8  A    between atoms: C7_22  and  C8_23 
REMARK    9  A    between atoms: C8_23  and  O1_24 
ROOT
HETATM    1  C1  UNL     1      16.034   9.033  30.308  1.00  0.00     0.679 A 
HETATM    2  N2  UNL     1      14.917   8.707  29.641  1.00  0.00    -0.175 N 
ATOM      3  H2  UNL     1      14.370   7.889  29.910  1.00  0.00     0.186 HD
HETATM    4  C2  UNL     1      14.531   9.490  28.603  1.00  0.00     0.147 A 
HETATM    5  C3  UNL     1      15.305  10.598  28.267  1.00  0.00     0.140 A 
HETATM    6  N4  UNL     1      15.175  11.545  27.297  1.00  0.00    -0.279 N 
ATOM      7  H4  UNL     1      14.428  11.599  26.604  1.00  0.00     0.189 HD
HETATM    8  N5  UNL     1      16.198  12.389  27.416  1.00  0.00    -0.238 N 
ATOM      9  H5  UNL     1      16.356  13.199  26.818  1.00  0.00     0.208 HD
HETATM   10  N6  UNL     1      16.975  12.031  28.410  1.00  0.00    -0.260 N 
HETATM   11  C9  UNL     1      16.454  10.923  28.963  1.00  0.00     0.171 A 
HETATM   12  N8  UNL     1      16.785  10.097  29.994  1.00  0.00    -0.173 N 
ATOM     13  H8  UNL     1      17.623  10.293  30.540  1.00  0.00     0.186 HD
ENDROOT
BRANCH  10  14
HETATM   14  C4  UNL     1      18.156  12.665  28.876  1.00  0.00     0.154 C 
BRANCH  14  15
HETATM   15  C5  UNL     1      19.403  12.168  28.126  1.00  0.00     0.041 C 
BRANCH  15  16
HETATM   16  C6  UNL     1      20.160  11.297  29.124  1.00  0.00     0.115 C 
BRANCH  16  17
HETATM   17  N7  UNL     1      19.986   9.917  28.885  1.00  0.00    -0.419 N 
ATOM     18  H7  UNL     1      19.410   9.569  28.118  1.00  0.00     0.153 HD
BRANCH  17  19
HETATM   19  C7  UNL     1      20.658   9.049  29.770  1.00  0.00     0.139 C 
BRANCH  19  20
HETATM   20  C8  UNL     1      19.864   8.175  30.667  1.00  0.00     0.183 C 
BRANCH  20  21
HETATM   21  O1  UNL     1      19.235   8.878  31.685  1.00  0.00    -0.399 OA
ATOM     22  H1  UNL     1      19.037   8.336  32.440  1.00  0.00     0.209 HD
ENDBRANCH  20  21
ENDBRANCH  19  20
ENDBRANCH  17  19
ENDBRANCH  16  17
ENDBRANCH  15  16
ENDBRANCH  14  15
ENDBRANCH  10  14
BRANCH   4  23
HETATM   23  N3  UNL     1      13.461   9.219  27.937  1.00  0.00    -0.383 N 
ATOM     24  H32 UNL     1      13.269   9.694  27.056  1.00  0.00     0.157 HD
ATOM     25  H31 UNL     1      12.793   8.531  28.285  1.00  0.00     0.157 HD
ENDBRANCH   4  23
BRANCH   1  26
HETATM   26  N1  UNL     1      16.355   8.238  31.306  1.00  0.00    -0.234 N 
ATOM     27  H12 UNL     1      17.329   8.040  31.537  1.00  0.00     0.174 HD
ATOM     28  H11 UNL     1      15.570   7.843  31.824  1.00  0.00     0.174 HD
ENDBRANCH   1  26
TORSDOF 9
ENDMDL
MODEL 5
REMARK VINA RESULT: -6.666864213      2.861      6.023
REMARK  9 active torsions:
REMARK  status: ('A' for Active; 'I' for Inactive)
REMARK    1  A    between atoms: N1_1  and  C1_4 
REMARK    2  A    between atoms: C2_7  and  N3_8 
REMARK    3  A    between atoms: N6_16  and  C4_17 
REMARK    4  A    between atoms: C4_17  and  C5_18 
REMARK    5  A    between atoms: C5_18  and  C6_19 
REMARK    6  A    between atoms: C6_19  and  N7_20 
REMARK    7  A    between atoms: N7_20  and  C7_22 
REMARK    8  A    between atoms: C7_22  and  C8_23 
REMARK    9  A    between atoms: C8_23  and  O1_24 
ROOT
HETATM    1  C1  UNL     1      20.142   7.307  30.881  1.00  0.00     0.679 A 
HETATM    2  N2  UNL     1      21.223   8.101  30.871  1.00  0.00    -0.175 N 
ATOM      3  H2  UNL     1      22.077   7.826  31.356  1.00  0.00     0.186 HD
HETATM    4  C2  UNL     1      21.154   9.279  30.201  1.00  0.00     0.147 A 
HETATM    5  C3  UNL     1      19.970   9.618  29.551  1.00  0.00     0.140 A 
HETATM    6  N4  UNL     1      19.609  10.707  28.816  1.00  0.00    -0.279 N 
ATOM      7  H4  UNL     1      20.197  11.514  28.607  1.00  0.00     0.189 HD
HETATM    8  N5  UNL     1      18.351  10.528  28.420  1.00  0.00    -0.238 N 
ATOM      9  H5  UNL     1      17.821  11.189  27.852  1.00  0.00     0.208 HD
HETATM   10  N6  UNL     1      17.889   9.384  28.861  1.00  0.00    -0.260 N 
HETATM   11  C9  UNL     1      18.864   8.790  29.569  1.00  0.00     0.171 A 
HETATM   12  N8  UNL     1      19.000   7.623  30.259  1.00  0.00    -0.173 N 
ATOM     13  H8  UNL     1      18.213   6.976  30.302  1.00  0.00     0.186 HD
ENDROOT
BRANCH  10  14
HETATM   14  C4  UNL     1      16.606   8.814  28.652  1.00  0.00     0.154 C 
BRANCH  14  15
HETATM   15  C5  UNL     1      15.665   9.078  29.839  1.00  0.00     0.041 C 
BRANCH  15  16
HETATM   16  C6  UNL     1      15.654  10.593  30.021  1.00  0.00     0.115 C 
BRANCH  16  17
HETATM   17  N7  UNL     1      14.616  11.222  29.301  1.00  0.00    -0.419 N 
ATOM     18  H7  UNL     1      13.676  11.323  29.683  1.00  0.00     0.153 HD
BRANCH  17  19
HETATM   19  C7  UNL     1      14.958  11.702  28.020  1.00  0.00     0.139 C 
BRANCH  19  20
HETATM   20  C8  UNL     1      14.190  11.230  26.842  1.00  0.00     0.183 C 
BRANCH  20  21
HETATM   21  O1  UNL     1      13.385  10.136  27.128  1.00  0.00    -0.399 OA
ATOM     22  H1  UNL     1      13.230   9.585  26.370  1.00  0.00     0.209 HD
ENDBRANCH  20  21
ENDBRANCH  19  20
ENDBRANCH  17  19
ENDBRANCH  16  17
ENDBRANCH  15  16
ENDBRANCH  14  15
ENDBRANCH  10  14
BRANCH   4  23
HETATM   23  N3  UNL     1      22.169  10.071  30.159  1.00  0.00    -0.383 N 
ATOM     24  H32 UNL     1      23.062   9.745  29.790  1.00  0.00     0.157 HD
ATOM     25  H31 UNL     1      22.094  11.031  30.497  1.00  0.00     0.157 HD
ENDBRANCH   4  23
BRANCH   1  26
HETATM   26  N1  UNL     1      20.272   6.178  31.545  1.00  0.00    -0.234 N 
ATOM     27  H12 UNL     1      21.183   5.737  31.672  1.00  0.00     0.174 HD
ATOM     28  H11 UNL     1      19.408   5.786  31.920  1.00  0.00     0.174 HD
ENDBRANCH   1  26
TORSDOF 9
ENDMDL
