MODEL 1
REMARK VINA RESULT: -7.398650950      0.000      0.000
REMARK  4 active torsions:
REMARK  status: ('A' for Active; 'I' for Inactive)
REMARK    1  A    between atoms: C4_7  and  N3_8 
REMARK    2  A    between atoms: N3_8  and  C5_10 
REMARK    3  A    between atoms: C8_19  and  N7_20 
REMARK    4  A    between atoms: N7_20  and  C9_22 
ROOT
HETATM    1  N1  UNL     1      12.996  46.403  15.561  1.00  0.00    -0.191 NA
HETATM    2  C1  UNL     1      13.772  46.316  16.419  1.00  0.00     0.104 C 
HETATM    3  C2  UNL     1      14.757  46.226  17.454  1.00  0.00     0.105 A 
HETATM    4  C3  UNL     1      16.054  46.704  17.175  1.00  0.00     0.132 A 
HETATM    5  N2  UNL     1      16.988  46.626  18.136  1.00  0.00    -0.200 N 
ATOM      6  H2  UNL     1      17.929  46.970  17.945  1.00  0.00     0.183 HD
HETATM    7  C4  UNL     1      16.712  46.106  19.344  1.00  0.00     0.685 A 
HETATM    8  N6  UNL     1      15.488  45.662  19.585  1.00  0.00    -0.175 N 
ATOM      9  H6  UNL     1      15.296  45.271  20.508  1.00  0.00     0.186 HD
HETATM   10  C8  UNL     1      14.456  45.694  18.672  1.00  0.00     0.143 A 
ENDROOT
BRANCH  10  11
HETATM   11  N7  UNL     1      13.363  45.258  18.996  1.00  0.00    -0.341 N 
ATOM     12  H7  UNL     1      13.418  44.241  18.983  1.00  0.00     0.167 HD
BRANCH  11  13
HETATM   13  C9  UNL     1      12.099  45.599  19.366  1.00  0.00     0.033 A 
HETATM   14  C10 UNL     1      10.975  45.042  18.782  1.00  0.00     0.029 A 
HETATM   15  C11 UNL     1       9.721  45.420  19.168  1.00  0.00     0.002 A 
HETATM   16  C12 UNL     1       9.512  46.369  20.152  1.00  0.00     0.000 A 
HETATM   17  C13 UNL     1      10.650  46.912  20.721  1.00  0.00     0.002 A 
HETATM   18  C14 UNL     1      11.910  46.545  20.346  1.00  0.00     0.029 A 
ENDBRANCH  11  13
ENDBRANCH  10  11
BRANCH   7  19
HETATM   19  N3  UNL     1      17.666  46.056  20.241  1.00  0.00    -0.175 N 
ATOM     20  H3  UNL     1      17.749  46.821  20.911  1.00  0.00     0.186 HD
BRANCH  19  21
HETATM   21  C5  UNL     1      18.576  44.996  20.316  1.00  0.00     0.136 A 
HETATM   22  C6  UNL     1      19.692  44.760  19.516  1.00  0.00     0.069 A 
HETATM   23  C7  UNL     1      20.238  43.591  20.010  1.00  0.00     0.111 A 
HETATM   24  N4  UNL     1      19.473  43.178  21.040  1.00  0.00    -0.310 N 
HETATM   25  N5  UNL     1      18.481  44.000  21.236  1.00  0.00    -0.285 N 
ATOM     26  H4  UNL     1      19.647  42.337  21.591  1.00  0.00     0.186 HD
ATOM     27  H5  UNL     1      17.762  43.911  21.953  1.00  0.00     0.188 HD
ENDBRANCH  19  21
ENDBRANCH   7  19
TORSDOF 4
ENDMDL
MODEL 2
REMARK VINA RESULT: -7.057508012      3.341      7.156
REMARK  4 active torsions:
REMARK  status: ('A' for Active; 'I' for Inactive)
REMARK    1  A    between atoms: C4_7  and  N3_8 
REMARK    2  A    between atoms: N3_8  and  C5_10 
REMARK    3  A    between atoms: C8_19  and  N7_20 
REMARK    4  A    between atoms: N7_20  and  C9_22 
ROOT
HETATM    1  N1  UNL     1      11.852  44.682  14.544  1.00  0.00    -0.191 NA
HETATM    2  C1  UNL     1      11.378  44.849  15.589  1.00  0.00     0.104 C 
HETATM    3  C2  UNL     1      10.758  45.059  16.862  1.00  0.00     0.105 A 
HETATM    4  C3  UNL     1       9.370  45.314  16.887  1.00  0.00     0.132 A 
HETATM    5  N2  UNL     1       8.775  45.513  18.073  1.00  0.00    -0.200 N 
ATOM      6  H2  UNL     1       7.772  45.698  18.102  1.00  0.00     0.183 HD
HETATM    7  C4  UNL     1       9.469  45.476  19.223  1.00  0.00     0.685 A 
HETATM    8  N6  UNL     1      10.770  45.235  19.178  1.00  0.00    -0.175 N 
ATOM      9  H6  UNL     1      11.281  45.209  20.061  1.00  0.00     0.186 HD
HETATM   10  C8  UNL     1      11.479  45.017  18.017  1.00  0.00     0.143 A 
ENDROOT
BRANCH  10  11
HETATM   11  N7  UNL     1      12.680  44.804  18.085  1.00  0.00    -0.341 N 
ATOM     12  H7  UNL     1      12.816  43.793  18.081  1.00  0.00     0.167 HD
BRANCH  11  13
HETATM   13  C9  UNL     1      13.906  45.386  18.164  1.00  0.00     0.033 A 
HETATM   14  C10 UNL     1      14.448  46.125  17.126  1.00  0.00     0.029 A 
HETATM   15  C11 UNL     1      15.691  46.682  17.234  1.00  0.00     0.002 A 
HETATM   16  C12 UNL     1      16.461  46.539  18.372  1.00  0.00     0.000 A 
HETATM   17  C13 UNL     1      15.899  45.798  19.395  1.00  0.00     0.002 A 
HETATM   18  C14 UNL     1      14.659  45.234  19.303  1.00  0.00     0.029 A 
ENDBRANCH  11  13
ENDBRANCH  10  11
BRANCH   7  19
HETATM   19  N3  UNL     1       8.831  45.678  20.350  1.00  0.00    -0.175 N 
ATOM     20  H3  UNL     1       8.191  44.959  20.687  1.00  0.00     0.186 HD
BRANCH  19  21
HETATM   21  C5  UNL     1       8.994  46.842  21.109  1.00  0.00     0.136 A 
HETATM   22  C6  UNL     1      10.043  47.758  21.068  1.00  0.00     0.069 A 
HETATM   23  C7  UNL     1       9.714  48.713  22.010  1.00  0.00     0.111 A 
HETATM   24  N4  UNL     1       8.536  48.362  22.563  1.00  0.00    -0.310 N 
HETATM   25  N5  UNL     1       8.094  47.253  22.041  1.00  0.00    -0.285 N 
ATOM     26  H4  UNL     1       8.057  48.891  23.292  1.00  0.00     0.186 HD
ATOM     27  H5  UNL     1       7.226  46.778  22.288  1.00  0.00     0.188 HD
ENDBRANCH  19  21
ENDBRANCH   7  19
TORSDOF 4
ENDMDL
MODEL 3
REMARK VINA RESULT: -6.949087237      2.605      4.283
REMARK  4 active torsions:
REMARK  status: ('A' for Active; 'I' for Inactive)
REMARK    1  A    between atoms: C4_7  and  N3_8 
REMARK    2  A    between atoms: N3_8  and  C5_10 
REMARK    3  A    between atoms: C8_19  and  N7_20 
REMARK    4  A    between atoms: N7_20  and  C9_22 
ROOT
HETATM    1  N1  UNL     1       8.505  45.330  19.053  1.00  0.00    -0.191 NA
HETATM    2  C1  UNL     1       9.663  45.388  19.031  1.00  0.00     0.104 C 
HETATM    3  C2  UNL     1      11.092  45.440  18.968  1.00  0.00     0.105 A 
HETATM    4  C3  UNL     1      11.725  44.878  17.839  1.00  0.00     0.132 A 
HETATM    5  N2  UNL     1      13.065  44.920  17.766  1.00  0.00    -0.200 N 
ATOM      6  H2  UNL     1      13.532  44.517  16.954  1.00  0.00     0.183 HD
HETATM    7  C4  UNL     1      13.804  45.481  18.738  1.00  0.00     0.685 A 
HETATM    8  N6  UNL     1      13.191  46.003  19.789  1.00  0.00    -0.175 N 
ATOM      9  H6  UNL     1      13.768  46.425  20.517  1.00  0.00     0.186 HD
HETATM   10  C8  UNL     1      11.824  46.013  19.964  1.00  0.00     0.143 A 
ENDROOT
BRANCH  10  11
HETATM   11  N7  UNL     1      11.358  46.521  20.972  1.00  0.00    -0.341 N 
ATOM     12  H7  UNL     1      11.826  46.103  21.775  1.00  0.00     0.167 HD
BRANCH  11  13
HETATM   13  C9  UNL     1      10.458  47.425  21.443  1.00  0.00     0.033 A 
HETATM   14  C10 UNL     1       9.377  47.062  22.228  1.00  0.00     0.029 A 
HETATM   15  C11 UNL     1       8.483  47.996  22.670  1.00  0.00     0.002 A 
HETATM   16  C12 UNL     1       8.611  49.337  22.359  1.00  0.00     0.000 A 
HETATM   17  C13 UNL     1       9.698  49.676  21.574  1.00  0.00     0.002 A 
HETATM   18  C14 UNL     1      10.600  48.755  21.124  1.00  0.00     0.029 A 
ENDBRANCH  11  13
ENDBRANCH  10  11
BRANCH   7  19
HETATM   19  N3  UNL     1      15.108  45.491  18.610  1.00  0.00    -0.175 N 
ATOM     20  H3  UNL     1      15.633  44.656  18.870  1.00  0.00     0.186 HD
BRANCH  19  21
HETATM   21  C5  UNL     1      15.809  46.603  18.130  1.00  0.00     0.136 A 
HETATM   22  C6  UNL     1      15.593  47.316  16.953  1.00  0.00     0.069 A 
HETATM   23  C7  UNL     1      16.552  48.310  16.962  1.00  0.00     0.111 A 
HETATM   24  N4  UNL     1      17.281  48.173  18.087  1.00  0.00    -0.310 N 
HETATM   25  N5  UNL     1      16.854  47.165  18.793  1.00  0.00    -0.285 N 
ATOM     26  H4  UNL     1      18.060  48.777  18.350  1.00  0.00     0.186 HD
ATOM     27  H5  UNL     1      17.238  46.853  19.685  1.00  0.00     0.188 HD
ENDBRANCH  19  21
ENDBRANCH   7  19
TORSDOF 4
ENDMDL
MODEL 4
REMARK VINA RESULT: -6.863777684      2.482      5.113
REMARK  4 active torsions:
REMARK  status: ('A' for Active; 'I' for Inactive)
REMARK    1  A    between atoms: C4_7  and  N3_8 
REMARK    2  A    between atoms: N3_8  and  C5_10 
REMARK    3  A    between atoms: C8_19  and  N7_20 
REMARK    4  A    between atoms: N7_20  and  C9_22 
ROOT
HETATM    1  N1  UNL     1      17.412  44.139  21.228  1.00  0.00    -0.191 NA
HETATM    2  C1  UNL     1      17.169  44.914  20.400  1.00  0.00     0.104 C 
HETATM    3  C2  UNL     1      16.908  45.881  19.377  1.00  0.00     0.105 A 
HETATM    4  C3  UNL     1      17.995  46.636  18.889  1.00  0.00     0.132 A 
HETATM    5  N2  UNL     1      17.765  47.547  17.930  1.00  0.00    -0.200 N 
ATOM      6  H2  UNL     1      18.544  48.097  17.569  1.00  0.00     0.183 HD
HETATM    7  C4  UNL     1      16.533  47.749  17.434  1.00  0.00     0.685 A 
HETATM    8  N6  UNL     1      15.527  47.030  17.905  1.00  0.00    -0.175 N 
ATOM      9  H6  UNL     1      14.598  47.197  17.517  1.00  0.00     0.186 HD
HETATM   10  C8  UNL     1      15.651  46.071  18.887  1.00  0.00     0.143 A 
ENDROOT
BRANCH  10  11
HETATM   11  N7  UNL     1      14.657  45.463  19.253  1.00  0.00    -0.341 N 
ATOM     12  H7  UNL     1      14.943  44.813  19.985  1.00  0.00     0.167 HD
BRANCH  11  13
HETATM   13  C9  UNL     1      13.319  45.312  19.066  1.00  0.00     0.033 A 
HETATM   14  C10 UNL     1      12.790  44.431  18.139  1.00  0.00     0.029 A 
HETATM   15  C11 UNL     1      11.440  44.317  17.966  1.00  0.00     0.002 A 
HETATM   16  C12 UNL     1      10.542  45.069  18.700  1.00  0.00     0.000 A 
HETATM   17  C13 UNL     1      11.093  45.943  19.620  1.00  0.00     0.002 A 
HETATM   18  C14 UNL     1      12.440  46.068  19.804  1.00  0.00     0.029 A 
ENDBRANCH  11  13
ENDBRANCH  10  11
BRANCH   7  19
HETATM   19  N3  UNL     1      16.372  48.653  16.498  1.00  0.00    -0.175 N 
ATOM     20  H3  UNL     1      16.785  48.486  15.579  1.00  0.00     0.186 HD
BRANCH  19  21
HETATM   21  C5  UNL     1      15.657  49.836  16.708  1.00  0.00     0.136 A 
HETATM   22  C6  UNL     1      14.789  50.486  15.833  1.00  0.00     0.069 A 
HETATM   23  C7  UNL     1      14.354  51.597  16.529  1.00  0.00     0.111 A 
HETATM   24  N4  UNL     1      14.943  51.585  17.741  1.00  0.00    -0.310 N 
HETATM   25  N5  UNL     1      15.720  50.547  17.865  1.00  0.00    -0.285 N 
ATOM     26  H4  UNL     1      14.800  52.292  18.463  1.00  0.00     0.186 HD
ATOM     27  H5  UNL     1      16.278  50.310  18.686  1.00  0.00     0.188 HD
ENDBRANCH  19  21
ENDBRANCH   7  19
TORSDOF 4
ENDMDL
MODEL 5
REMARK VINA RESULT: -6.854731671      1.472      2.116
REMARK  4 active torsions:
REMARK  status: ('A' for Active; 'I' for Inactive)
REMARK    1  A    between atoms: C4_7  and  N3_8 
REMARK    2  A    between atoms: N3_8  and  C5_10 
REMARK    3  A    between atoms: C8_19  and  N7_20 
REMARK    4  A    between atoms: N7_20  and  C9_22 
ROOT
HETATM    1  N1  UNL     1      11.236  43.951  15.395  1.00  0.00    -0.191 NA
HETATM    2  C1  UNL     1      12.115  44.484  15.932  1.00  0.00     0.104 C 
HETATM    3  C2  UNL     1      13.220  45.142  16.561  1.00  0.00     0.105 A 
HETATM    4  C3  UNL     1      14.330  45.481  15.760  1.00  0.00     0.132 A 
HETATM    5  N2  UNL     1      15.373  46.099  16.335  1.00  0.00    -0.200 N 
ATOM      6  H2  UNL     1      16.181  46.349  15.764  1.00  0.00     0.183 HD
HETATM    7  C4  UNL     1      15.378  46.395  17.646  1.00  0.00     0.685 A 
HETATM    8  N6  UNL     1      14.327  46.068  18.380  1.00  0.00    -0.175 N 
ATOM      9  H6  UNL     1      14.348  46.301  19.374  1.00  0.00     0.186 HD
HETATM   10  C8  UNL     1      13.206  45.433  17.892  1.00  0.00     0.143 A 
ENDROOT
BRANCH  10  11
HETATM   11  N7  UNL     1      12.289  45.175  18.656  1.00  0.00    -0.341 N 
ATOM     12  H7  UNL     1      12.264  44.163  18.781  1.00  0.00     0.167 HD
BRANCH  11  13
HETATM   13  C9  UNL     1      11.287  45.708  19.405  1.00  0.00     0.033 A 
HETATM   14  C10 UNL     1       9.954  45.399  19.196  1.00  0.00     0.029 A 
HETATM   15  C11 UNL     1       8.972  45.967  19.958  1.00  0.00     0.002 A 
HETATM   16  C12 UNL     1       9.257  46.870  20.964  1.00  0.00     0.000 A 
HETATM   17  C13 UNL     1      10.595  47.164  21.155  1.00  0.00     0.002 A 
HETATM   18  C14 UNL     1      11.588  46.605  20.402  1.00  0.00     0.029 A 
ENDBRANCH  11  13
ENDBRANCH  10  11
BRANCH   7  19
HETATM   19  N3  UNL     1      16.427  46.999  18.150  1.00  0.00    -0.175 N 
ATOM     20  H3  UNL     1      16.546  47.998  17.981  1.00  0.00     0.186 HD
BRANCH  19  21
HETATM   21  C5  UNL     1      17.389  46.327  18.913  1.00  0.00     0.136 A 
HETATM   22  C6  UNL     1      17.206  45.612  20.095  1.00  0.00     0.069 A 
HETATM   23  C7  UNL     1      18.466  45.154  20.427  1.00  0.00     0.111 A 
HETATM   24  N4  UNL     1      19.327  45.585  19.484  1.00  0.00    -0.310 N 
HETATM   25  N5  UNL     1      18.705  46.283  18.577  1.00  0.00    -0.285 N 
ATOM     26  H4  UNL     1      20.329  45.391  19.481  1.00  0.00     0.186 HD
ATOM     27  H5  UNL     1      19.131  46.720  17.760  1.00  0.00     0.188 HD
ENDBRANCH  19  21
ENDBRANCH   7  19
TORSDOF 4
ENDMDL
