MODEL 1
REMARK VINA RESULT: -6.429002649      0.000      0.000
REMARK  2 active torsions:
REMARK  status: ('A' for Active; 'I' for Inactive)
REMARK       I    between atoms: N1_2  and  C2_4 
REMARK       I    between atoms: C2_4  and  N3_8 
REMARK       I    between atoms: C3_10  and  N4_11 
REMARK       I    between atoms: C3_10  and  N5_18 
REMARK    1  A    between atoms: N4_11  and  C4_13 
REMARK    2  A    between atoms: C4_13  and  C6_15 
ROOT
HETATM    1  C1  UNL     1      18.935 -14.061  22.086  1.00  0.00     0.165 C 
HETATM    2  N1  UNL     1      17.654 -14.295  22.688  1.00  0.00    -0.230 N 
ATOM      3  H1  UNL     1      17.529 -14.028  23.664  1.00  0.00     0.177 HD
HETATM    4  C2  UNL     1      16.545 -14.875  22.008  1.00  0.00     0.685 C 
HETATM    5  N2  UNL     1      16.768 -15.976  21.372  1.00  0.00    -0.234 N 
ATOM      6  H21 UNL     1      15.974 -16.392  20.885  1.00  0.00     0.174 HD
ATOM      7  H22 UNL     1      17.686 -16.420  21.347  1.00  0.00     0.174 HD
HETATM    8  N3  UNL     1      15.286 -14.266  22.042  1.00  0.00    -0.023 N 
ATOM      9  H3  UNL     1      14.721 -14.394  22.882  1.00  0.00     0.203 HD
HETATM   10  C3  UNL     1      14.787 -13.553  21.089  1.00  0.00     0.691 C 
HETATM   11  N4  UNL     1      15.555 -13.349  19.889  1.00  0.00    -0.211 N 
ATOM     12  H4  UNL     1      16.534 -13.078  19.976  1.00  0.00     0.178 HD
HETATM   13  N5  UNL     1      13.502 -12.958  21.181  1.00  0.00    -0.217 N 
HETATM   14  C7  UNL     1      12.295 -13.672  21.487  1.00  0.00     0.141 C 
HETATM   15  C8  UNL     1      11.341 -12.716  22.180  1.00  0.00     0.020 C 
HETATM   16  C9  UNL     1      12.086 -11.747  23.072  1.00  0.00     0.003 C 
HETATM   17  C10 UNL     1      12.924 -10.857  22.193  1.00  0.00     0.020 C 
HETATM   18  C11 UNL     1      13.407 -11.528  20.946  1.00  0.00     0.141 C 
ENDROOT
BRANCH  11  19
HETATM   19  C4  UNL     1      15.003 -13.512  18.578  1.00  0.00     0.196 C 
HETATM   20  C5  UNL     1      15.664 -14.716  17.946  1.00  0.00     0.044 C 
BRANCH  19  21
HETATM   21  C6  UNL     1      15.363 -12.338  17.747  1.00  0.00     0.196 C 
HETATM   22  O1  UNL     1      16.563 -11.997  17.521  1.00  0.00    -0.646 OA
HETATM   23  O2  UNL     1      14.360 -11.570  17.189  1.00  0.00    -0.646 OA
ENDBRANCH  19  21
ENDBRANCH  11  19
TORSDOF 2
ENDMDL
MODEL 2
REMARK VINA RESULT: -6.183759306      2.820      5.443
REMARK  2 active torsions:
REMARK  status: ('A' for Active; 'I' for Inactive)
REMARK       I    between atoms: N1_2  and  C2_4 
REMARK       I    between atoms: C2_4  and  N3_8 
REMARK       I    between atoms: C3_10  and  N4_11 
REMARK       I    between atoms: C3_10  and  N5_18 
REMARK    1  A    between atoms: N4_11  and  C4_13 
REMARK    2  A    between atoms: C4_13  and  C6_15 
ROOT
HETATM    1  C1  UNL     1      12.824 -10.326  22.610  1.00  0.00     0.165 C 
HETATM    2  N1  UNL     1      13.930 -10.288  21.698  1.00  0.00    -0.230 N 
ATOM      3  H1  UNL     1      14.644  -9.576  21.844  1.00  0.00     0.177 HD
HETATM    4  C2  UNL     1      14.094 -11.182  20.602  1.00  0.00     0.685 C 
HETATM    5  N2  UNL     1      13.079 -11.327  19.816  1.00  0.00    -0.234 N 
ATOM      6  H21 UNL     1      13.196 -11.967  19.031  1.00  0.00     0.174 HD
ATOM      7  H22 UNL     1      12.198 -10.833  19.960  1.00  0.00     0.174 HD
HETATM    8  N3  UNL     1      15.302 -11.859  20.404  1.00  0.00    -0.023 N 
ATOM      9  H3  UNL     1      16.070 -11.340  19.977  1.00  0.00     0.203 HD
HETATM   10  C3  UNL     1      15.516 -13.091  20.723  1.00  0.00     0.691 C 
HETATM   11  N4  UNL     1      14.456 -13.854  21.328  1.00  0.00    -0.211 N 
ATOM     12  H4  UNL     1      13.934 -13.438  22.098  1.00  0.00     0.178 HD
HETATM   13  N5  UNL     1      16.766 -13.725  20.499  1.00  0.00    -0.217 N 
HETATM   14  C7  UNL     1      17.437 -13.775  19.231  1.00  0.00     0.141 C 
HETATM   15  C8  UNL     1      18.931 -13.852  19.487  1.00  0.00     0.020 C 
HETATM   16  C9  UNL     1      19.323 -13.039  20.702  1.00  0.00     0.003 C 
HETATM   17  C10 UNL     1      18.707 -13.688  21.913  1.00  0.00     0.020 C 
HETATM   18  C11 UNL     1      17.405 -14.368  21.633  1.00  0.00     0.141 C 
ENDROOT
BRANCH  11  19
HETATM   19  C4  UNL     1      14.104 -15.172  20.892  1.00  0.00     0.196 C 
HETATM   20  C5  UNL     1      13.748 -15.092  19.425  1.00  0.00     0.044 C 
BRANCH  19  21
HETATM   21  C6  UNL     1      12.882 -15.613  21.608  1.00  0.00     0.196 C 
HETATM   22  O1  UNL     1      12.555 -16.831  21.724  1.00  0.00    -0.646 OA
HETATM   23  O2  UNL     1      12.053 -14.666  22.176  1.00  0.00    -0.646 OA
ENDBRANCH  19  21
ENDBRANCH  11  19
TORSDOF 2
ENDMDL
MODEL 3
REMARK VINA RESULT: -6.145053903      3.067      5.684
REMARK  2 active torsions:
REMARK  status: ('A' for Active; 'I' for Inactive)
REMARK       I    between atoms: N1_2  and  C2_4 
REMARK       I    between atoms: C2_4  and  N3_8 
REMARK       I    between atoms: C3_10  and  N4_11 
REMARK       I    between atoms: C3_10  and  N5_18 
REMARK    1  A    between atoms: N4_11  and  C4_13 
REMARK    2  A    between atoms: C4_13  and  C6_15 
ROOT
HETATM    1  C1  UNL     1      13.649 -11.179  21.550  1.00  0.00     0.165 C 
HETATM    2  N1  UNL     1      15.060 -11.343  21.347  1.00  0.00    -0.230 N 
ATOM      3  H1  UNL     1      15.686 -10.669  21.787  1.00  0.00     0.177 HD
HETATM    4  C2  UNL     1      15.640 -12.385  20.571  1.00  0.00     0.685 C 
HETATM    5  N2  UNL     1      15.158 -12.563  19.386  1.00  0.00    -0.234 N 
ATOM      6  H21 UNL     1      15.574 -13.310  18.830  1.00  0.00     0.174 HD
ATOM      7  H22 UNL     1      14.400 -11.993  19.012  1.00  0.00     0.174 HD
HETATM    8  N3  UNL     1      16.680 -13.167  21.086  1.00  0.00    -0.023 N 
ATOM      9  H3  UNL     1      17.619 -12.766  21.082  1.00  0.00     0.203 HD
HETATM   10  C3  UNL     1      16.540 -14.357  21.566  1.00  0.00     0.691 C 
HETATM   11  N4  UNL     1      15.231 -14.954  21.588  1.00  0.00    -0.211 N 
ATOM     12  H4  UNL     1      14.448 -14.402  21.938  1.00  0.00     0.178 HD
HETATM   13  N5  UNL     1      17.635 -15.102  22.076  1.00  0.00    -0.217 N 
HETATM   14  C7  UNL     1      18.844 -15.370  21.351  1.00  0.00     0.141 C 
HETATM   15  C8  UNL     1      19.975 -15.518  22.353  1.00  0.00     0.020 C 
HETATM   16  C9  UNL     1      19.796 -14.577  23.525  1.00  0.00     0.003 C 
HETATM   17  C10 UNL     1      18.572 -15.011  24.286  1.00  0.00     0.020 C 
HETATM   18  C11 UNL     1      17.517 -15.629  23.423  1.00  0.00     0.141 C 
ENDROOT
BRANCH  11  19
HETATM   19  C4  UNL     1      14.981 -16.290  21.139  1.00  0.00     0.196 C 
HETATM   20  C5  UNL     1      14.558 -16.216  19.688  1.00  0.00     0.044 C 
BRANCH  19  21
HETATM   21  C6  UNL     1      13.834 -16.853  21.892  1.00  0.00     0.196 C 
HETATM   22  O1  UNL     1      13.828 -18.032  22.356  1.00  0.00    -0.646 OA
HETATM   23  O2  UNL     1      12.716 -16.071  22.104  1.00  0.00    -0.646 OA
ENDBRANCH  19  21
ENDBRANCH  11  19
TORSDOF 2
ENDMDL
MODEL 4
REMARK VINA RESULT: -6.111126620      2.181      4.823
REMARK  2 active torsions:
REMARK  status: ('A' for Active; 'I' for Inactive)
REMARK       I    between atoms: N1_2  and  C2_4 
REMARK       I    between atoms: C2_4  and  N3_8 
REMARK       I    between atoms: C3_10  and  N4_11 
REMARK       I    between atoms: C3_10  and  N5_18 
REMARK    1  A    between atoms: N4_11  and  C4_13 
REMARK    2  A    between atoms: C4_13  and  C6_15 
ROOT
HETATM    1  C1  UNL     1      11.671 -16.625  19.718  1.00  0.00     0.165 C 
HETATM    2  N1  UNL     1      12.984 -16.721  20.288  1.00  0.00    -0.230 N 
ATOM      3  H1  UNL     1      13.601 -17.455  19.943  1.00  0.00     0.177 HD
HETATM    4  C2  UNL     1      13.480 -15.856  21.304  1.00  0.00     0.685 C 
HETATM    5  N2  UNL     1      12.728 -15.690  22.342  1.00  0.00    -0.234 N 
ATOM      6  H21 UNL     1      13.083 -15.071  23.070  1.00  0.00     0.174 HD
ATOM      7  H22 UNL     1      11.823 -16.149  22.442  1.00  0.00     0.174 HD
HETATM    8  N3  UNL     1      14.722 -15.227  21.165  1.00  0.00    -0.023 N 
ATOM      9  H3  UNL     1      15.557 -15.781  21.358  1.00  0.00     0.203 HD
HETATM   10  C3  UNL     1      14.889 -13.996  20.811  1.00  0.00     0.691 C 
HETATM   11  N4  UNL     1      13.734 -13.184  20.531  1.00  0.00    -0.211 N 
ATOM     12  H4  UNL     1      13.003 -13.565  19.932  1.00  0.00     0.178 HD
HETATM   13  N5  UNL     1      16.176 -13.412  20.687  1.00  0.00    -0.217 N 
HETATM   14  C7  UNL     1      17.173 -13.412  21.719  1.00  0.00     0.141 C 
HETATM   15  C8  UNL     1      18.540 -13.383  21.060  1.00  0.00     0.020 C 
HETATM   16  C9  UNL     1      18.547 -14.186  19.777  1.00  0.00     0.003 C 
HETATM   17  C10 UNL     1      17.648 -13.491  18.790  1.00  0.00     0.020 C 
HETATM   18  C11 UNL     1      16.501 -12.770  19.426  1.00  0.00     0.141 C 
ENDROOT
BRANCH  11  19
HETATM   19  C4  UNL     1      13.569 -11.863  21.060  1.00  0.00     0.196 C 
HETATM   20  C5  UNL     1      12.417 -11.900  22.038  1.00  0.00     0.044 C 
BRANCH  19  21
HETATM   21  C6  UNL     1      13.174 -10.945  19.964  1.00  0.00     0.196 C 
HETATM   22  O1  UNL     1      12.641  -9.815  20.173  1.00  0.00    -0.646 OA
HETATM   23  O2  UNL     1      13.388 -11.324  18.654  1.00  0.00    -0.646 OA
ENDBRANCH  19  21
ENDBRANCH  11  19
TORSDOF 2
ENDMDL
MODEL 5
REMARK VINA RESULT: -5.888089120      2.677      5.375
REMARK  2 active torsions:
REMARK  status: ('A' for Active; 'I' for Inactive)
REMARK       I    between atoms: N1_2  and  C2_4 
REMARK       I    between atoms: C2_4  and  N3_8 
REMARK       I    between atoms: C3_10  and  N4_11 
REMARK       I    between atoms: C3_10  and  N5_18 
REMARK    1  A    between atoms: N4_11  and  C4_13 
REMARK    2  A    between atoms: C4_13  and  C6_15 
ROOT
HETATM    1  C1  UNL     1      11.668 -16.663  19.432  1.00  0.00     0.165 C 
HETATM    2  N1  UNL     1      12.925 -16.725  18.744  1.00  0.00    -0.230 N 
ATOM      3  H1  UNL     1      12.937 -17.124  17.807  1.00  0.00     0.177 HD
HETATM    4  C2  UNL     1      14.157 -16.263  19.288  1.00  0.00     0.685 C 
HETATM    5  N2  UNL     1      14.459 -16.677  20.473  1.00  0.00    -0.234 N 
ATOM      6  H21 UNL     1      15.341 -16.347  20.863  1.00  0.00     0.174 HD
ATOM      7  H22 UNL     1      13.855 -17.303  21.006  1.00  0.00     0.174 HD
HETATM    8  N3  UNL     1      14.985 -15.404  18.556  1.00  0.00    -0.023 N 
ATOM      9  H3  UNL     1      15.567 -15.817  17.827  1.00  0.00     0.203 HD
HETATM   10  C3  UNL     1      15.066 -14.129  18.737  1.00  0.00     0.691 C 
HETATM   11  N4  UNL     1      14.260 -13.512  19.757  1.00  0.00    -0.211 N 
ATOM     12  H4  UNL     1      13.271 -13.753  19.810  1.00  0.00     0.178 HD
HETATM   13  N5  UNL     1      15.926 -13.307  17.962  1.00  0.00    -0.217 N 
HETATM   14  C7  UNL     1      17.334 -13.530  17.799  1.00  0.00     0.141 C 
HETATM   15  C8  UNL     1      17.748 -12.975  16.447  1.00  0.00     0.020 C 
HETATM   16  C9  UNL     1      16.661 -13.176  15.415  1.00  0.00     0.003 C 
HETATM   17  C10 UNL     1      15.480 -12.331  15.813  1.00  0.00     0.020 C 
HETATM   18  C11 UNL     1      15.334 -12.163  17.292  1.00  0.00     0.141 C 
ENDROOT
BRANCH  11  19
HETATM   19  C4  UNL     1      14.789 -12.574  20.701  1.00  0.00     0.196 C 
HETATM   20  C5  UNL     1      15.482 -13.360  21.792  1.00  0.00     0.044 C 
BRANCH  19  21
HETATM   21  C6  UNL     1      13.669 -11.844  21.343  1.00  0.00     0.196 C 
HETATM   22  O1  UNL     1      13.120 -12.233  22.417  1.00  0.00    -0.646 OA
HETATM   23  O2  UNL     1      13.192 -10.688  20.758  1.00  0.00    -0.646 OA
ENDBRANCH  19  21
ENDBRANCH  11  19
TORSDOF 2
ENDMDL
