MODEL 1
REMARK VINA RESULT: -6.941691324      0.000      0.000
REMARK  5 active torsions:
REMARK  status: ('A' for Active; 'I' for Inactive)
REMARK    1  A    between atoms: C3_3  and  N1_4 
REMARK    2  A    between atoms: N1_4  and  C4_6 
REMARK    3  A    between atoms: C4_6  and  N2_8 
REMARK    4  A    between atoms: N2_8  and  N3_10 
REMARK       I    between atoms: N3_10  and  C5_12 
REMARK       I    between atoms: C5_12  and  N4_14 
REMARK    5  A    between atoms: N4_14  and  C6_16 
ROOT
HETATM    1  C1  UNL     1      11.612  -8.499  24.882  1.00  0.00     0.014 C 
HETATM    2  C2  UNL     1      11.571  -9.553  24.290  1.00  0.00    -0.098 C 
HETATM    3  C3  UNL     1      11.507 -10.830  23.559  1.00  0.00     0.215 C 
ENDROOT
BRANCH   3   4
HETATM    4  N1  UNL     1      12.184 -10.613  22.310  1.00  0.00    -0.356 N 
ATOM      5  H1  UNL     1      12.212  -9.680  21.899  1.00  0.00     0.162 HD
BRANCH   4   6
HETATM    6  C4  UNL     1      12.814 -11.700  21.651  1.00  0.00     0.187 C 
HETATM    7  S1  UNL     1      12.350 -13.216  22.011  1.00  0.00    -0.040 SA
BRANCH   6   8
HETATM    8  N2  UNL     1      13.844 -11.491  20.684  1.00  0.00    -0.272 N 
ATOM      9  H2  UNL     1      13.600 -11.376  19.700  1.00  0.00     0.189 HD
BRANCH   8  10
HETATM   10  N3  UNL     1      15.174 -11.445  21.074  1.00  0.00    -0.249 N 
HETATM   11  C5  UNL     1      16.027 -12.546  20.843  1.00  0.00     0.335 C 
HETATM   12  O1  UNL     1      15.546 -13.574  20.272  1.00  0.00    -0.246 OA
HETATM   13  N4  UNL     1      17.378 -12.465  21.250  1.00  0.00    -0.337 N 
ATOM     14  H4  UNL     1      17.724 -11.619  21.704  1.00  0.00     0.164 HD
ATOM     15  H3  UNL     1      15.539 -10.610  21.532  1.00  0.00     0.192 HD
BRANCH  13  16
HETATM   16  C6  UNL     1      18.262 -13.574  21.026  1.00  0.00     0.086 C 
HETATM   17  C7  UNL     1      18.788 -14.051  22.352  1.00  0.00     0.025 C 
HETATM   18  C8  UNL     1      19.722 -15.228  22.217  1.00  0.00     0.002 C 
HETATM   19  C9  UNL     1      20.263 -15.324  20.816  1.00  0.00     0.000 C 
HETATM   20  C10 UNL     1      20.647 -13.901  20.392  1.00  0.00     0.002 C 
HETATM   21  C11 UNL     1      19.324 -13.222  20.039  1.00  0.00     0.025 C 
ENDBRANCH  13  16
ENDBRANCH   8  10
ENDBRANCH   6   8
ENDBRANCH   4   6
ENDBRANCH   3   4
TORSDOF 5
ENDMDL
MODEL 2
REMARK VINA RESULT: -6.737944466      1.503      2.034
REMARK  5 active torsions:
REMARK  status: ('A' for Active; 'I' for Inactive)
REMARK    1  A    between atoms: C3_3  and  N1_4 
REMARK    2  A    between atoms: N1_4  and  C4_6 
REMARK    3  A    between atoms: C4_6  and  N2_8 
REMARK    4  A    between atoms: N2_8  and  N3_10 
REMARK       I    between atoms: N3_10  and  C5_12 
REMARK       I    between atoms: C5_12  and  N4_14 
REMARK    5  A    between atoms: N4_14  and  C6_16 
ROOT
HETATM    1  C1  UNL     1      11.220 -10.724  23.948  1.00  0.00     0.014 C 
HETATM    2  C2  UNL     1      12.053 -10.529  23.092  1.00  0.00    -0.098 C 
HETATM    3  C3  UNL     1      13.074 -10.308  22.053  1.00  0.00     0.215 C 
ENDROOT
BRANCH   3   4
HETATM    4  N1  UNL     1      12.541 -10.870  20.842  1.00  0.00    -0.356 N 
ATOM      5  H1  UNL     1      11.764 -10.413  20.365  1.00  0.00     0.162 HD
BRANCH   4   6
HETATM    6  C4  UNL     1      13.099 -12.062  20.312  1.00  0.00     0.187 C 
HETATM    7  S1  UNL     1      12.725 -13.484  21.006  1.00  0.00    -0.040 SA
BRANCH   6   8
HETATM    8  N2  UNL     1      13.980 -12.039  19.188  1.00  0.00    -0.272 N 
ATOM      9  H2  UNL     1      13.899 -11.294  18.496  1.00  0.00     0.189 HD
BRANCH   8  10
HETATM   10  N3  UNL     1      14.944 -13.024  19.033  1.00  0.00    -0.249 N 
HETATM   11  C5  UNL     1      16.182 -12.927  19.703  1.00  0.00     0.335 C 
HETATM   12  O1  UNL     1      16.389 -11.918  20.447  1.00  0.00    -0.246 OA
HETATM   13  N4  UNL     1      17.141 -13.950  19.525  1.00  0.00    -0.337 N 
ATOM     14  H4  UNL     1      16.933 -14.744  18.919  1.00  0.00     0.164 HD
ATOM     15  H3  UNL     1      14.757 -13.825  18.429  1.00  0.00     0.192 HD
BRANCH  13  16
HETATM   16  C6  UNL     1      18.408 -13.870  20.196  1.00  0.00     0.086 C 
HETATM   17  C7  UNL     1      19.465 -13.495  19.195  1.00  0.00     0.025 C 
HETATM   18  C8  UNL     1      20.835 -13.375  19.815  1.00  0.00     0.002 C 
HETATM   19  C9  UNL     1      20.895 -14.107  21.128  1.00  0.00     0.000 C 
HETATM   20  C10 UNL     1      20.189 -15.451  20.917  1.00  0.00     0.002 C 
HETATM   21  C11 UNL     1      18.697 -15.126  20.948  1.00  0.00     0.025 C 
ENDBRANCH  13  16
ENDBRANCH   8  10
ENDBRANCH   6   8
ENDBRANCH   4   6
ENDBRANCH   3   4
TORSDOF 5
ENDMDL
MODEL 3
REMARK VINA RESULT: -6.565780425      1.802      2.922
REMARK  5 active torsions:
REMARK  status: ('A' for Active; 'I' for Inactive)
REMARK    1  A    between atoms: C3_3  and  N1_4 
REMARK    2  A    between atoms: N1_4  and  C4_6 
REMARK    3  A    between atoms: C4_6  and  N2_8 
REMARK    4  A    between atoms: N2_8  and  N3_10 
REMARK       I    between atoms: N3_10  and  C5_12 
REMARK       I    between atoms: C5_12  and  N4_14 
REMARK    5  A    between atoms: N4_14  and  C6_16 
ROOT
HETATM    1  C1  UNL     1      13.330 -16.385  21.694  1.00  0.00     0.014 C 
HETATM    2  C2  UNL     1      12.744 -15.327  21.668  1.00  0.00    -0.098 C 
HETATM    3  C3  UNL     1      12.025 -14.041  21.653  1.00  0.00     0.215 C 
ENDROOT
BRANCH   3   4
HETATM    4  N1  UNL     1      12.863 -13.105  22.351  1.00  0.00    -0.356 N 
ATOM      5  H1  UNL     1      13.367 -13.395  23.189  1.00  0.00     0.162 HD
BRANCH   4   6
HETATM    6  C4  UNL     1      12.986 -11.775  21.872  1.00  0.00     0.187 C 
HETATM    7  S1  UNL     1      12.059 -10.612  22.529  1.00  0.00    -0.040 SA
BRANCH   6   8
HETATM    8  N2  UNL     1      13.901 -11.439  20.828  1.00  0.00    -0.272 N 
ATOM      9  H2  UNL     1      13.550 -11.244  19.889  1.00  0.00     0.189 HD
BRANCH   8  10
HETATM   10  N3  UNL     1      15.263 -11.376  21.082  1.00  0.00    -0.249 N 
HETATM   11  C5  UNL     1      16.078 -12.516  20.907  1.00  0.00     0.335 C 
HETATM   12  O1  UNL     1      15.532 -13.594  20.514  1.00  0.00    -0.246 OA
HETATM   13  N4  UNL     1      17.462 -12.416  21.172  1.00  0.00    -0.337 N 
ATOM     14  H4  UNL     1      17.859 -11.529  21.484  1.00  0.00     0.164 HD
ATOM     15  H3  UNL     1      15.679 -10.501  21.398  1.00  0.00     0.192 HD
BRANCH  13  16
HETATM   16  C6  UNL     1      18.309 -13.563  21.002  1.00  0.00     0.086 C 
HETATM   17  C7  UNL     1      18.801 -14.008  22.352  1.00  0.00     0.025 C 
HETATM   18  C8  UNL     1      19.693 -15.221  22.273  1.00  0.00     0.002 C 
HETATM   19  C9  UNL     1      20.248 -15.390  20.885  1.00  0.00     0.000 C 
HETATM   20  C10 UNL     1      20.688 -13.999  20.413  1.00  0.00     0.002 C 
HETATM   21  C11 UNL     1      19.395 -13.287  20.017  1.00  0.00     0.025 C 
ENDBRANCH  13  16
ENDBRANCH   8  10
ENDBRANCH   6   8
ENDBRANCH   4   6
ENDBRANCH   3   4
TORSDOF 5
ENDMDL
MODEL 4
REMARK VINA RESULT: -6.507683293      0.895      1.036
REMARK  5 active torsions:
REMARK  status: ('A' for Active; 'I' for Inactive)
REMARK    1  A    between atoms: C3_3  and  N1_4 
REMARK    2  A    between atoms: N1_4  and  C4_6 
REMARK    3  A    between atoms: C4_6  and  N2_8 
REMARK    4  A    between atoms: N2_8  and  N3_10 
REMARK       I    between atoms: N3_10  and  C5_12 
REMARK       I    between atoms: C5_12  and  N4_14 
REMARK    5  A    between atoms: N4_14  and  C6_16 
ROOT
HETATM    1  C1  UNL     1      10.993 -11.718  24.524  1.00  0.00     0.014 C 
HETATM    2  C2  UNL     1      11.538 -11.037  23.685  1.00  0.00    -0.098 C 
HETATM    3  C3  UNL     1      12.215 -10.221  22.663  1.00  0.00     0.215 C 
ENDROOT
BRANCH   3   4
HETATM    4  N1  UNL     1      11.958 -10.861  21.402  1.00  0.00    -0.356 N 
ATOM      5  H1  UNL     1      11.136 -10.604  20.856  1.00  0.00     0.162 HD
BRANCH   4   6
HETATM    6  C4  UNL     1      12.851 -11.852  20.920  1.00  0.00     0.187 C 
HETATM    7  S1  UNL     1      12.504 -13.419  21.181  1.00  0.00    -0.040 SA
BRANCH   6   8
HETATM    8  N2  UNL     1      14.043 -11.504  20.216  1.00  0.00    -0.272 N 
ATOM      9  H2  UNL     1      13.991 -11.230  19.234  1.00  0.00     0.189 HD
BRANCH   8  10
HETATM   10  N3  UNL     1      15.273 -11.536  20.858  1.00  0.00    -0.249 N 
HETATM   11  C5  UNL     1      16.179 -12.592  20.618  1.00  0.00     0.335 C 
HETATM   12  O1  UNL     1      15.839 -13.507  19.804  1.00  0.00    -0.246 OA
HETATM   13  N4  UNL     1      17.424 -12.592  21.286  1.00  0.00    -0.337 N 
ATOM     14  H4  UNL     1      17.657 -11.836  21.931  1.00  0.00     0.164 HD
ATOM     15  H3  UNL     1      15.524 -10.792  21.508  1.00  0.00     0.192 HD
BRANCH  13  16
HETATM   16  C6  UNL     1      18.360 -13.657  21.058  1.00  0.00     0.086 C 
HETATM   17  C7  UNL     1      18.940 -14.085  22.378  1.00  0.00     0.025 C 
HETATM   18  C8  UNL     1      19.930 -15.214  22.239  1.00  0.00     0.002 C 
HETATM   19  C9  UNL     1      20.444 -15.305  20.827  1.00  0.00     0.000 C 
HETATM   20  C10 UNL     1      20.743 -13.871  20.373  1.00  0.00     0.002 C 
HETATM   21  C11 UNL     1      19.379 -13.267  20.041  1.00  0.00     0.025 C 
ENDBRANCH  13  16
ENDBRANCH   8  10
ENDBRANCH   6   8
ENDBRANCH   4   6
ENDBRANCH   3   4
TORSDOF 5
ENDMDL
MODEL 5
REMARK VINA RESULT: -6.202691729      3.670      4.752
REMARK  5 active torsions:
REMARK  status: ('A' for Active; 'I' for Inactive)
REMARK    1  A    between atoms: C3_3  and  N1_4 
REMARK    2  A    between atoms: N1_4  and  C4_6 
REMARK    3  A    between atoms: C4_6  and  N2_8 
REMARK    4  A    between atoms: N2_8  and  N3_10 
REMARK       I    between atoms: N3_10  and  C5_12 
REMARK       I    between atoms: C5_12  and  N4_14 
REMARK    5  A    between atoms: N4_14  and  C6_16 
ROOT
HETATM    1  C1  UNL     1      15.154 -12.242  21.028  1.00  0.00     0.014 C 
HETATM    2  C2  UNL     1      14.340 -11.421  21.380  1.00  0.00    -0.098 C 
HETATM    3  C3  UNL     1      13.343 -10.416  21.792  1.00  0.00     0.215 C 
ENDROOT
BRANCH   3   4
HETATM    4  N1  UNL     1      12.060 -11.053  21.676  1.00  0.00    -0.356 N 
ATOM      5  H1  UNL     1      11.592 -11.100  20.771  1.00  0.00     0.162 HD
BRANCH   4   6
HETATM    6  C4  UNL     1      11.445 -11.614  22.824  1.00  0.00     0.187 C 
HETATM    7  S1  UNL     1      11.203 -10.674  24.128  1.00  0.00    -0.040 SA
BRANCH   6   8
HETATM    8  N2  UNL     1      11.038 -12.983  22.859  1.00  0.00    -0.272 N 
ATOM      9  H2  UNL     1      10.045 -13.217  22.855  1.00  0.00     0.189 HD
BRANCH   8  10
HETATM   10  N3  UNL     1      11.984 -13.996  22.900  1.00  0.00    -0.249 N 
HETATM   11  C5  UNL     1      12.480 -14.562  21.706  1.00  0.00     0.335 C 
HETATM   12  O1  UNL     1      12.037 -14.122  20.599  1.00  0.00    -0.246 OA
HETATM   13  N4  UNL     1      13.447 -15.590  21.784  1.00  0.00    -0.337 N 
ATOM     14  H4  UNL     1      13.777 -15.912  22.694  1.00  0.00     0.164 HD
ATOM     15  H3  UNL     1      12.325 -14.335  23.800  1.00  0.00     0.192 HD
BRANCH  13  16
HETATM   16  C6  UNL     1      13.963 -16.181  20.581  1.00  0.00     0.086 C 
HETATM   17  C7  UNL     1      13.543 -17.624  20.530  1.00  0.00     0.025 C 
HETATM   18  C8  UNL     1      14.032 -18.327  19.288  1.00  0.00     0.002 C 
HETATM   19  C9  UNL     1      15.185 -17.583  18.670  1.00  0.00     0.000 C 
HETATM   20  C10 UNL     1      16.114 -17.174  19.819  1.00  0.00     0.002 C 
HETATM   21  C11 UNL     1      15.436 -15.969  20.469  1.00  0.00     0.025 C 
ENDBRANCH  13  16
ENDBRANCH   8  10
ENDBRANCH   6   8
ENDBRANCH   4   6
ENDBRANCH   3   4
TORSDOF 5
ENDMDL
