MODEL 1
REMARK VINA RESULT: -6.640492952      0.000      0.000
REMARK  1 active torsions:
REMARK  status: ('A' for Active; 'I' for Inactive)
REMARK       I    between atoms: N1_2  and  C2_4 
REMARK       I    between atoms: C2_4  and  N3_8 
REMARK    1  A    between atoms: N3_8  and  C3_10 
REMARK       I    between atoms: N5_21  and  C11_22 
ROOT
HETATM    1  C3  UNL     1      45.233  21.547  51.621  1.00  0.00     0.153 C 
HETATM    2  C4  UNL     1      44.107  22.265  50.907  1.00  0.00     0.215 C 
HETATM    3  N4  UNL     1      44.565  22.890  49.693  1.00  0.00    -0.067 N 
ATOM      4  H41 UNL     1      43.774  23.161  49.110  1.00  0.00     0.277 HD
ATOM      5  H42 UNL     1      45.004  22.202  49.082  1.00  0.00     0.277 HD
HETATM    6  C5  UNL     1      45.436  24.003  49.901  1.00  0.00     0.258 C 
HETATM    7  C6  UNL     1      45.382  24.562  51.302  1.00  0.00     0.113 C 
HETATM    8  C7  UNL     1      43.893  24.651  51.655  1.00  0.00     0.034 C 
HETATM    9  C8  UNL     1      43.474  23.194  51.882  1.00  0.00     0.022 C 
HETATM   10  C9  UNL     1      44.127  22.840  53.228  1.00  0.00     0.034 C 
HETATM   11  C10 UNL     1      45.539  22.525  52.753  1.00  0.00     0.113 C 
HETATM   12  N5  UNL     1      46.100  23.751  52.257  1.00  0.00    -0.339 N 
HETATM   13  C11 UNL     1      47.379  24.179  52.706  1.00  0.00     0.216 C 
HETATM   14  C12 UNL     1      47.979  25.448  52.205  1.00  0.00     0.117 C 
HETATM   15  O1  UNL     1      48.027  23.482  53.546  1.00  0.00    -0.274 OA
ENDROOT
BRANCH   1  16
HETATM   16  N3  UNL     1      44.685  20.341  52.188  1.00  0.00    -0.218 N 
HETATM   17  C2  UNL     1      45.356  19.094  52.180  1.00  0.00     0.667 C 
HETATM   18  N1  UNL     1      46.260  18.823  53.224  1.00  0.00    -0.231 N 
HETATM   19  N2  UNL     1      45.176  18.211  51.271  1.00  0.00    -0.235 N 
HETATM   20  C1  UNL     1      45.758  18.469  54.526  1.00  0.00     0.165 C 
ATOM     21  H1  UNL     1      47.265  18.877  53.059  1.00  0.00     0.177 HD
ATOM     22  H22 UNL     1      45.659  17.313  51.266  1.00  0.00     0.174 HD
ATOM     23  H21 UNL     1      44.520  18.408  50.514  1.00  0.00     0.174 HD
ATOM     24  H3  UNL     1      43.762  20.388  52.619  1.00  0.00     0.178 HD
ENDBRANCH   1  16
TORSDOF 1
ENDMDL
MODEL 2
REMARK VINA RESULT: -6.278016263      2.257      5.248
REMARK  1 active torsions:
REMARK  status: ('A' for Active; 'I' for Inactive)
REMARK       I    between atoms: N1_2  and  C2_4 
REMARK       I    between atoms: C2_4  and  N3_8 
REMARK    1  A    between atoms: N3_8  and  C3_10 
REMARK       I    between atoms: N5_21  and  C11_22 
ROOT
HETATM    1  C3  UNL     1      45.107  22.992  50.151  1.00  0.00     0.153 C 
HETATM    2  C4  UNL     1      45.480  23.892  51.310  1.00  0.00     0.215 C 
HETATM    3  N4  UNL     1      46.756  23.528  51.869  1.00  0.00    -0.067 N 
ATOM      4  H41 UNL     1      47.104  24.269  52.478  1.00  0.00     0.277 HD
ATOM      5  H42 UNL     1      47.479  23.542  51.150  1.00  0.00     0.277 HD
HETATM    6  C5  UNL     1      46.758  22.275  52.556  1.00  0.00     0.258 C 
HETATM    7  C6  UNL     1      45.380  21.782  52.921  1.00  0.00     0.113 C 
HETATM    8  C7  UNL     1      44.645  22.995  53.500  1.00  0.00     0.034 C 
HETATM    9  C8  UNL     1      44.350  23.874  52.278  1.00  0.00     0.022 C 
HETATM   10  C9  UNL     1      43.233  23.110  51.550  1.00  0.00     0.034 C 
HETATM   11  C10 UNL     1      44.071  22.080  50.804  1.00  0.00     0.113 C 
HETATM   12  N5  UNL     1      44.668  21.226  51.794  1.00  0.00    -0.339 N 
HETATM   13  C11 UNL     1      44.561  19.813  51.670  1.00  0.00     0.216 C 
HETATM   14  C12 UNL     1      45.172  18.910  52.685  1.00  0.00     0.117 C 
HETATM   15  O1  UNL     1      43.939  19.303  50.688  1.00  0.00    -0.274 OA
ENDROOT
BRANCH   1  16
HETATM   16  N3  UNL     1      44.445  23.810  49.166  1.00  0.00    -0.218 N 
HETATM   17  C2  UNL     1      45.112  24.761  48.357  1.00  0.00     0.667 C 
HETATM   18  N1  UNL     1      45.702  24.315  47.160  1.00  0.00    -0.231 N 
HETATM   19  N2  UNL     1      45.201  26.000  48.668  1.00  0.00    -0.235 N 
HETATM   20  C1  UNL     1      44.869  24.030  46.021  1.00  0.00     0.165 C 
ATOM     21  H1  UNL     1      46.713  24.193  47.100  1.00  0.00     0.177 HD
ATOM     22  H22 UNL     1      45.682  26.685  48.086  1.00  0.00     0.174 HD
ATOM     23  H21 UNL     1      44.774  26.324  49.536  1.00  0.00     0.174 HD
ATOM     24  H3  UNL     1      43.438  23.697  49.045  1.00  0.00     0.178 HD
ENDBRANCH   1  16
TORSDOF 1
ENDMDL
MODEL 3
REMARK VINA RESULT: -5.817468685      1.593      1.942
REMARK  1 active torsions:
REMARK  status: ('A' for Active; 'I' for Inactive)
REMARK       I    between atoms: N1_2  and  C2_4 
REMARK       I    between atoms: C2_4  and  N3_8 
REMARK    1  A    between atoms: N3_8  and  C3_10 
REMARK       I    between atoms: N5_21  and  C11_22 
ROOT
HETATM    1  C3  UNL     1      44.077  22.927  50.677  1.00  0.00     0.153 C 
HETATM    2  C4  UNL     1      42.746  23.645  50.741  1.00  0.00     0.215 C 
HETATM    3  N4  UNL     1      42.709  24.768  49.840  1.00  0.00    -0.067 N 
ATOM      4  H41 UNL     1      41.751  25.095  49.716  1.00  0.00     0.277 HD
ATOM      5  H42 UNL     1      42.915  24.468  48.888  1.00  0.00     0.277 HD
HETATM    6  C5  UNL     1      43.560  25.851  50.219  1.00  0.00     0.258 C 
HETATM    7  C6  UNL     1      44.004  25.797  51.660  1.00  0.00     0.113 C 
HETATM    8  C7  UNL     1      42.746  25.464  52.470  1.00  0.00     0.034 C 
HETATM    9  C8  UNL     1      42.485  23.984  52.166  1.00  0.00     0.022 C 
HETATM   10  C9  UNL     1      43.596  23.260  52.943  1.00  0.00     0.034 C 
HETATM   11  C10 UNL     1      44.745  23.421  51.957  1.00  0.00     0.113 C 
HETATM   12  N5  UNL     1      45.047  24.825  51.889  1.00  0.00    -0.339 N 
HETATM   13  C11 UNL     1      46.388  25.271  52.047  1.00  0.00     0.216 C 
HETATM   14  C12 UNL     1      46.723  26.721  51.980  1.00  0.00     0.117 C 
HETATM   15  O1  UNL     1      47.320  24.433  52.249  1.00  0.00    -0.274 OA
ENDROOT
BRANCH   1  16
HETATM   16  N3  UNL     1      43.813  21.516  50.809  1.00  0.00    -0.218 N 
HETATM   17  C2  UNL     1      44.786  20.511  50.593  1.00  0.00     0.667 C 
HETATM   18  N1  UNL     1      45.621  20.155  51.670  1.00  0.00    -0.231 N 
HETATM   19  N2  UNL     1      44.938  19.918  49.469  1.00  0.00    -0.235 N 
HETATM   20  C1  UNL     1      45.102  19.331  52.729  1.00  0.00     0.165 C 
ATOM     21  H1  UNL     1      46.587  20.480  51.698  1.00  0.00     0.177 HD
ATOM     22  H22 UNL     1      45.639  19.194  49.313  1.00  0.00     0.174 HD
ATOM     23  H21 UNL     1      44.334  20.175  48.689  1.00  0.00     0.174 HD
ATOM     24  H3  UNL     1      42.872  21.226  51.073  1.00  0.00     0.178 HD
ENDBRANCH   1  16
TORSDOF 1
ENDMDL
MODEL 4
REMARK VINA RESULT: -5.803727697      2.307      3.468
REMARK  1 active torsions:
REMARK  status: ('A' for Active; 'I' for Inactive)
REMARK       I    between atoms: N1_2  and  C2_4 
REMARK       I    between atoms: C2_4  and  N3_8 
REMARK    1  A    between atoms: N3_8  and  C3_10 
REMARK       I    between atoms: N5_21  and  C11_22 
ROOT
HETATM    1  C3  UNL     1      44.465  22.407  51.961  1.00  0.00     0.153 C 
HETATM    2  C4  UNL     1      44.596  23.188  53.251  1.00  0.00     0.215 C 
HETATM    3  N4  UNL     1      43.311  23.613  53.743  1.00  0.00    -0.067 N 
ATOM      4  H41 UNL     1      43.384  23.923  54.712  1.00  0.00     0.277 HD
ATOM      5  H42 UNL     1      42.692  22.811  53.863  1.00  0.00     0.277 HD
HETATM    6  C5  UNL     1      42.681  24.615  52.943  1.00  0.00     0.258 C 
HETATM    7  C6  UNL     1      43.625  25.323  52.004  1.00  0.00     0.113 C 
HETATM    8  C7  UNL     1      44.872  25.647  52.834  1.00  0.00     0.034 C 
HETATM    9  C8  UNL     1      45.566  24.292  53.014  1.00  0.00     0.022 C 
HETATM   10  C9  UNL     1      46.146  24.000  51.621  1.00  0.00     0.034 C 
HETATM   11  C10 UNL     1      44.903  23.450  50.936  1.00  0.00     0.113 C 
HETATM   12  N5  UNL     1      43.960  24.531  50.843  1.00  0.00    -0.339 N 
HETATM   13  C11 UNL     1      43.342  24.829  49.598  1.00  0.00     0.216 C 
HETATM   14  C12 UNL     1      42.362  25.945  49.481  1.00  0.00     0.117 C 
HETATM   15  O1  UNL     1      43.622  24.145  48.566  1.00  0.00    -0.274 OA
ENDROOT
BRANCH   1  16
HETATM   16  N3  UNL     1      45.447  21.352  51.994  1.00  0.00    -0.218 N 
HETATM   17  C2  UNL     1      45.403  20.265  52.900  1.00  0.00     0.667 C 
HETATM   18  N1  UNL     1      44.636  19.139  52.546  1.00  0.00    -0.231 N 
HETATM   19  N2  UNL     1      46.025  20.265  54.019  1.00  0.00    -0.235 N 
HETATM   20  C1  UNL     1      45.143  18.214  51.567  1.00  0.00     0.165 C 
ATOM     21  H1  UNL     1      43.728  18.980  52.982  1.00  0.00     0.177 HD
ATOM     22  H22 UNL     1      45.994  19.483  54.672  1.00  0.00     0.174 HD
ATOM     23  H21 UNL     1      46.581  21.082  54.276  1.00  0.00     0.174 HD
ATOM     24  H3  UNL     1      46.217  21.391  51.326  1.00  0.00     0.178 HD
ENDBRANCH   1  16
TORSDOF 1
ENDMDL
MODEL 5
REMARK VINA RESULT: -5.789880741      2.268      3.405
REMARK  1 active torsions:
REMARK  status: ('A' for Active; 'I' for Inactive)
REMARK       I    between atoms: N1_2  and  C2_4 
REMARK       I    between atoms: C2_4  and  N3_8 
REMARK    1  A    between atoms: N3_8  and  C3_10 
REMARK       I    between atoms: N5_21  and  C11_22 
ROOT
HETATM    1  C3  UNL     1      44.636  22.317  50.825  1.00  0.00     0.153 C 
HETATM    2  C4  UNL     1      43.921  23.125  51.887  1.00  0.00     0.215 C 
HETATM    3  N4  UNL     1      42.527  23.299  51.570  1.00  0.00    -0.067 N 
ATOM      4  H41 UNL     1      42.013  23.630  52.386  1.00  0.00     0.277 HD
ATOM      5  H42 UNL     1      42.077  22.394  51.436  1.00  0.00     0.277 HD
HETATM    6  C5  UNL     1      42.284  24.149  50.448  1.00  0.00     0.258 C 
HETATM    7  C6  UNL     1      43.463  25.015  50.077  1.00  0.00     0.113 C 
HETATM    8  C7  UNL     1      43.991  25.586  51.398  1.00  0.00     0.034 C 
HETATM    9  C8  UNL     1      44.678  24.393  52.074  1.00  0.00     0.022 C 
HETATM   10  C9  UNL     1      45.958  24.202  51.246  1.00  0.00     0.034 C 
HETATM   11  C10 UNL     1      45.390  23.412  50.075  1.00  0.00     0.113 C 
HETATM   12  N5  UNL     1      44.492  24.288  49.372  1.00  0.00    -0.339 N 
HETATM   13  C11 UNL     1      44.612  24.444  47.964  1.00  0.00     0.216 C 
HETATM   14  C12 UNL     1      43.691  25.347  47.216  1.00  0.00     0.117 C 
HETATM   15  O1  UNL     1      45.509  23.815  47.325  1.00  0.00    -0.274 OA
ENDROOT
BRANCH   1  16
HETATM   16  N3  UNL     1      45.593  21.473  51.495  1.00  0.00    -0.218 N 
HETATM   17  C2  UNL     1      45.354  20.852  52.745  1.00  0.00     0.667 C 
HETATM   18  N1  UNL     1      44.696  19.607  52.749  1.00  0.00    -0.231 N 
HETATM   19  N2  UNL     1      45.707  21.371  53.860  1.00  0.00    -0.235 N 
HETATM   20  C1  UNL     1      45.419  18.420  52.373  1.00  0.00     0.165 C 
ATOM     21  H1  UNL     1      43.715  19.547  53.018  1.00  0.00     0.177 HD
ATOM     22  H22 UNL     1      45.535  20.924  54.760  1.00  0.00     0.174 HD
ATOM     23  H21 UNL     1      46.183  22.273  53.857  1.00  0.00     0.174 HD
ATOM     24  H3  UNL     1      46.494  21.316  51.044  1.00  0.00     0.178 HD
ENDBRANCH   1  16
TORSDOF 1
ENDMDL
