MODEL 1
REMARK VINA RESULT: -8.115596666      0.000      0.000
REMARK  27 active torsions:
REMARK  status: ('A' for Active; 'I' for Inactive)
REMARK       I    between atoms: C1_4  and  N3_6 
REMARK    1  A    between atoms: N3_6  and  C2_8 
REMARK    2  A    between atoms: C2_8  and  C3_9 
REMARK    3  A    between atoms: C3_9  and  C4_10 
REMARK    4  A    between atoms: C4_10  and  C5_11 
REMARK    5  A    between atoms: C5_11  and  N4_12 
REMARK    6  A    between atoms: N4_12  and  C6_14 
REMARK    7  A    between atoms: C6_14  and  O1_15 
REMARK    8  A    between atoms: C6_14  and  C7_17 
REMARK    9  A    between atoms: C7_17  and  C8_18 
REMARK   10  A    between atoms: C8_18  and  C9_19 
REMARK   11  A    between atoms: C9_19  and  C10_20 
REMARK   12  A    between atoms: C10_20  and  C11_21 
REMARK   13  A    between atoms: C11_21  and  N5_22 
REMARK   14  A    between atoms: N5_22  and  C12_24 
REMARK   15  A    between atoms: C12_24  and  O2_25 
REMARK   16  A    between atoms: C12_24  and  N6_27 
REMARK   17  A    between atoms: N6_27  and  C13_29 
REMARK   18  A    between atoms: C13_29  and  C14_30 
REMARK   19  A    between atoms: C14_30  and  C15_31 
REMARK       I    between atoms: C15_31  and  N7_33 
REMARK   20  A    between atoms: N7_33  and  C16_34 
REMARK   21  A    between atoms: N7_33  and  C21_49 
REMARK   22  A    between atoms: C16_34  and  C17_35 
REMARK   23  A    between atoms: C17_35  and  N8_36 
REMARK       I    between atoms: N8_36  and  C18_37 
REMARK   24  A    between atoms: C18_37  and  C19_39 
REMARK       I    between atoms: C19_39  and  N9_41 
REMARK   25  A    between atoms: N9_41  and  C20_43 
REMARK   26  A    between atoms: N10_44  and  N11_46 
REMARK   27  A    between atoms: C21_49  and  C22_50 
ROOT
HETATM    1  N6  UNL     1     -11.487  16.039  28.823  1.00  0.00    -0.356 N 
ATOM      2  H6  UNL     1     -12.502  15.997  28.920  1.00  0.00     0.163 HD
ENDROOT
BRANCH   1   3
HETATM    3  C12 UNL     1     -10.759  17.268  28.932  1.00  0.00     0.212 C 
BRANCH   3   4
HETATM    4  N5  UNL     1      -9.614  17.498  29.689  1.00  0.00    -0.357 N 
ATOM      5  H5  UNL     1      -8.825  18.016  29.300  1.00  0.00     0.163 HD
BRANCH   4   6
HETATM    6  C11 UNL     1      -9.569  16.988  31.033  1.00  0.00     0.123 C 
BRANCH   6   7
HETATM    7  C10 UNL     1      -8.477  16.072  31.372  1.00  0.00     0.020 C 
BRANCH   7   8
HETATM    8  C9  UNL     1      -7.842  16.507  32.713  1.00  0.00     0.002 C 
BRANCH   8   9
HETATM    9  C8  UNL     1      -8.910  16.715  33.731  1.00  0.00     0.008 C 
BRANCH   9  10
HETATM   10  C7  UNL     1      -8.862  15.673  34.858  1.00  0.00     0.084 C 
BRANCH  10  11
HETATM   11  C6  UNL     1      -9.531  14.475  34.435  1.00  0.00     0.114 C 
BRANCH  11  12
HETATM   12  N4  UNL     1     -10.806  14.069  34.487  1.00  0.00    -0.354 N 
ATOM     13  H4  UNL     1     -10.721  13.167  34.955  1.00  0.00     0.166 HD
BRANCH  12  14
HETATM   14  C5  UNL     1     -11.998  14.143  34.305  1.00  0.00     0.063 C 
BRANCH  14  15
HETATM   15  C4  UNL     1     -12.473  15.151  33.285  1.00  0.00     0.046 C 
BRANCH  15  16
HETATM   16  C3  UNL     1     -12.481  14.509  31.934  1.00  0.00     0.025 C 
BRANCH  16  17
HETATM   17  C2  UNL     1     -13.716  13.603  31.872  1.00  0.00     0.122 C 
BRANCH  17  18
HETATM   18  N3  UNL     1     -14.697  14.405  31.115  1.00  0.00    -0.365 N 
HETATM   19  C1  UNL     1     -15.826  14.919  31.844  1.00  0.00     0.181 C 
HETATM   20  N1  UNL     1     -15.929  16.182  32.104  1.00  0.00    -0.374 N 
HETATM   21  N2  UNL     1     -16.792  14.036  32.305  1.00  0.00    -0.064 NA
ATOM     22  H12 UNL     1     -16.729  16.546  32.621  1.00  0.00     0.158 HD
ATOM     23  H11 UNL     1     -15.219  16.831  31.765  1.00  0.00     0.158 HD
ATOM     24  H3  UNL     1     -14.580  14.587  30.119  1.00  0.00     0.162 HD
ENDBRANCH  17  18
ENDBRANCH  16  17
ENDBRANCH  15  16
ENDBRANCH  14  15
ENDBRANCH  12  14
ENDBRANCH  11  12
BRANCH  11  25
HETATM   25  O1  UNL     1      -8.723  13.581  33.864  1.00  0.00    -0.349 OA
ATOM     26  H1  UNL     1      -8.197  13.102  34.494  1.00  0.00     0.219 HD
ENDBRANCH  11  25
ENDBRANCH  10  11
ENDBRANCH   9  10
ENDBRANCH   8   9
ENDBRANCH   7   8
ENDBRANCH   6   7
ENDBRANCH   4   6
ENDBRANCH   3   4
BRANCH   3  27
HETATM   27  O2  UNL     1     -11.266  18.251  28.213  1.00  0.00    -0.333 OA
ATOM     28  H2  UNL     1     -12.017  18.081  27.658  1.00  0.00     0.220 HD
ENDBRANCH   3  27
ENDBRANCH   1   3
BRANCH   1  29
HETATM   29  C13 UNL     1     -10.676  14.852  28.564  1.00  0.00     0.132 C 
BRANCH  29  30
HETATM   30  C14 UNL     1     -10.376  14.913  27.008  1.00  0.00     0.122 C 
BRANCH  30  31
HETATM   31  C15 UNL     1      -8.902  15.137  27.065  1.00  0.00     0.222 C 
HETATM   32  O3  UNL     1      -8.153  14.327  27.656  1.00  0.00    -0.273 OA
HETATM   33  N7  UNL     1      -8.310  16.283  26.425  1.00  0.00    -0.342 N 
BRANCH  33  34
HETATM   34  C16 UNL     1      -6.972  16.702  26.660  1.00  0.00     0.185 C 
BRANCH  34  35
HETATM   35  C17 UNL     1      -6.665  18.073  27.142  1.00  0.00     0.179 C 
BRANCH  35  36
HETATM   36  N8  UNL     1      -5.923  18.773  26.237  1.00  0.00    -0.378 NA
HETATM   37  C18 UNL     1      -5.179  19.482  25.331  1.00  0.00     0.383 C 
HETATM   38  O4  UNL     1      -4.765  20.481  24.955  1.00  0.00    -0.246 OA
BRANCH  37  39
HETATM   39  C19 UNL     1      -4.523  18.291  24.362  1.00  0.00     0.329 C 
HETATM   40  O5  UNL     1      -4.100  17.380  24.870  1.00  0.00    -0.261 OA
HETATM   41  N9  UNL     1      -4.648  18.809  23.062  1.00  0.00    -0.313 N 
ATOM     42  H9  UNL     1      -5.069  19.733  22.961  1.00  0.00     0.170 HD
BRANCH  41  43
HETATM   43  C20 UNL     1      -4.232  18.141  21.875  1.00  0.00     0.199 C 
HETATM   44  N10 UNL     1      -4.118  16.940  21.600  1.00  0.00    -0.303 N 
ATOM     45  H10 UNL     1      -4.342  16.210  22.276  1.00  0.00     0.187 HD
BRANCH  44  46
HETATM   46  N11 UNL     1      -3.656  16.634  20.290  1.00  0.00    -0.344 N 
ATOM     47 2H11 UNL     1      -4.256  16.774  19.477  1.00  0.00     0.176 HD
ATOM     48 1H11 UNL     1      -2.705  16.272  20.219  1.00  0.00     0.176 HD
ENDBRANCH  44  46
ENDBRANCH  41  43
ENDBRANCH  37  39
ENDBRANCH  35  36
ENDBRANCH  34  35
ENDBRANCH  33  34
BRANCH  33  49
HETATM   49  C21 UNL     1      -9.126  17.113  25.516  1.00  0.00     0.164 C 
BRANCH  49  50
HETATM   50  C22 UNL     1      -8.955  16.870  24.062  1.00  0.00    -0.040 A 
HETATM   51  C23 UNL     1      -7.971  17.386  23.263  1.00  0.00     0.009 A 
HETATM   52  C24 UNL     1      -7.884  17.151  21.891  1.00  0.00     0.001 A 
HETATM   53  C25 UNL     1      -8.813  16.357  21.264  1.00  0.00     0.000 A 
HETATM   54  C26 UNL     1      -9.819  15.827  22.054  1.00  0.00     0.001 A 
HETATM   55  C27 UNL     1      -9.909  16.049  23.387  1.00  0.00     0.009 A 
ENDBRANCH  49  50
ENDBRANCH  33  49
ENDBRANCH  30  31
ENDBRANCH  29  30
ENDBRANCH   1  29
TORSDOF 27
ENDMDL
MODEL 2
REMARK VINA RESULT: -8.062473293      2.269     10.984
REMARK  27 active torsions:
REMARK  status: ('A' for Active; 'I' for Inactive)
REMARK       I    between atoms: C1_4  and  N3_6 
REMARK    1  A    between atoms: N3_6  and  C2_8 
REMARK    2  A    between atoms: C2_8  and  C3_9 
REMARK    3  A    between atoms: C3_9  and  C4_10 
REMARK    4  A    between atoms: C4_10  and  C5_11 
REMARK    5  A    between atoms: C5_11  and  N4_12 
REMARK    6  A    between atoms: N4_12  and  C6_14 
REMARK    7  A    between atoms: C6_14  and  O1_15 
REMARK    8  A    between atoms: C6_14  and  C7_17 
REMARK    9  A    between atoms: C7_17  and  C8_18 
REMARK   10  A    between atoms: C8_18  and  C9_19 
REMARK   11  A    between atoms: C9_19  and  C10_20 
REMARK   12  A    between atoms: C10_20  and  C11_21 
REMARK   13  A    between atoms: C11_21  and  N5_22 
REMARK   14  A    between atoms: N5_22  and  C12_24 
REMARK   15  A    between atoms: C12_24  and  O2_25 
REMARK   16  A    between atoms: C12_24  and  N6_27 
REMARK   17  A    between atoms: N6_27  and  C13_29 
REMARK   18  A    between atoms: C13_29  and  C14_30 
REMARK   19  A    between atoms: C14_30  and  C15_31 
REMARK       I    between atoms: C15_31  and  N7_33 
REMARK   20  A    between atoms: N7_33  and  C16_34 
REMARK   21  A    between atoms: N7_33  and  C21_49 
REMARK   22  A    between atoms: C16_34  and  C17_35 
REMARK   23  A    between atoms: C17_35  and  N8_36 
REMARK       I    between atoms: N8_36  and  C18_37 
REMARK   24  A    between atoms: C18_37  and  C19_39 
REMARK       I    between atoms: C19_39  and  N9_41 
REMARK   25  A    between atoms: N9_41  and  C20_43 
REMARK   26  A    between atoms: N10_44  and  N11_46 
REMARK   27  A    between atoms: C21_49  and  C22_50 
ROOT
HETATM    1  N6  UNL     1      -9.694  15.719  25.640  1.00  0.00    -0.356 N 
ATOM      2  H6  UNL     1     -10.650  15.371  25.713  1.00  0.00     0.163 HD
ENDROOT
BRANCH   1   3
HETATM    3  C12 UNL     1      -9.366  16.910  24.914  1.00  0.00     0.212 C 
BRANCH   3   4
HETATM    4  N5  UNL     1      -8.770  16.988  23.658  1.00  0.00    -0.357 N 
ATOM      5  H5  UNL     1      -8.224  17.807  23.389  1.00  0.00     0.163 HD
BRANCH   4   6
HETATM    6  C11 UNL     1      -8.945  15.887  22.751  1.00  0.00     0.123 C 
BRANCH   6   7
HETATM    7  C10 UNL     1      -9.979  16.018  21.720  1.00  0.00     0.020 C 
BRANCH   7   8
HETATM    8  C9  UNL     1      -9.493  17.002  20.630  1.00  0.00     0.002 C 
BRANCH   8   9
HETATM    9  C8  UNL     1      -8.191  16.535  20.076  1.00  0.00     0.008 C 
BRANCH   9  10
HETATM   10  C7  UNL     1      -7.097  17.612  20.150  1.00  0.00     0.084 C 
BRANCH  10  11
HETATM   11  C6  UNL     1      -5.967  17.099  20.870  1.00  0.00     0.114 C 
BRANCH  11  12
HETATM   12  N4  UNL     1      -5.297  17.523  21.950  1.00  0.00    -0.354 N 
ATOM     13  H4  UNL     1      -6.054  17.702  22.610  1.00  0.00     0.166 HD
BRANCH  12  14
HETATM   14  C5  UNL     1      -4.324  17.817  22.602  1.00  0.00     0.063 C 
BRANCH  14  15
HETATM   15  C4  UNL     1      -4.173  19.269  22.989  1.00  0.00     0.046 C 
BRANCH  15  16
HETATM   16  C3  UNL     1      -5.423  19.722  23.673  1.00  0.00     0.025 C 
BRANCH  16  17
HETATM   17  C2  UNL     1      -5.221  19.504  25.176  1.00  0.00     0.122 C 
BRANCH  17  18
HETATM   18  N3  UNL     1      -6.388  18.692  25.570  1.00  0.00    -0.365 N 
HETATM   19  C1  UNL     1      -6.649  18.558  26.979  1.00  0.00     0.181 C 
HETATM   20  N1  UNL     1      -7.661  19.150  27.525  1.00  0.00    -0.374 N 
HETATM   21  N2  UNL     1      -5.775  17.816  27.761  1.00  0.00    -0.064 NA
ATOM     22  H12 UNL     1      -7.846  19.055  28.524  1.00  0.00     0.158 HD
ATOM     23  H11 UNL     1      -8.304  19.695  26.950  1.00  0.00     0.158 HD
ATOM     24  H3  UNL     1      -6.984  18.244  24.874  1.00  0.00     0.162 HD
ENDBRANCH  17  18
ENDBRANCH  16  17
ENDBRANCH  15  16
ENDBRANCH  14  15
ENDBRANCH  12  14
ENDBRANCH  11  12
BRANCH  11  25
HETATM   25  O1  UNL     1      -5.482  15.961  20.372  1.00  0.00    -0.349 OA
ATOM     26  H1  UNL     1      -6.121  15.258  20.367  1.00  0.00     0.219 HD
ENDBRANCH  11  25
ENDBRANCH  10  11
ENDBRANCH   9  10
ENDBRANCH   8   9
ENDBRANCH   7   8
ENDBRANCH   6   7
ENDBRANCH   4   6
ENDBRANCH   3   4
BRANCH   3  27
HETATM   27  O2  UNL     1      -9.691  18.022  25.544  1.00  0.00    -0.333 OA
ATOM     28  H2  UNL     1     -10.402  18.556  25.209  1.00  0.00     0.220 HD
ENDBRANCH   3  27
ENDBRANCH   1   3
BRANCH   1  29
HETATM   29  C13 UNL     1      -8.563  15.039  26.268  1.00  0.00     0.132 C 
BRANCH  29  30
HETATM   30  C14 UNL     1      -8.762  15.297  27.820  1.00  0.00     0.122 C 
BRANCH  30  31
HETATM   31  C15 UNL     1     -10.146  14.758  27.967  1.00  0.00     0.222 C 
HETATM   32  O3  UNL     1     -10.483  13.693  27.402  1.00  0.00    -0.273 OA
HETATM   33  N7  UNL     1     -11.117  15.445  28.780  1.00  0.00    -0.342 N 
BRANCH  33  34
HETATM   34  C16 UNL     1     -12.506  15.147  28.753  1.00  0.00     0.185 C 
BRANCH  34  35
HETATM   35  C17 UNL     1     -13.057  13.965  29.466  1.00  0.00     0.179 C 
BRANCH  35  36
HETATM   36  N8  UNL     1     -14.269  14.235  30.029  1.00  0.00    -0.378 NA
HETATM   37  C18 UNL     1     -15.490  14.506  30.588  1.00  0.00     0.383 C 
HETATM   38  O4  UNL     1     -16.605  14.738  30.468  1.00  0.00    -0.246 OA
BRANCH  37  39
HETATM   39  C19 UNL     1     -15.199  14.362  32.226  1.00  0.00     0.329 C 
HETATM   40  O5  UNL     1     -16.045  14.008  32.878  1.00  0.00    -0.261 OA
HETATM   41  N9  UNL     1     -13.871  14.800  32.370  1.00  0.00    -0.313 N 
ATOM     42  H9  UNL     1     -13.380  15.103  31.528  1.00  0.00     0.170 HD
BRANCH  41  43
HETATM   43  C20 UNL     1     -13.159  14.852  33.602  1.00  0.00     0.199 C 
HETATM   44  N10 UNL     1     -13.171  14.112  34.594  1.00  0.00    -0.303 N 
ATOM     45  H10 UNL     1     -13.761  13.282  34.639  1.00  0.00     0.187 HD
BRANCH  44  46
HETATM   46  N11 UNL     1     -12.316  14.485  35.669  1.00  0.00    -0.344 N 
ATOM     47 2H11 UNL     1     -12.439  15.375  36.152  1.00  0.00     0.176 HD
ATOM     48 1H11 UNL     1     -11.587  13.817  35.919  1.00  0.00     0.176 HD
ENDBRANCH  44  46
ENDBRANCH  41  43
ENDBRANCH  37  39
ENDBRANCH  35  36
ENDBRANCH  34  35
ENDBRANCH  33  34
BRANCH  33  49
HETATM   49  C21 UNL     1     -10.683  16.554  29.653  1.00  0.00     0.164 C 
BRANCH  49  50
HETATM   50  C22 UNL     1      -9.875  16.186  30.842  1.00  0.00    -0.040 A 
HETATM   51  C23 UNL     1     -10.041  15.077  31.624  1.00  0.00     0.009 A 
HETATM   52  C24 UNL     1      -9.272  14.803  32.755  1.00  0.00     0.001 A 
HETATM   53  C25 UNL     1      -8.273  15.666  33.139  1.00  0.00     0.000 A 
HETATM   54  C26 UNL     1      -8.090  16.796  32.362  1.00  0.00     0.001 A 
HETATM   55  C27 UNL     1      -8.832  17.068  31.262  1.00  0.00     0.009 A 
ENDBRANCH  49  50
ENDBRANCH  33  49
ENDBRANCH  30  31
ENDBRANCH  29  30
ENDBRANCH   1  29
TORSDOF 27
ENDMDL
MODEL 3
REMARK VINA RESULT: -7.990341806      2.337     10.084
REMARK  27 active torsions:
REMARK  status: ('A' for Active; 'I' for Inactive)
REMARK       I    between atoms: C1_4  and  N3_6 
REMARK    1  A    between atoms: N3_6  and  C2_8 
REMARK    2  A    between atoms: C2_8  and  C3_9 
REMARK    3  A    between atoms: C3_9  and  C4_10 
REMARK    4  A    between atoms: C4_10  and  C5_11 
REMARK    5  A    between atoms: C5_11  and  N4_12 
REMARK    6  A    between atoms: N4_12  and  C6_14 
REMARK    7  A    between atoms: C6_14  and  O1_15 
REMARK    8  A    between atoms: C6_14  and  C7_17 
REMARK    9  A    between atoms: C7_17  and  C8_18 
REMARK   10  A    between atoms: C8_18  and  C9_19 
REMARK   11  A    between atoms: C9_19  and  C10_20 
REMARK   12  A    between atoms: C10_20  and  C11_21 
REMARK   13  A    between atoms: C11_21  and  N5_22 
REMARK   14  A    between atoms: N5_22  and  C12_24 
REMARK   15  A    between atoms: C12_24  and  O2_25 
REMARK   16  A    between atoms: C12_24  and  N6_27 
REMARK   17  A    between atoms: N6_27  and  C13_29 
REMARK   18  A    between atoms: C13_29  and  C14_30 
REMARK   19  A    between atoms: C14_30  and  C15_31 
REMARK       I    between atoms: C15_31  and  N7_33 
REMARK   20  A    between atoms: N7_33  and  C16_34 
REMARK   21  A    between atoms: N7_33  and  C21_49 
REMARK   22  A    between atoms: C16_34  and  C17_35 
REMARK   23  A    between atoms: C17_35  and  N8_36 
REMARK       I    between atoms: N8_36  and  C18_37 
REMARK   24  A    between atoms: C18_37  and  C19_39 
REMARK       I    between atoms: C19_39  and  N9_41 
REMARK   25  A    between atoms: N9_41  and  C20_43 
REMARK   26  A    between atoms: N10_44  and  N11_46 
REMARK   27  A    between atoms: C21_49  and  C22_50 
ROOT
HETATM    1  N6  UNL     1      -9.899  16.932  26.329  1.00  0.00    -0.356 N 
ATOM      2  H6  UNL     1     -10.760  17.240  26.781  1.00  0.00     0.163 HD
ENDROOT
BRANCH   1   3
HETATM    3  C12 UNL     1      -8.762  17.790  26.181  1.00  0.00     0.212 C 
BRANCH   3   4
HETATM    4  N5  UNL     1      -8.221  18.637  27.144  1.00  0.00    -0.357 N 
ATOM      5  H5  UNL     1      -8.459  19.629  27.162  1.00  0.00     0.163 HD
BRANCH   4   6
HETATM    6  C11 UNL     1      -7.318  18.078  28.114  1.00  0.00     0.123 C 
BRANCH   6   7
HETATM    7  C10 UNL     1      -5.933  17.847  27.693  1.00  0.00     0.020 C 
BRANCH   7   8
HETATM    8  C9  UNL     1      -5.345  19.159  27.126  1.00  0.00     0.002 C 
BRANCH   8   9
HETATM    9  C8  UNL     1      -5.057  18.995  25.673  1.00  0.00     0.008 C 
BRANCH   9  10
HETATM   10  C7  UNL     1      -4.896  20.339  24.947  1.00  0.00     0.084 C 
BRANCH  10  11
HETATM   11  C6  UNL     1      -5.759  20.373  23.801  1.00  0.00     0.114 C 
BRANCH  11  12
HETATM   12  N4  UNL     1      -6.368  19.420  23.082  1.00  0.00    -0.354 N 
ATOM     13  H4  UNL     1      -6.982  18.993  23.776  1.00  0.00     0.166 HD
BRANCH  12  14
HETATM   14  C5  UNL     1      -6.617  18.770  22.095  1.00  0.00     0.063 C 
BRANCH  14  15
HETATM   15  C4  UNL     1      -5.521  17.874  21.571  1.00  0.00     0.046 C 
BRANCH  15  16
HETATM   16  C3  UNL     1      -6.043  17.098  20.404  1.00  0.00     0.025 C 
BRANCH  16  17
HETATM   17  C2  UNL     1      -7.416  17.679  20.053  1.00  0.00     0.122 C 
BRANCH  17  18
HETATM   18  N3  UNL     1      -8.284  16.489  19.962  1.00  0.00    -0.365 N 
HETATM   19  C1  UNL     1      -9.342  16.373  20.929  1.00  0.00     0.181 C 
HETATM   20  N1  UNL     1     -10.579  16.531  20.583  1.00  0.00    -0.374 N 
HETATM   21  N2  UNL     1      -9.021  16.128  22.257  1.00  0.00    -0.064 NA
ATOM     22  H12 UNL     1     -11.328  16.448  21.269  1.00  0.00     0.158 HD
ATOM     23  H11 UNL     1     -10.815  16.710  19.607  1.00  0.00     0.158 HD
ATOM     24  H3  UNL     1      -8.140  15.779  19.244  1.00  0.00     0.162 HD
ENDBRANCH  17  18
ENDBRANCH  16  17
ENDBRANCH  15  16
ENDBRANCH  14  15
ENDBRANCH  12  14
ENDBRANCH  11  12
BRANCH  11  25
HETATM   25  O1  UNL     1      -6.020  21.604  23.359  1.00  0.00    -0.349 OA
ATOM     26  H1  UNL     1      -6.156  22.228  24.062  1.00  0.00     0.219 HD
ENDBRANCH  11  25
ENDBRANCH  10  11
ENDBRANCH   9  10
ENDBRANCH   8   9
ENDBRANCH   7   8
ENDBRANCH   6   7
ENDBRANCH   4   6
ENDBRANCH   3   4
BRANCH   3  27
HETATM   27  O2  UNL     1      -8.201  17.727  24.989  1.00  0.00    -0.333 OA
ATOM     28  H2  UNL     1      -7.648  16.985  24.774  1.00  0.00     0.220 HD
ENDBRANCH   3  27
ENDBRANCH   1   3
BRANCH   1  29
HETATM   29  C13 UNL     1      -9.740  15.584  25.786  1.00  0.00     0.132 C 
BRANCH  29  30
HETATM   30  C14 UNL     1     -10.426  14.643  26.862  1.00  0.00     0.122 C 
BRANCH  30  31
HETATM   31  C15 UNL     1      -9.461  14.835  27.984  1.00  0.00     0.222 C 
HETATM   32  O3  UNL     1      -8.230  14.694  27.802  1.00  0.00    -0.273 OA
HETATM   33  N7  UNL     1      -9.926  15.205  29.296  1.00  0.00    -0.342 N 
BRANCH  33  34
HETATM   34  C16 UNL     1      -9.110  15.144  30.458  1.00  0.00     0.185 C 
BRANCH  34  35
HETATM   35  C17 UNL     1      -8.849  16.351  31.284  1.00  0.00     0.179 C 
BRANCH  35  36
HETATM   36  N8  UNL     1      -8.955  16.083  32.617  1.00  0.00    -0.378 NA
HETATM   37  C18 UNL     1      -9.053  15.813  33.957  1.00  0.00     0.383 C 
HETATM   38  O4  UNL     1      -8.551  15.580  34.959  1.00  0.00    -0.246 OA
BRANCH  37  39
HETATM   39  C19 UNL     1     -10.688  15.962  34.256  1.00  0.00     0.329 C 
HETATM   40  O5  UNL     1     -11.015  16.745  34.995  1.00  0.00    -0.261 OA
HETATM   41  N9  UNL     1     -11.267  14.953  33.467  1.00  0.00    -0.313 N 
ATOM     42  H9  UNL     1     -10.639  14.367  32.916  1.00  0.00     0.170 HD
BRANCH  41  43
HETATM   43  C20 UNL     1     -12.663  14.687  33.378  1.00  0.00     0.199 C 
HETATM   44  N10 UNL     1     -13.585  15.294  32.817  1.00  0.00    -0.303 N 
ATOM     45  H10 UNL     1     -13.422  16.151  32.289  1.00  0.00     0.187 HD
BRANCH  44  46
HETATM   46  N11 UNL     1     -14.884  14.729  32.949  1.00  0.00    -0.344 N 
ATOM     47 2H11 UNL     1     -15.029  13.723  32.865  1.00  0.00     0.176 HD
ATOM     48 1H11 UNL     1     -15.645  15.383  33.130  1.00  0.00     0.176 HD
ENDBRANCH  44  46
ENDBRANCH  41  43
ENDBRANCH  37  39
ENDBRANCH  35  36
ENDBRANCH  34  35
ENDBRANCH  33  34
BRANCH  33  49
HETATM   49  C21 UNL     1     -11.331  15.621  29.481  1.00  0.00     0.164 C 
BRANCH  49  50
HETATM   50  C22 UNL     1     -12.332  14.535  29.622  1.00  0.00    -0.040 A 
HETATM   51  C23 UNL     1     -12.115  13.295  30.157  1.00  0.00     0.009 A 
HETATM   52  C24 UNL     1     -13.089  12.300  30.229  1.00  0.00     0.001 A 
HETATM   53  C25 UNL     1     -14.357  12.537  29.755  1.00  0.00     0.000 A 
HETATM   54  C26 UNL     1     -14.598  13.785  29.207  1.00  0.00     0.001 A 
HETATM   55  C27 UNL     1     -13.657  14.757  29.135  1.00  0.00     0.009 A 
ENDBRANCH  49  50
ENDBRANCH  33  49
ENDBRANCH  30  31
ENDBRANCH  29  30
ENDBRANCH   1  29
TORSDOF 27
ENDMDL
MODEL 4
REMARK VINA RESULT: -7.988359441      2.214     10.762
REMARK  27 active torsions:
REMARK  status: ('A' for Active; 'I' for Inactive)
REMARK       I    between atoms: C1_4  and  N3_6 
REMARK    1  A    between atoms: N3_6  and  C2_8 
REMARK    2  A    between atoms: C2_8  and  C3_9 
REMARK    3  A    between atoms: C3_9  and  C4_10 
REMARK    4  A    between atoms: C4_10  and  C5_11 
REMARK    5  A    between atoms: C5_11  and  N4_12 
REMARK    6  A    between atoms: N4_12  and  C6_14 
REMARK    7  A    between atoms: C6_14  and  O1_15 
REMARK    8  A    between atoms: C6_14  and  C7_17 
REMARK    9  A    between atoms: C7_17  and  C8_18 
REMARK   10  A    between atoms: C8_18  and  C9_19 
REMARK   11  A    between atoms: C9_19  and  C10_20 
REMARK   12  A    between atoms: C10_20  and  C11_21 
REMARK   13  A    between atoms: C11_21  and  N5_22 
REMARK   14  A    between atoms: N5_22  and  C12_24 
REMARK   15  A    between atoms: C12_24  and  O2_25 
REMARK   16  A    between atoms: C12_24  and  N6_27 
REMARK   17  A    between atoms: N6_27  and  C13_29 
REMARK   18  A    between atoms: C13_29  and  C14_30 
REMARK   19  A    between atoms: C14_30  and  C15_31 
REMARK       I    between atoms: C15_31  and  N7_33 
REMARK   20  A    between atoms: N7_33  and  C16_34 
REMARK   21  A    between atoms: N7_33  and  C21_49 
REMARK   22  A    between atoms: C16_34  and  C17_35 
REMARK   23  A    between atoms: C17_35  and  N8_36 
REMARK       I    between atoms: N8_36  and  C18_37 
REMARK   24  A    between atoms: C18_37  and  C19_39 
REMARK       I    between atoms: C19_39  and  N9_41 
REMARK   25  A    between atoms: N9_41  and  C20_43 
REMARK   26  A    between atoms: N10_44  and  N11_46 
REMARK   27  A    between atoms: C21_49  and  C22_50 
ROOT
HETATM    1  N6  UNL     1     -10.224  16.314  25.737  1.00  0.00    -0.356 N 
ATOM      2  H6  UNL     1     -10.850  17.110  25.861  1.00  0.00     0.163 HD
ENDROOT
BRANCH   1   3
HETATM    3  C12 UNL     1      -9.400  16.161  24.576  1.00  0.00     0.212 C 
BRANCH   3   4
HETATM    4  N5  UNL     1      -9.656  16.647  23.297  1.00  0.00    -0.357 N 
ATOM      5  H5  UNL     1      -9.795  17.645  23.134  1.00  0.00     0.163 HD
BRANCH   4   6
HETATM    6  C11 UNL     1      -9.720  15.708  22.210  1.00  0.00     0.123 C 
BRANCH   6   7
HETATM    7  C10 UNL     1      -9.992  16.240  20.872  1.00  0.00     0.020 C 
BRANCH   7   8
HETATM    8  C9  UNL     1      -8.936  17.315  20.524  1.00  0.00     0.002 C 
BRANCH   8   9
HETATM    9  C8  UNL     1      -7.579  16.700  20.511  1.00  0.00     0.008 C 
BRANCH   9  10
HETATM   10  C7  UNL     1      -6.459  17.737  20.685  1.00  0.00     0.084 C 
BRANCH  10  11
HETATM   11  C6  UNL     1      -6.456  18.218  22.038  1.00  0.00     0.114 C 
BRANCH  11  12
HETATM   12  N4  UNL     1      -6.347  19.438  22.578  1.00  0.00    -0.354 N 
ATOM     13  H4  UNL     1      -7.257  19.845  22.365  1.00  0.00     0.166 HD
BRANCH  12  14
HETATM   14  C5  UNL     1      -5.804  20.340  23.170  1.00  0.00     0.063 C 
BRANCH  14  15
HETATM   15  C4  UNL     1      -4.716  19.961  24.146  1.00  0.00     0.046 C 
BRANCH  15  16
HETATM   16  C3  UNL     1      -5.295  19.907  25.524  1.00  0.00     0.025 C 
BRANCH  16  17
HETATM   17  C2  UNL     1      -5.238  18.446  25.981  1.00  0.00     0.122 C 
BRANCH  17  18
HETATM   18  N3  UNL     1      -6.639  17.995  25.879  1.00  0.00    -0.365 N 
HETATM   19  C1  UNL     1      -7.423  18.010  27.086  1.00  0.00     0.181 C 
HETATM   20  N1  UNL     1      -8.368  18.878  27.253  1.00  0.00    -0.374 N 
HETATM   21  N2  UNL     1      -7.127  17.106  28.096  1.00  0.00    -0.064 NA
ATOM     22  H12 UNL     1      -8.923  18.888  28.108  1.00  0.00     0.158 HD
ATOM     23  H11 UNL     1      -8.586  19.542  26.510  1.00  0.00     0.158 HD
ATOM     24  H3  UNL     1      -7.036  17.685  24.992  1.00  0.00     0.162 HD
ENDBRANCH  17  18
ENDBRANCH  16  17
ENDBRANCH  15  16
ENDBRANCH  14  15
ENDBRANCH  12  14
ENDBRANCH  11  12
BRANCH  11  25
HETATM   25  O1  UNL     1      -6.599  17.256  22.951  1.00  0.00    -0.349 OA
ATOM     26  H1  UNL     1      -7.494  17.170  23.260  1.00  0.00     0.219 HD
ENDBRANCH  11  25
ENDBRANCH  10  11
ENDBRANCH   9  10
ENDBRANCH   8   9
ENDBRANCH   7   8
ENDBRANCH   6   7
ENDBRANCH   4   6
ENDBRANCH   3   4
BRANCH   3  27
HETATM   27  O2  UNL     1      -8.288  15.487  24.799  1.00  0.00    -0.333 OA
ATOM     28  H2  UNL     1      -8.342  14.604  25.148  1.00  0.00     0.220 HD
ENDBRANCH   3  27
ENDBRANCH   1   3
BRANCH   1  29
HETATM   29  C13 UNL     1     -10.106  15.250  26.732  1.00  0.00     0.132 C 
BRANCH  29  30
HETATM   30  C14 UNL     1     -11.493  15.275  27.501  1.00  0.00     0.122 C 
BRANCH  30  31
HETATM   31  C15 UNL     1     -11.093  16.107  28.672  1.00  0.00     0.222 C 
HETATM   32  O3  UNL     1     -10.778  17.311  28.527  1.00  0.00    -0.273 OA
HETATM   33  N7  UNL     1     -11.078  15.547  29.999  1.00  0.00    -0.342 N 
BRANCH  33  34
HETATM   34  C16 UNL     1     -10.462  16.186  31.109  1.00  0.00     0.185 C 
BRANCH  34  35
HETATM   35  C17 UNL     1      -9.115  15.779  31.585  1.00  0.00     0.179 C 
BRANCH  35  36
HETATM   36  N8  UNL     1      -9.048  15.750  32.946  1.00  0.00    -0.378 NA
HETATM   37  C18 UNL     1      -8.974  15.724  34.315  1.00  0.00     0.383 C 
HETATM   38  O4  UNL     1      -8.358  15.819  35.275  1.00  0.00    -0.246 OA
BRANCH  37  39
HETATM   39  C19 UNL     1     -10.564  15.513  34.778  1.00  0.00     0.329 C 
HETATM   40  O5  UNL     1     -11.231  16.420  34.781  1.00  0.00    -0.261 OA
HETATM   41  N9  UNL     1     -10.639  14.150  35.108  1.00  0.00    -0.313 N 
ATOM     42  H9  UNL     1      -9.787  13.595  35.020  1.00  0.00     0.170 HD
BRANCH  41  43
HETATM   43  C20 UNL     1     -11.815  13.483  35.556  1.00  0.00     0.199 C 
HETATM   44  N10 UNL     1     -12.818  13.892  36.155  1.00  0.00    -0.303 N 
ATOM     45  H10 UNL     1     -12.925  14.871  36.418  1.00  0.00     0.187 HD
BRANCH  44  46
HETATM   46  N11 UNL     1     -13.813  12.921  36.454  1.00  0.00    -0.344 N 
ATOM     47 2H11 UNL     1     -13.595  12.105  37.027  1.00  0.00     0.176 HD
ATOM     48 1H11 UNL     1     -14.741  13.090  36.066  1.00  0.00     0.176 HD
ENDBRANCH  44  46
ENDBRANCH  41  43
ENDBRANCH  37  39
ENDBRANCH  35  36
ENDBRANCH  34  35
ENDBRANCH  33  34
BRANCH  33  49
HETATM   49  C21 UNL     1     -11.680  14.219  30.235  1.00  0.00     0.164 C 
BRANCH  49  50
HETATM   50  C22 UNL     1     -13.083  14.201  30.718  1.00  0.00    -0.040 A 
HETATM   51  C23 UNL     1     -14.208  14.175  29.941  1.00  0.00     0.009 A 
HETATM   52  C24 UNL     1     -15.506  14.198  30.453  1.00  0.00     0.001 A 
HETATM   53  C25 UNL     1     -15.713  14.242  31.811  1.00  0.00     0.000 A 
HETATM   54  C26 UNL     1     -14.587  14.273  32.615  1.00  0.00     0.001 A 
HETATM   55  C27 UNL     1     -13.325  14.249  32.125  1.00  0.00     0.009 A 
ENDBRANCH  49  50
ENDBRANCH  33  49
ENDBRANCH  30  31
ENDBRANCH  29  30
ENDBRANCH   1  29
TORSDOF 27
ENDMDL
MODEL 5
REMARK VINA RESULT: -7.935436368      1.962     11.000
REMARK  27 active torsions:
REMARK  status: ('A' for Active; 'I' for Inactive)
REMARK       I    between atoms: C1_4  and  N3_6 
REMARK    1  A    between atoms: N3_6  and  C2_8 
REMARK    2  A    between atoms: C2_8  and  C3_9 
REMARK    3  A    between atoms: C3_9  and  C4_10 
REMARK    4  A    between atoms: C4_10  and  C5_11 
REMARK    5  A    between atoms: C5_11  and  N4_12 
REMARK    6  A    between atoms: N4_12  and  C6_14 
REMARK    7  A    between atoms: C6_14  and  O1_15 
REMARK    8  A    between atoms: C6_14  and  C7_17 
REMARK    9  A    between atoms: C7_17  and  C8_18 
REMARK   10  A    between atoms: C8_18  and  C9_19 
REMARK   11  A    between atoms: C9_19  and  C10_20 
REMARK   12  A    between atoms: C10_20  and  C11_21 
REMARK   13  A    between atoms: C11_21  and  N5_22 
REMARK   14  A    between atoms: N5_22  and  C12_24 
REMARK   15  A    between atoms: C12_24  and  O2_25 
REMARK   16  A    between atoms: C12_24  and  N6_27 
REMARK   17  A    between atoms: N6_27  and  C13_29 
REMARK   18  A    between atoms: C13_29  and  C14_30 
REMARK   19  A    between atoms: C14_30  and  C15_31 
REMARK       I    between atoms: C15_31  and  N7_33 
REMARK   20  A    between atoms: N7_33  and  C16_34 
REMARK   21  A    between atoms: N7_33  and  C21_49 
REMARK   22  A    between atoms: C16_34  and  C17_35 
REMARK   23  A    between atoms: C17_35  and  N8_36 
REMARK       I    between atoms: N8_36  and  C18_37 
REMARK   24  A    between atoms: C18_37  and  C19_39 
REMARK       I    between atoms: C19_39  and  N9_41 
REMARK   25  A    between atoms: N9_41  and  C20_43 
REMARK   26  A    between atoms: N10_44  and  N11_46 
REMARK   27  A    between atoms: C21_49  and  C22_50 
ROOT
HETATM    1  N6  UNL     1      -7.844  17.040  26.595  1.00  0.00    -0.356 N 
ATOM      2  H6  UNL     1      -7.058  16.438  26.348  1.00  0.00     0.163 HD
ENDROOT
BRANCH   1   3
HETATM    3  C12 UNL     1      -8.835  17.436  25.640  1.00  0.00     0.212 C 
BRANCH   3   4
HETATM    4  N5  UNL     1      -8.851  17.144  24.279  1.00  0.00    -0.357 N 
ATOM      5  H5  UNL     1      -8.106  17.474  23.665  1.00  0.00     0.163 HD
BRANCH   4   6
HETATM    6  C11 UNL     1      -9.942  16.366  23.761  1.00  0.00     0.123 C 
BRANCH   6   7
HETATM    7  C10 UNL     1      -9.876  15.962  22.353  1.00  0.00     0.020 C 
BRANCH   7   8
HETATM    8  C9  UNL     1      -8.407  15.657  21.977  1.00  0.00     0.002 C 
BRANCH   8   9
HETATM    9  C8  UNL     1      -8.105  16.223  20.632  1.00  0.00     0.008 C 
BRANCH   9  10
HETATM   10  C7  UNL     1      -8.083  17.759  20.630  1.00  0.00     0.084 C 
BRANCH  10  11
HETATM   11  C6  UNL     1      -6.909  18.225  21.312  1.00  0.00     0.114 C 
BRANCH  11  12
HETATM   12  N4  UNL     1      -5.599  18.134  21.051  1.00  0.00    -0.354 N 
ATOM     13  H4  UNL     1      -5.215  18.871  21.642  1.00  0.00     0.166 HD
BRANCH  12  14
HETATM   14  C5  UNL     1      -4.605  17.692  20.526  1.00  0.00     0.063 C 
BRANCH  14  15
HETATM   15  C4  UNL     1      -3.521  17.174  21.442  1.00  0.00     0.046 C 
BRANCH  15  16
HETATM   16  C3  UNL     1      -3.360  18.120  22.589  1.00  0.00     0.025 C 
BRANCH  16  17
HETATM   17  C2  UNL     1      -3.464  17.293  23.874  1.00  0.00     0.122 C 
BRANCH  17  18
HETATM   18  N3  UNL     1      -4.877  17.445  24.272  1.00  0.00    -0.365 N 
HETATM   19  C1  UNL     1      -5.170  18.414  25.295  1.00  0.00     0.181 C 
HETATM   20  N1  UNL     1      -5.780  19.518  25.008  1.00  0.00    -0.374 N 
HETATM   21  N2  UNL     1      -4.752  18.171  26.595  1.00  0.00    -0.064 NA
ATOM     22  H12 UNL     1      -5.988  20.204  25.733  1.00  0.00     0.158 HD
ATOM     23  H11 UNL     1      -6.087  19.696  24.052  1.00  0.00     0.158 HD
ATOM     24  H3  UNL     1      -5.614  16.888  23.841  1.00  0.00     0.162 HD
ENDBRANCH  17  18
ENDBRANCH  16  17
ENDBRANCH  15  16
ENDBRANCH  14  15
ENDBRANCH  12  14
ENDBRANCH  11  12
BRANCH  11  25
HETATM   25  O1  UNL     1      -7.170  18.896  22.435  1.00  0.00    -0.349 OA
ATOM     26  H1  UNL     1      -7.604  18.364  23.091  1.00  0.00     0.219 HD
ENDBRANCH  11  25
ENDBRANCH  10  11
ENDBRANCH   9  10
ENDBRANCH   8   9
ENDBRANCH   7   8
ENDBRANCH   6   7
ENDBRANCH   4   6
ENDBRANCH   3   4
BRANCH   3  27
HETATM   27  O2  UNL     1      -9.820  18.143  26.160  1.00  0.00    -0.333 OA
ATOM     28  H2  UNL     1      -9.620  18.833  26.781  1.00  0.00     0.220 HD
ENDBRANCH   3  27
ENDBRANCH   1   3
BRANCH   1  29
HETATM   29  C13 UNL     1      -8.037  17.559  27.948  1.00  0.00     0.132 C 
BRANCH  29  30
HETATM   30  C14 UNL     1      -7.534  16.390  28.893  1.00  0.00     0.122 C 
BRANCH  30  31
HETATM   31  C15 UNL     1      -8.505  15.332  28.489  1.00  0.00     0.222 C 
HETATM   32  O3  UNL     1      -8.167  14.416  27.705  1.00  0.00    -0.273 OA
HETATM   33  N7  UNL     1      -9.849  15.334  29.008  1.00  0.00    -0.342 N 
BRANCH  33  34
HETATM   34  C16 UNL     1     -10.893  14.533  28.472  1.00  0.00     0.185 C 
BRANCH  34  35
HETATM   35  C17 UNL     1     -12.198  15.124  28.079  1.00  0.00     0.179 C 
BRANCH  35  36
HETATM   36  N8  UNL     1     -13.207  14.707  28.895  1.00  0.00    -0.378 NA
HETATM   37  C18 UNL     1     -14.227  14.287  29.709  1.00  0.00     0.383 C 
HETATM   38  O4  UNL     1     -15.337  14.057  29.867  1.00  0.00    -0.246 OA
BRANCH  37  39
HETATM   39  C19 UNL     1     -13.437  13.854  31.114  1.00  0.00     0.329 C 
HETATM   40  O5  UNL     1     -12.920  12.854  31.136  1.00  0.00    -0.261 OA
HETATM   41  N9  UNL     1     -13.686  14.929  31.985  1.00  0.00    -0.313 N 
ATOM     42  H9  UNL     1     -14.256  15.698  31.633  1.00  0.00     0.170 HD
BRANCH  41  43
HETATM   43  C20 UNL     1     -13.202  15.025  33.321  1.00  0.00     0.199 C 
HETATM   44  N10 UNL     1     -12.841  14.162  34.132  1.00  0.00    -0.303 N 
ATOM     45  H10 UNL     1     -12.847  13.170  33.900  1.00  0.00     0.187 HD
BRANCH  44  46
HETATM   46  N11 UNL     1     -12.417  14.633  35.406  1.00  0.00    -0.344 N 
ATOM     47 2H11 UNL     1     -13.061  15.129  36.022  1.00  0.00     0.176 HD
ATOM     48 1H11 UNL     1     -11.447  14.447  35.657  1.00  0.00     0.176 HD
ENDBRANCH  44  46
ENDBRANCH  41  43
ENDBRANCH  37  39
ENDBRANCH  35  36
ENDBRANCH  34  35
ENDBRANCH  33  34
BRANCH  33  49
HETATM   49  C21 UNL     1     -10.200  16.244  30.117  1.00  0.00     0.164 C 
BRANCH  49  50
HETATM   50  C22 UNL     1      -9.580  15.956  31.434  1.00  0.00    -0.040 A 
HETATM   51  C23 UNL     1      -9.552  14.745  32.070  1.00  0.00     0.009 A 
HETATM   52  C24 UNL     1      -8.985  14.544  33.329  1.00  0.00     0.001 A 
HETATM   53  C25 UNL     1      -8.403  15.591  34.002  1.00  0.00     0.000 A 
HETATM   54  C26 UNL     1      -8.423  16.826  33.376  1.00  0.00     0.001 A 
HETATM   55  C27 UNL     1      -8.970  17.029  32.154  1.00  0.00     0.009 A 
ENDBRANCH  49  50
ENDBRANCH  33  49
ENDBRANCH  30  31
ENDBRANCH  29  30
ENDBRANCH   1  29
TORSDOF 27
ENDMDL
