MODEL 1
REMARK VINA RESULT: -6.977653415      0.000      0.000
REMARK  2 active torsions:
REMARK  status: ('A' for Active; 'I' for Inactive)
REMARK    1  A    between atoms: C2_2  and  C5_5 
REMARK    2  A    between atoms: C5_5  and  N1_6 
REMARK       I    between atoms: N2_9  and  C6_11 
REMARK       I    between atoms: C6_11  and  N3_13 
ROOT
HETATM    1  C5  UNL     1      -1.472  68.220  64.659  1.00  0.00     0.086 C 
HETATM    2  N2  UNL     1      -0.167  67.988  64.578  1.00  0.00    -0.298 N 
ATOM      3  H2  UNL     1       0.356  67.744  65.419  1.00  0.00     0.172 HD
HETATM    4  C6  UNL     1       0.539  68.082  63.276  1.00  0.00     0.323 C 
HETATM    5  O1  UNL     1      -0.201  68.393  62.310  1.00  0.00    -0.247 OA
HETATM    6  N3  UNL     1       1.914  67.841  63.155  1.00  0.00    -0.331 N 
HETATM    7  C7  UNL     1       2.766  67.477  64.257  1.00  0.00     0.155 C 
HETATM    8  C8  UNL     1       4.064  66.851  63.771  1.00  0.00     0.256 C 
HETATM    9  N4  UNL     1       4.713  67.602  62.739  1.00  0.00    -0.072 N 
HETATM   10  C9  UNL     1       5.110  66.705  61.661  1.00  0.00     0.272 C 
HETATM   11  C10 UNL     1       5.931  68.271  63.182  1.00  0.00     0.272 C 
HETATM   12  C11 UNL     1       3.884  68.631  62.147  1.00  0.00     0.256 C 
HETATM   13  C12 UNL     1       2.530  67.961  61.858  1.00  0.00     0.155 C 
ENDROOT
BRANCH   1  14
HETATM   14  C2  UNL     1      -1.509  67.859  66.454  1.00  0.00     0.007 C 
HETATM   15  C1  UNL     1      -0.580  66.749  66.555  1.00  0.00     0.022 C 
HETATM   16  C3  UNL     1      -0.931  69.150  66.877  1.00  0.00     0.022 C 
HETATM   17  C4  UNL     1      -2.934  67.616  66.566  1.00  0.00     0.022 C 
ENDBRANCH   1  14
BRANCH   1  18
HETATM   18  N1  UNL     1      -2.679  68.433  64.734  1.00  0.00    -0.388 N 
ATOM     19  H12 UNL     1      -3.681  68.610  64.796  1.00  0.00     0.157 HD
ATOM     20  H11 UNL     1      -2.461  69.426  64.645  1.00  0.00     0.157 HD
ENDBRANCH   1  18
TORSDOF 2
ENDMDL
MODEL 2
REMARK VINA RESULT: -6.927751347      0.112      1.037
REMARK  2 active torsions:
REMARK  status: ('A' for Active; 'I' for Inactive)
REMARK    1  A    between atoms: C2_2  and  C5_5 
REMARK    2  A    between atoms: C5_5  and  N1_6 
REMARK       I    between atoms: N2_9  and  C6_11 
REMARK       I    between atoms: C6_11  and  N3_13 
ROOT
HETATM    1  C5  UNL     1      -1.415  68.204  64.706  1.00  0.00     0.086 C 
HETATM    2  N2  UNL     1      -0.107  67.996  64.602  1.00  0.00    -0.298 N 
ATOM      3  H2  UNL     1       0.440  67.791  65.437  1.00  0.00     0.172 HD
HETATM    4  C6  UNL     1       0.565  68.061  63.280  1.00  0.00     0.323 C 
HETATM    5  O1  UNL     1      -0.204  68.324  62.323  1.00  0.00    -0.247 OA
HETATM    6  N3  UNL     1       1.942  67.844  63.134  1.00  0.00    -0.331 N 
HETATM    7  C7  UNL     1       2.827  67.534  64.226  1.00  0.00     0.155 C 
HETATM    8  C8  UNL     1       4.126  66.919  63.730  1.00  0.00     0.256 C 
HETATM    9  N4  UNL     1       4.734  67.647  62.659  1.00  0.00    -0.072 N 
HETATM   10  C9  UNL     1       5.125  66.723  61.601  1.00  0.00     0.272 C 
HETATM   11  C10 UNL     1       5.949  68.355  63.049  1.00  0.00     0.272 C 
HETATM   12  C11 UNL     1       3.870  68.639  62.053  1.00  0.00     0.256 C 
HETATM   13  C12 UNL     1       2.524  67.932  61.819  1.00  0.00     0.155 C 
ENDROOT
BRANCH   1  14
HETATM   14  C2  UNL     1      -1.402  67.903  66.512  1.00  0.00     0.007 C 
HETATM   15  C1  UNL     1      -2.776  67.510  66.760  1.00  0.00     0.022 C 
HETATM   16  C3  UNL     1      -0.463  66.764  66.467  1.00  0.00     0.022 C 
HETATM   17  C4  UNL     1      -0.946  69.219  66.918  1.00  0.00     0.022 C 
ENDBRANCH   1  14
BRANCH   1  18
HETATM   18  N1  UNL     1      -2.624  68.395  64.803  1.00  0.00    -0.388 N 
ATOM     19  H12 UNL     1      -3.628  68.554  64.884  1.00  0.00     0.157 HD
ATOM     20  H11 UNL     1      -2.412  69.389  64.890  1.00  0.00     0.157 HD
ENDBRANCH   1  18
TORSDOF 2
ENDMDL
MODEL 3
REMARK VINA RESULT: -6.597167678      2.146      6.577
REMARK  2 active torsions:
REMARK  status: ('A' for Active; 'I' for Inactive)
REMARK    1  A    between atoms: C2_2  and  C5_5 
REMARK    2  A    between atoms: C5_5  and  N1_6 
REMARK       I    between atoms: N2_9  and  C6_11 
REMARK       I    between atoms: C6_11  and  N3_13 
ROOT
HETATM    1  C5  UNL     1       4.747  68.910  64.121  1.00  0.00     0.086 C 
HETATM    2  N2  UNL     1       3.546  68.412  64.390  1.00  0.00    -0.298 N 
ATOM      3  H2  UNL     1       3.063  67.851  63.689  1.00  0.00     0.172 HD
HETATM    4  C6  UNL     1       2.899  68.665  65.701  1.00  0.00     0.323 C 
HETATM    5  O1  UNL     1       3.581  69.369  66.485  1.00  0.00    -0.247 OA
HETATM    6  N3  UNL     1       1.634  68.152  66.018  1.00  0.00    -0.331 N 
HETATM    7  C7  UNL     1       0.851  67.338  65.127  1.00  0.00     0.155 C 
HETATM    8  C8  UNL     1      -0.228  66.572  65.879  1.00  0.00     0.256 C 
HETATM    9  N4  UNL     1      -0.996  67.387  66.770  1.00  0.00    -0.072 N 
HETATM   10  C9  UNL     1      -1.108  66.723  68.062  1.00  0.00     0.272 C 
HETATM   11  C10 UNL     1      -2.361  67.625  66.315  1.00  0.00     0.272 C 
HETATM   12  C11 UNL     1      -0.423  68.694  67.016  1.00  0.00     0.256 C 
HETATM   13  C12 UNL     1       1.067  68.449  67.310  1.00  0.00     0.155 C 
ENDROOT
BRANCH   1  14
HETATM   14  C2  UNL     1       4.792  68.129  62.466  1.00  0.00     0.007 C 
HETATM   15  C1  UNL     1       3.463  68.420  61.962  1.00  0.00     0.022 C 
HETATM   16  C3  UNL     1       5.837  69.013  61.912  1.00  0.00     0.022 C 
HETATM   17  C4  UNL     1       5.118  66.785  62.902  1.00  0.00     0.022 C 
ENDBRANCH   1  14
BRANCH   1  18
HETATM   18  N1  UNL     1       5.859  69.370  63.873  1.00  0.00    -0.388 N 
ATOM     19  H12 UNL     1       6.782  69.751  63.667  1.00  0.00     0.157 HD
ATOM     20  H11 UNL     1       5.729  69.991  64.671  1.00  0.00     0.157 HD
ENDBRANCH   1  18
TORSDOF 2
ENDMDL
MODEL 4
REMARK VINA RESULT: -6.506093883      5.723      7.357
REMARK  2 active torsions:
REMARK  status: ('A' for Active; 'I' for Inactive)
REMARK    1  A    between atoms: C2_2  and  C5_5 
REMARK    2  A    between atoms: C5_5  and  N1_6 
REMARK       I    between atoms: N2_9  and  C6_11 
REMARK       I    between atoms: C6_11  and  N3_13 
ROOT
HETATM    1  C5  UNL     1       1.068  67.250  67.861  1.00  0.00     0.086 C 
HETATM    2  N2  UNL     1       1.706  66.103  68.063  1.00  0.00    -0.298 N 
ATOM      3  H2  UNL     1       2.349  65.751  67.354  1.00  0.00     0.172 HD
HETATM    4  C6  UNL     1       1.492  65.328  69.310  1.00  0.00     0.323 C 
HETATM    5  O1  UNL     1       0.678  65.852  70.109  1.00  0.00    -0.247 OA
HETATM    6  N3  UNL     1       2.152  64.116  69.556  1.00  0.00    -0.331 N 
HETATM    7  C7  UNL     1       3.091  63.514  68.647  1.00  0.00     0.155 C 
HETATM    8  C8  UNL     1       3.962  62.484  69.351  1.00  0.00     0.256 C 
HETATM    9  N4  UNL     1       3.221  61.552  70.145  1.00  0.00    -0.072 N 
HETATM   10  C9  UNL     1       3.848  61.422  71.455  1.00  0.00     0.272 C 
HETATM   11  C10 UNL     1       3.177  60.208  69.581  1.00  0.00     0.272 C 
HETATM   12  C11 UNL     1       1.843  61.935  70.374  1.00  0.00     0.256 C 
HETATM   13  C12 UNL     1       1.884  63.416  70.787  1.00  0.00     0.155 C 
ENDROOT
BRANCH   1  14
HETATM   14  C2  UNL     1       1.895  67.522  66.251  1.00  0.00     0.007 C 
HETATM   15  C1  UNL     1       2.696  66.320  66.119  1.00  0.00     0.022 C 
HETATM   16  C3  UNL     1       0.660  67.497  65.442  1.00  0.00     0.022 C 
HETATM   17  C4  UNL     1       2.536  68.781  66.580  1.00  0.00     0.022 C 
ENDBRANCH   1  14
BRANCH   1  18
HETATM   18  N1  UNL     1       0.479  68.311  67.674  1.00  0.00    -0.388 N 
ATOM     19  H12 UNL     1      -0.011  69.192  67.520  1.00  0.00     0.157 HD
ATOM     20  H11 UNL     1       1.391  68.734  67.507  1.00  0.00     0.157 HD
ENDBRANCH   1  18
TORSDOF 2
ENDMDL
MODEL 5
REMARK VINA RESULT: -6.446187976      2.450      6.639
REMARK  2 active torsions:
REMARK  status: ('A' for Active; 'I' for Inactive)
REMARK    1  A    between atoms: C2_2  and  C5_5 
REMARK    2  A    between atoms: C5_5  and  N1_6 
REMARK       I    between atoms: N2_9  and  C6_11 
REMARK       I    between atoms: C6_11  and  N3_13 
ROOT
HETATM    1  C5  UNL     1       4.618  69.200  65.659  1.00  0.00     0.086 C 
HETATM    2  N2  UNL     1       3.408  68.669  65.529  1.00  0.00    -0.298 N 
ATOM      3  H2  UNL     1       3.211  68.048  64.745  1.00  0.00     0.172 HD
HETATM    4  C6  UNL     1       2.340  68.971  66.514  1.00  0.00     0.323 C 
HETATM    5  O1  UNL     1       2.693  69.748  67.435  1.00  0.00    -0.247 OA
HETATM    6  N3  UNL     1       1.054  68.425  66.408  1.00  0.00    -0.331 N 
HETATM    7  C7  UNL     1       0.646  67.527  65.360  1.00  0.00     0.155 C 
HETATM    8  C8  UNL     1      -0.612  66.762  65.742  1.00  0.00     0.256 C 
HETATM    9  N4  UNL     1      -1.658  67.596  66.254  1.00  0.00    -0.072 N 
HETATM   10  C9  UNL     1      -2.201  67.004  67.470  1.00  0.00     0.272 C 
HETATM   11  C10 UNL     1      -2.783  67.748  65.339  1.00  0.00     0.272 C 
HETATM   12  C11 UNL     1      -1.232  68.937  66.592  1.00  0.00     0.256 C 
HETATM   13  C12 UNL     1       0.067  68.772  67.400  1.00  0.00     0.155 C 
ENDROOT
BRANCH   1  14
HETATM   14  C2  UNL     1       5.251  68.326  64.180  1.00  0.00     0.007 C 
HETATM   15  C1  UNL     1       4.024  67.979  63.490  1.00  0.00     0.022 C 
HETATM   16  C3  UNL     1       5.941  69.495  63.600  1.00  0.00     0.022 C 
HETATM   17  C4  UNL     1       6.001  67.298  64.877  1.00  0.00     0.022 C 
ENDBRANCH   1  14
BRANCH   1  18
HETATM   18  N1  UNL     1       5.737  69.690  65.780  1.00  0.00    -0.388 N 
ATOM     19  H12 UNL     1       6.667  70.098  65.880  1.00  0.00     0.157 HD
ATOM     20  H11 UNL     1       5.549  70.213  64.924  1.00  0.00     0.157 HD
ENDBRANCH   1  18
TORSDOF 2
ENDMDL
