MODEL 1
REMARK VINA RESULT: -7.863144461      0.000      0.000
REMARK  17 active torsions:
REMARK  status: ('A' for Active; 'I' for Inactive)
REMARK    1  A    between atoms: O1_2  and  C2_3 
REMARK    2  A    between atoms: C2_3  and  C3_4 
REMARK    3  A    between atoms: C3_4  and  C4_5 
REMARK    4  A    between atoms: C5_6  and  C6_7 
REMARK    5  A    between atoms: C5_6  and  C7_9 
REMARK    6  A    between atoms: C7_9  and  O3_10 
REMARK    7  A    between atoms: C7_9  and  O4_12 
REMARK    8  A    between atoms: O4_12  and  C8_13 
REMARK    9  A    between atoms: C8_13  and  C9_14 
REMARK   10  A    between atoms: C13_18  and  O5_19 
REMARK   11  A    between atoms: C14_21  and  O6_22 
REMARK   12  A    between atoms: C15_24  and  O7_25 
REMARK   13  A    between atoms: C16_27  and  O8_28 
REMARK   14  A    between atoms: C17_30  and  C18_31 
REMARK   15  A    between atoms: C18_31  and  O9_32 
REMARK   16  A    between atoms: C19_35  and  O11_36 
REMARK   17  A    between atoms: C24_42  and  O12_43 
ROOT
HETATM    1  C9  UNL     1      -6.980  27.751  24.284  1.00  0.00     0.043 C 
HETATM    2  C10 UNL     1      -7.188  26.435  24.978  1.00  0.00     0.024 C 
HETATM    3  C11 UNL     1      -8.210  28.232  23.603  1.00  0.00     0.029 C 
HETATM    4  C12 UNL     1      -9.499  27.785  24.275  1.00  0.00     0.014 C 
HETATM    5  C13 UNL     1      -8.242  27.695  22.185  1.00  0.00     0.154 C 
HETATM    6  C14 UNL     1      -7.147  28.332  21.395  1.00  0.00     0.190 C 
HETATM    7  C15 UNL     1      -5.871  28.516  22.131  1.00  0.00     0.171 C 
HETATM    8  C16 UNL     1      -4.752  27.877  21.283  1.00  0.00     0.192 C 
HETATM    9  C17 UNL     1      -4.688  26.493  21.873  1.00  0.00     0.180 C 
HETATM   10  O10 UNL     1      -5.763  26.341  22.732  1.00  0.00    -0.341 OA
HETATM   11  C19 UNL     1      -5.794  27.598  23.363  1.00  0.00     0.209 C 
ENDROOT
BRANCH   1  12
HETATM   12  C8  UNL     1      -6.516  28.764  25.350  1.00  0.00     0.186 C 
BRANCH  12  13
HETATM   13  O4  UNL     1      -6.111  28.163  26.517  1.00  0.00    -0.356 OA
BRANCH  13  14
HETATM   14  C7  UNL     1      -5.781  29.128  27.454  1.00  0.00     0.294 C 
BRANCH  14  15
HETATM   15  C5  UNL     1      -4.277  29.332  27.520  1.00  0.00     0.030 C 
HETATM   16  C4  UNL     1      -3.532  28.260  27.766  1.00  0.00    -0.009 C 
BRANCH  16  17
HETATM   17  C3  UNL     1      -3.983  26.916  28.024  1.00  0.00     0.068 C 
BRANCH  17  18
HETATM   18  C2  UNL     1      -3.092  26.113  28.982  1.00  0.00     0.089 C 
HETATM   19  C20 UNL     1      -3.613  26.350  30.364  1.00  0.00     0.041 C 
HETATM   20  C21 UNL     1      -2.718  25.750  31.393  1.00  0.00     0.003 C 
HETATM   21  C22 UNL     1      -1.415  26.523  31.399  1.00  0.00     0.003 C 
HETATM   22  C23 UNL     1      -1.017  27.092  30.088  1.00  0.00     0.035 C 
HETATM   23  C24 UNL     1      -1.650  26.557  28.872  1.00  0.00     0.153 C 
BRANCH  18  24
HETATM   24  O1  UNL     1      -3.087  24.776  28.676  1.00  0.00    -0.382 OA
HETATM   25  C1  UNL     1      -4.273  24.111  28.615  1.00  0.00     0.202 C 
ENDBRANCH  18  24
BRANCH  23  26
HETATM   26  O12 UNL     1      -0.880  25.407  28.451  1.00  0.00    -0.393 OA
ATOM     27  H12 UNL     1      -0.435  25.647  27.646  1.00  0.00     0.210 HD
ENDBRANCH  23  26
ENDBRANCH  17  18
ENDBRANCH  16  17
BRANCH  15  28
HETATM   28  C6  UNL     1      -3.731  30.612  27.277  1.00  0.00     0.270 C 
HETATM   29  O2  UNL     1      -4.011  31.587  26.465  1.00  0.00    -0.302 OA
ENDBRANCH  15  28
ENDBRANCH  14  15
BRANCH  14  30
HETATM   30  O3  UNL     1      -6.399  30.337  27.073  1.00  0.00    -0.367 OA
ATOM     31  H3  UNL     1      -7.204  30.447  27.566  1.00  0.00     0.213 HD
ENDBRANCH  14  30
ENDBRANCH  13  14
ENDBRANCH  12  13
ENDBRANCH   1  12
BRANCH  11  32
HETATM   32  O11 UNL     1      -4.581  27.808  23.961  1.00  0.00    -0.362 OA
ATOM     33  H11 UNL     1      -3.839  27.466  23.476  1.00  0.00     0.213 HD
ENDBRANCH  11  32
BRANCH   5  34
HETATM   34  O5  UNL     1      -9.497  28.037  21.612  1.00  0.00    -0.392 OA
ATOM     35  H5  UNL     1      -9.633  28.969  21.733  1.00  0.00     0.210 HD
ENDBRANCH   5  34
BRANCH   7  36
HETATM   36  O7  UNL     1      -5.569  29.806  22.480  1.00  0.00    -0.379 OA
ATOM     37  H7  UNL     1      -4.821  30.188  22.034  1.00  0.00     0.211 HD
ENDBRANCH   7  36
BRANCH   6  38
HETATM   38  O6  UNL     1      -7.574  29.572  20.893  1.00  0.00    -0.390 OA
ATOM     39  H6  UNL     1      -7.173  29.736  20.047  1.00  0.00     0.210 HD
ENDBRANCH   6  38
BRANCH   8  40
HETATM   40  O8  UNL     1      -5.036  27.940  19.953  1.00  0.00    -0.390 OA
ATOM     41  H8  UNL     1      -4.347  27.544  19.431  1.00  0.00     0.210 HD
ENDBRANCH   8  40
BRANCH   9  42
HETATM   42  C18 UNL     1      -4.485  25.414  20.883  1.00  0.00     0.199 C 
BRANCH  42  43
HETATM   43  O9  UNL     1      -3.203  25.272  20.388  1.00  0.00    -0.398 OA
ATOM     44  H9  UNL     1      -3.043  24.508  19.846  1.00  0.00     0.209 HD
ENDBRANCH  42  43
ENDBRANCH   9  42
TORSDOF 17
ENDMDL
MODEL 2
REMARK VINA RESULT: -7.620610760      1.849      3.928
REMARK  17 active torsions:
REMARK  status: ('A' for Active; 'I' for Inactive)
REMARK    1  A    between atoms: O1_2  and  C2_3 
REMARK    2  A    between atoms: C2_3  and  C3_4 
REMARK    3  A    between atoms: C3_4  and  C4_5 
REMARK    4  A    between atoms: C5_6  and  C6_7 
REMARK    5  A    between atoms: C5_6  and  C7_9 
REMARK    6  A    between atoms: C7_9  and  O3_10 
REMARK    7  A    between atoms: C7_9  and  O4_12 
REMARK    8  A    between atoms: O4_12  and  C8_13 
REMARK    9  A    between atoms: C8_13  and  C9_14 
REMARK   10  A    between atoms: C13_18  and  O5_19 
REMARK   11  A    between atoms: C14_21  and  O6_22 
REMARK   12  A    between atoms: C15_24  and  O7_25 
REMARK   13  A    between atoms: C16_27  and  O8_28 
REMARK   14  A    between atoms: C17_30  and  C18_31 
REMARK   15  A    between atoms: C18_31  and  O9_32 
REMARK   16  A    between atoms: C19_35  and  O11_36 
REMARK   17  A    between atoms: C24_42  and  O12_43 
ROOT
HETATM    1  C9  UNL     1      -7.052  28.397  23.615  1.00  0.00     0.043 C 
HETATM    2  C10 UNL     1      -5.927  29.388  23.541  1.00  0.00     0.024 C 
HETATM    3  C11 UNL     1      -7.436  27.877  22.277  1.00  0.00     0.029 C 
HETATM    4  C12 UNL     1      -6.286  27.832  21.282  1.00  0.00     0.014 C 
HETATM    5  C13 UNL     1      -8.505  28.771  21.678  1.00  0.00     0.154 C 
HETATM    6  C14 UNL     1      -9.762  28.629  22.470  1.00  0.00     0.190 C 
HETATM    7  C15 UNL     1      -9.569  28.522  23.937  1.00  0.00     0.171 C 
HETATM    8  C16 UNL     1     -10.454  29.595  24.601  1.00  0.00     0.192 C 
HETATM    9  C17 UNL     1      -9.483  30.738  24.735  1.00  0.00     0.180 C 
HETATM   10  O10 UNL     1      -8.335  30.411  24.036  1.00  0.00    -0.341 OA
HETATM   11  C19 UNL     1      -8.188  29.051  24.363  1.00  0.00     0.209 C 
ENDROOT
BRANCH   1  12
HETATM   12  C8  UNL     1      -6.592  27.247  24.534  1.00  0.00     0.186 C 
BRANCH  12  13
HETATM   13  O4  UNL     1      -5.348  27.463  25.075  1.00  0.00    -0.356 OA
BRANCH  13  14
HETATM   14  C7  UNL     1      -5.324  27.028  26.390  1.00  0.00     0.294 C 
BRANCH  14  15
HETATM   15  C5  UNL     1      -4.837  28.127  27.319  1.00  0.00     0.030 C 
HETATM   16  C4  UNL     1      -3.610  28.002  27.812  1.00  0.00    -0.009 C 
BRANCH  16  17
HETATM   17  C3  UNL     1      -2.686  26.916  27.604  1.00  0.00     0.068 C 
BRANCH  17  18
HETATM   18  C2  UNL     1      -2.283  26.164  28.881  1.00  0.00     0.089 C 
HETATM   19  C20 UNL     1      -3.122  26.710  29.992  1.00  0.00     0.041 C 
HETATM   20  C21 UNL     1      -2.695  26.168  31.312  1.00  0.00     0.003 C 
HETATM   21  C22 UNL     1      -1.324  26.725  31.635  1.00  0.00     0.003 C 
HETATM   22  C23 UNL     1      -0.462  26.994  30.457  1.00  0.00     0.035 C 
HETATM   23  C24 UNL     1      -0.812  26.360  29.176  1.00  0.00     0.153 C 
BRANCH  18  24
HETATM   24  O1  UNL     1      -2.452  24.810  28.750  1.00  0.00    -0.382 OA
HETATM   25  C1  UNL     1      -3.716  24.308  28.681  1.00  0.00     0.202 C 
ENDBRANCH  18  24
BRANCH  23  26
HETATM   26  O12 UNL     1      -0.194  25.052  29.155  1.00  0.00    -0.393 OA
ATOM     27  H12 UNL     1      -0.292  24.681  30.024  1.00  0.00     0.210 HD
ENDBRANCH  23  26
ENDBRANCH  17  18
ENDBRANCH  16  17
BRANCH  15  28
HETATM   28  C6  UNL     1      -5.667  29.239  27.584  1.00  0.00     0.270 C 
HETATM   29  O2  UNL     1      -5.934  30.350  26.965  1.00  0.00    -0.302 OA
ENDBRANCH  15  28
ENDBRANCH  14  15
BRANCH  14  30
HETATM   30  O3  UNL     1      -6.636  26.658  26.752  1.00  0.00    -0.367 OA
ATOM     31  H3  UNL     1      -6.609  25.850  27.249  1.00  0.00     0.213 HD
ENDBRANCH  14  30
ENDBRANCH  13  14
ENDBRANCH  12  13
ENDBRANCH   1  12
BRANCH  11  32
HETATM   32  O11 UNL     1      -8.105  28.943  25.726  1.00  0.00    -0.362 OA
ATOM     33  H11 UNL     1      -8.937  29.022  26.177  1.00  0.00     0.213 HD
ENDBRANCH  11  32
BRANCH   5  34
HETATM   34  O5  UNL     1      -8.738  28.346  20.342  1.00  0.00    -0.392 OA
ATOM     35  H5  UNL     1      -9.644  28.529  20.128  1.00  0.00     0.210 HD
ENDBRANCH   5  34
BRANCH   7  36
HETATM   36  O7  UNL     1      -9.788  27.280  24.474  1.00  0.00    -0.379 OA
ATOM     37  H7  UNL     1      -9.761  27.233  25.423  1.00  0.00     0.211 HD
ENDBRANCH   7  36
BRANCH   6  38
HETATM   38  O6  UNL     1     -10.494  27.519  22.017  1.00  0.00    -0.390 OA
ATOM     39  H6  UNL     1     -10.718  26.956  22.749  1.00  0.00     0.210 HD
ENDBRANCH   6  38
BRANCH   8  40
HETATM   40  O8  UNL     1     -11.568  29.850  23.862  1.00  0.00    -0.390 OA
ATOM     41  H8  UNL     1     -12.206  29.150  23.941  1.00  0.00     0.210 HD
ENDBRANCH   8  40
BRANCH   9  42
HETATM   42  C18 UNL     1     -10.062  32.069  24.455  1.00  0.00     0.199 C 
BRANCH  42  43
HETATM   43  O9  UNL     1     -10.314  32.360  23.128  1.00  0.00    -0.398 OA
ATOM     44  H9  UNL     1     -11.108  32.849  22.947  1.00  0.00     0.209 HD
ENDBRANCH  42  43
ENDBRANCH   9  42
TORSDOF 17
ENDMDL
MODEL 3
REMARK VINA RESULT: -7.560100723      0.970      1.221
REMARK  17 active torsions:
REMARK  status: ('A' for Active; 'I' for Inactive)
REMARK    1  A    between atoms: O1_2  and  C2_3 
REMARK    2  A    between atoms: C2_3  and  C3_4 
REMARK    3  A    between atoms: C3_4  and  C4_5 
REMARK    4  A    between atoms: C5_6  and  C6_7 
REMARK    5  A    between atoms: C5_6  and  C7_9 
REMARK    6  A    between atoms: C7_9  and  O3_10 
REMARK    7  A    between atoms: C7_9  and  O4_12 
REMARK    8  A    between atoms: O4_12  and  C8_13 
REMARK    9  A    between atoms: C8_13  and  C9_14 
REMARK   10  A    between atoms: C13_18  and  O5_19 
REMARK   11  A    between atoms: C14_21  and  O6_22 
REMARK   12  A    between atoms: C15_24  and  O7_25 
REMARK   13  A    between atoms: C16_27  and  O8_28 
REMARK   14  A    between atoms: C17_30  and  C18_31 
REMARK   15  A    between atoms: C18_31  and  O9_32 
REMARK   16  A    between atoms: C19_35  and  O11_36 
REMARK   17  A    between atoms: C24_42  and  O12_43 
ROOT
HETATM    1  C9  UNL     1      -7.237  28.241  24.142  1.00  0.00     0.043 C 
HETATM    2  C10 UNL     1      -7.363  27.041  25.036  1.00  0.00     0.024 C 
HETATM    3  C11 UNL     1      -8.513  28.570  23.454  1.00  0.00     0.029 C 
HETATM    4  C12 UNL     1      -9.754  28.186  24.245  1.00  0.00     0.014 C 
HETATM    5  C13 UNL     1      -8.580  27.821  22.136  1.00  0.00     0.154 C 
HETATM    6  C14 UNL     1      -7.546  28.367  21.209  1.00  0.00     0.190 C 
HETATM    7  C15 UNL     1      -6.249  28.705  21.848  1.00  0.00     0.171 C 
HETATM    8  C16 UNL     1      -5.141  27.984  21.056  1.00  0.00     0.192 C 
HETATM    9  C17 UNL     1      -4.996  26.710  21.845  1.00  0.00     0.180 C 
HETATM   10  O10 UNL     1      -6.027  26.654  22.766  1.00  0.00    -0.341 OA
HETATM   11  C19 UNL     1      -6.085  27.990  23.200  1.00  0.00     0.209 C 
ENDROOT
BRANCH   1  12
HETATM   12  C8  UNL     1      -6.772  29.422  25.019  1.00  0.00     0.186 C 
BRANCH  12  13
HETATM   13  O4  UNL     1      -6.591  29.069  26.334  1.00  0.00    -0.356 OA
BRANCH  13  14
HETATM   14  C7  UNL     1      -6.211  30.179  27.071  1.00  0.00     0.294 C 
BRANCH  14  15
HETATM   15  C5  UNL     1      -4.702  30.236  27.230  1.00  0.00     0.030 C 
HETATM   16  C4  UNL     1      -4.096  29.128  27.642  1.00  0.00    -0.009 C 
BRANCH  16  17
HETATM   17  C3  UNL     1      -4.706  27.873  28.001  1.00  0.00     0.068 C 
BRANCH  17  18
HETATM   18  C2  UNL     1      -3.716  26.725  28.245  1.00  0.00     0.089 C 
HETATM   19  C20 UNL     1      -4.488  25.612  28.879  1.00  0.00     0.041 C 
HETATM   20  C21 UNL     1      -3.589  24.506  29.314  1.00  0.00     0.003 C 
HETATM   21  C22 UNL     1      -2.738  25.008  30.462  1.00  0.00     0.003 C 
HETATM   22  C23 UNL     1      -2.420  26.457  30.421  1.00  0.00     0.035 C 
HETATM   23  C24 UNL     1      -2.587  27.173  29.147  1.00  0.00     0.153 C 
BRANCH  18  24
HETATM   24  O1  UNL     1      -3.115  26.314  27.084  1.00  0.00    -0.382 OA
HETATM   25  C1  UNL     1      -3.886  26.104  25.982  1.00  0.00     0.202 C 
ENDBRANCH  18  24
BRANCH  23  26
HETATM   26  O12 UNL     1      -1.358  27.024  28.399  1.00  0.00    -0.393 OA
ATOM     27  H12 UNL     1      -0.736  26.583  28.966  1.00  0.00     0.210 HD
ENDBRANCH  23  26
ENDBRANCH  17  18
ENDBRANCH  16  17
BRANCH  15  28
HETATM   28  C6  UNL     1      -4.006  31.420  26.901  1.00  0.00     0.270 C 
HETATM   29  O2  UNL     1      -4.047  32.259  25.909  1.00  0.00    -0.302 OA
ENDBRANCH  15  28
ENDBRANCH  14  15
BRANCH  14  30
HETATM   30  O3  UNL     1      -6.652  31.330  26.386  1.00  0.00    -0.367 OA
ATOM     31  H3  UNL     1      -6.984  31.961  27.013  1.00  0.00     0.213 HD
ENDBRANCH  14  30
ENDBRANCH  13  14
ENDBRANCH  12  13
ENDBRANCH   1  12
BRANCH  11  32
HETATM   32  O11 UNL     1      -4.858  28.332  23.702  1.00  0.00    -0.362 OA
ATOM     33  H11 UNL     1      -4.235  27.616  23.738  1.00  0.00     0.213 HD
ENDBRANCH  11  32
BRANCH   5  34
HETATM   34  O5  UNL     1      -9.871  28.027  21.578  1.00  0.00    -0.392 OA
ATOM     35  H5  UNL     1     -10.013  27.366  20.910  1.00  0.00     0.210 HD
ENDBRANCH   5  34
BRANCH   7  36
HETATM   36  O7  UNL     1      -5.987  30.043  21.983  1.00  0.00    -0.379 OA
ATOM     37  H7  UNL     1      -5.194  30.260  22.459  1.00  0.00     0.211 HD
ENDBRANCH   7  36
BRANCH   6  38
HETATM   38  O6  UNL     1      -8.044  29.500  20.545  1.00  0.00    -0.390 OA
ATOM     39  H6  UNL     1      -7.328  30.075  20.300  1.00  0.00     0.210 HD
ENDBRANCH   6  38
BRANCH   8  40
HETATM   40  O8  UNL     1      -5.481  27.832  19.746  1.00  0.00    -0.390 OA
ATOM     41  H8  UNL     1      -4.730  27.590  19.217  1.00  0.00     0.210 HD
ENDBRANCH   8  40
BRANCH   9  42
HETATM   42  C18 UNL     1      -4.788  25.500  21.022  1.00  0.00     0.199 C 
BRANCH  42  43
HETATM   43  O9  UNL     1      -3.739  25.543  20.124  1.00  0.00    -0.398 OA
ATOM     44  H9  UNL     1      -3.969  25.488  19.204  1.00  0.00     0.209 HD
ENDBRANCH  42  43
ENDBRANCH   9  42
TORSDOF 17
ENDMDL
MODEL 4
REMARK VINA RESULT: -7.558302920      2.030      3.330
REMARK  17 active torsions:
REMARK  status: ('A' for Active; 'I' for Inactive)
REMARK    1  A    between atoms: O1_2  and  C2_3 
REMARK    2  A    between atoms: C2_3  and  C3_4 
REMARK    3  A    between atoms: C3_4  and  C4_5 
REMARK    4  A    between atoms: C5_6  and  C6_7 
REMARK    5  A    between atoms: C5_6  and  C7_9 
REMARK    6  A    between atoms: C7_9  and  O3_10 
REMARK    7  A    between atoms: C7_9  and  O4_12 
REMARK    8  A    between atoms: O4_12  and  C8_13 
REMARK    9  A    between atoms: C8_13  and  C9_14 
REMARK   10  A    between atoms: C13_18  and  O5_19 
REMARK   11  A    between atoms: C14_21  and  O6_22 
REMARK   12  A    between atoms: C15_24  and  O7_25 
REMARK   13  A    between atoms: C16_27  and  O8_28 
REMARK   14  A    between atoms: C17_30  and  C18_31 
REMARK   15  A    between atoms: C18_31  and  O9_32 
REMARK   16  A    between atoms: C19_35  and  O11_36 
REMARK   17  A    between atoms: C24_42  and  O12_43 
ROOT
HETATM    1  C9  UNL     1      -6.388  28.597  22.995  1.00  0.00     0.043 C 
HETATM    2  C10 UNL     1      -5.098  28.129  22.385  1.00  0.00     0.024 C 
HETATM    3  C11 UNL     1      -7.552  28.373  22.098  1.00  0.00     0.029 C 
HETATM    4  C12 UNL     1      -7.396  27.171  21.179  1.00  0.00     0.014 C 
HETATM    5  C13 UNL     1      -7.742  29.587  21.209  1.00  0.00     0.154 C 
HETATM    6  C14 UNL     1      -8.178  30.743  22.046  1.00  0.00     0.190 C 
HETATM    7  C15 UNL     1      -7.514  30.843  23.370  1.00  0.00     0.171 C 
HETATM    8  C16 UNL     1      -6.928  32.264  23.488  1.00  0.00     0.192 C 
HETATM    9  C17 UNL     1      -5.522  32.046  22.997  1.00  0.00     0.180 C 
HETATM   10  O10 UNL     1      -5.443  30.768  22.473  1.00  0.00    -0.341 OA
HETATM   11  C19 UNL     1      -6.203  30.038  23.404  1.00  0.00     0.209 C 
ENDROOT
BRANCH   1  12
HETATM   12  C8  UNL     1      -6.571  27.836  24.324  1.00  0.00     0.186 C 
BRANCH  12  13
HETATM   13  O4  UNL     1      -5.377  27.529  24.931  1.00  0.00    -0.356 OA
BRANCH  13  14
HETATM   14  C7  UNL     1      -5.613  26.941  26.162  1.00  0.00     0.294 C 
BRANCH  14  15
HETATM   15  C5  UNL     1      -5.322  27.911  27.294  1.00  0.00     0.030 C 
HETATM   16  C4  UNL     1      -4.135  27.814  27.883  1.00  0.00    -0.009 C 
BRANCH  16  17
HETATM   17  C3  UNL     1      -3.090  26.862  27.603  1.00  0.00     0.068 C 
BRANCH  17  18
HETATM   18  C2  UNL     1      -2.584  26.088  28.828  1.00  0.00     0.089 C 
HETATM   19  C20 UNL     1      -3.377  26.563  30.004  1.00  0.00     0.041 C 
HETATM   20  C21 UNL     1      -2.853  25.998  31.279  1.00  0.00     0.003 C 
HETATM   21  C22 UNL     1      -1.489  26.601  31.541  1.00  0.00     0.003 C 
HETATM   22  C23 UNL     1      -0.709  26.943  30.325  1.00  0.00     0.035 C 
HETATM   23  C24 UNL     1      -1.107  26.335  29.046  1.00  0.00     0.153 C 
BRANCH  18  24
HETATM   24  O1  UNL     1      -2.706  24.732  28.662  1.00  0.00    -0.382 OA
HETATM   25  C1  UNL     1      -3.946  24.172  28.711  1.00  0.00     0.202 C 
ENDBRANCH  18  24
BRANCH  23  26
HETATM   26  O12 UNL     1      -0.440  25.056  28.945  1.00  0.00    -0.393 OA
ATOM     27  H12 UNL     1       0.452  25.179  29.252  1.00  0.00     0.210 HD
ENDBRANCH  23  26
ENDBRANCH  17  18
ENDBRANCH  16  17
BRANCH  15  28
HETATM   28  C6  UNL     1      -6.280  28.888  27.645  1.00  0.00     0.270 C 
HETATM   29  O2  UNL     1      -7.252  29.481  27.019  1.00  0.00    -0.302 OA
ENDBRANCH  15  28
ENDBRANCH  14  15
BRANCH  14  30
HETATM   30  O3  UNL     1      -6.970  26.559  26.212  1.00  0.00    -0.367 OA
ATOM     31  H3  UNL     1      -7.131  26.074  27.013  1.00  0.00     0.213 HD
ENDBRANCH  14  30
ENDBRANCH  13  14
ENDBRANCH  12  13
ENDBRANCH   1  12
BRANCH  11  32
HETATM   32  O11 UNL     1      -5.645  30.208  24.642  1.00  0.00    -0.362 OA
ATOM     33  H11 UNL     1      -5.483  31.114  24.879  1.00  0.00     0.213 HD
ENDBRANCH  11  32
BRANCH   5  34
HETATM   34  O5  UNL     1      -8.755  29.283  20.258  1.00  0.00    -0.392 OA
ATOM     35  H5  UNL     1      -8.361  29.294  19.395  1.00  0.00     0.210 HD
ENDBRANCH   5  34
BRANCH   7  36
HETATM   36  O7  UNL     1      -8.295  30.525  24.450  1.00  0.00    -0.379 OA
ATOM     37  H7  UNL     1      -8.453  29.597  24.583  1.00  0.00     0.211 HD
ENDBRANCH   7  36
BRANCH   6  38
HETATM   38  O6  UNL     1      -9.570  30.708  22.228  1.00  0.00    -0.390 OA
ATOM     39  H6  UNL     1     -10.010  30.769  21.388  1.00  0.00     0.210 HD
ENDBRANCH   6  38
BRANCH   8  40
HETATM   40  O8  UNL     1      -7.666  33.168  22.786  1.00  0.00    -0.390 OA
ATOM     41  H8  UNL     1      -7.589  33.028  21.850  1.00  0.00     0.210 HD
ENDBRANCH   8  40
BRANCH   9  42
HETATM   42  C18 UNL     1      -4.995  33.134  22.147  1.00  0.00     0.199 C 
BRANCH  42  43
HETATM   43  O9  UNL     1      -3.643  33.090  21.864  1.00  0.00    -0.398 OA
ATOM     44  H9  UNL     1      -3.194  32.281  22.081  1.00  0.00     0.209 HD
ENDBRANCH  42  43
ENDBRANCH   9  42
TORSDOF 17
ENDMDL
MODEL 5
REMARK VINA RESULT: -7.528879296      1.564      3.191
REMARK  17 active torsions:
REMARK  status: ('A' for Active; 'I' for Inactive)
REMARK    1  A    between atoms: O1_2  and  C2_3 
REMARK    2  A    between atoms: C2_3  and  C3_4 
REMARK    3  A    between atoms: C3_4  and  C4_5 
REMARK    4  A    between atoms: C5_6  and  C6_7 
REMARK    5  A    between atoms: C5_6  and  C7_9 
REMARK    6  A    between atoms: C7_9  and  O3_10 
REMARK    7  A    between atoms: C7_9  and  O4_12 
REMARK    8  A    between atoms: O4_12  and  C8_13 
REMARK    9  A    between atoms: C8_13  and  C9_14 
REMARK   10  A    between atoms: C13_18  and  O5_19 
REMARK   11  A    between atoms: C14_21  and  O6_22 
REMARK   12  A    between atoms: C15_24  and  O7_25 
REMARK   13  A    between atoms: C16_27  and  O8_28 
REMARK   14  A    between atoms: C17_30  and  C18_31 
REMARK   15  A    between atoms: C18_31  and  O9_32 
REMARK   16  A    between atoms: C19_35  and  O11_36 
REMARK   17  A    between atoms: C24_42  and  O12_43 
ROOT
HETATM    1  C9  UNL     1      -5.130  27.166  23.772  1.00  0.00     0.043 C 
HETATM    2  C10 UNL     1      -3.733  27.518  24.196  1.00  0.00     0.024 C 
HETATM    3  C11 UNL     1      -5.157  26.400  22.498  1.00  0.00     0.029 C 
HETATM    4  C12 UNL     1      -3.924  25.538  22.273  1.00  0.00     0.014 C 
HETATM    5  C13 UNL     1      -5.241  27.366  21.332  1.00  0.00     0.154 C 
HETATM    6  C14 UNL     1      -6.572  28.041  21.350  1.00  0.00     0.190 C 
HETATM    7  C15 UNL     1      -7.072  28.404  22.699  1.00  0.00     0.171 C 
HETATM    8  C16 UNL     1      -7.429  29.903  22.674  1.00  0.00     0.192 C 
HETATM    9  C17 UNL     1      -6.150  30.520  23.175  1.00  0.00     0.180 C 
HETATM   10  O10 UNL     1      -5.186  29.529  23.229  1.00  0.00    -0.341 OA
HETATM   11  C19 UNL     1      -5.930  28.445  23.730  1.00  0.00     0.209 C 
ENDROOT
BRANCH   1  12
HETATM   12  C8  UNL     1      -5.764  26.346  24.914  1.00  0.00     0.186 C 
BRANCH  12  13
HETATM   13  O4  UNL     1      -4.869  26.037  25.908  1.00  0.00    -0.356 OA
BRANCH  13  14
HETATM   14  C7  UNL     1      -5.400  26.375  27.142  1.00  0.00     0.294 C 
BRANCH  14  15
HETATM   15  C5  UNL     1      -4.859  27.711  27.621  1.00  0.00     0.030 C 
HETATM   16  C4  UNL     1      -3.548  27.794  27.823  1.00  0.00    -0.009 C 
BRANCH  16  17
HETATM   17  C3  UNL     1      -2.569  26.747  27.683  1.00  0.00     0.068 C 
BRANCH  17  18
HETATM   18  C2  UNL     1      -2.142  26.087  29.001  1.00  0.00     0.089 C 
HETATM   19  C20 UNL     1      -2.996  26.674  30.080  1.00  0.00     0.041 C 
HETATM   20  C21 UNL     1      -2.552  26.227  31.430  1.00  0.00     0.003 C 
HETATM   21  C22 UNL     1      -1.197  26.842  31.713  1.00  0.00     0.003 C 
HETATM   22  C23 UNL     1      -0.345  27.065  30.519  1.00  0.00     0.035 C 
HETATM   23  C24 UNL     1      -0.677  26.343  29.280  1.00  0.00     0.153 C 
BRANCH  18  24
HETATM   24  O1  UNL     1      -2.271  24.722  28.955  1.00  0.00    -0.382 OA
HETATM   25  C1  UNL     1      -3.512  24.174  29.067  1.00  0.00     0.202 C 
ENDBRANCH  18  24
BRANCH  23  26
HETATM   26  O12 UNL     1      -0.021  25.055  29.337  1.00  0.00    -0.393 OA
ATOM     27  H12 UNL     1       0.071  24.827  30.255  1.00  0.00     0.210 HD
ENDBRANCH  23  26
ENDBRANCH  17  18
ENDBRANCH  16  17
BRANCH  15  28
HETATM   28  C6  UNL     1      -5.737  28.805  27.786  1.00  0.00     0.270 C 
HETATM   29  O2  UNL     1      -7.028  28.941  27.843  1.00  0.00    -0.302 OA
ENDBRANCH  15  28
ENDBRANCH  14  15
BRANCH  14  30
HETATM   30  O3  UNL     1      -6.801  26.461  27.006  1.00  0.00    -0.367 OA
ATOM     31  H3  UNL     1      -7.142  27.077  27.644  1.00  0.00     0.213 HD
ENDBRANCH  14  30
ENDBRANCH  13  14
ENDBRANCH  12  13
ENDBRANCH   1  12
BRANCH  11  32
HETATM   32  O11 UNL     1      -6.471  28.814  24.933  1.00  0.00    -0.362 OA
ATOM     33  H11 UNL     1      -6.380  28.165  25.620  1.00  0.00     0.213 HD
ENDBRANCH  11  32
BRANCH   5  34
HETATM   34  O5  UNL     1      -5.106  26.619  20.130  1.00  0.00    -0.392 OA
ATOM     35  H5  UNL     1      -4.253  26.810  19.758  1.00  0.00     0.210 HD
ENDBRANCH   5  34
BRANCH   7  36
HETATM   36  O7  UNL     1      -8.110  27.643  23.171  1.00  0.00    -0.379 OA
ATOM     37  H7  UNL     1      -8.922  27.710  22.683  1.00  0.00     0.211 HD
ENDBRANCH   7  36
BRANCH   6  38
HETATM   38  O6  UNL     1      -7.527  27.240  20.702  1.00  0.00    -0.390 OA
ATOM     39  H6  UNL     1      -8.302  27.753  20.505  1.00  0.00     0.210 HD
ENDBRANCH   6  38
BRANCH   8  40
HETATM   40  O8  UNL     1      -7.830  30.299  21.435  1.00  0.00    -0.390 OA
ATOM     41  H8  UNL     1      -7.494  31.162  21.220  1.00  0.00     0.210 HD
ENDBRANCH   8  40
BRANCH   9  42
HETATM   42  C18 UNL     1      -5.763  31.770  22.489  1.00  0.00     0.199 C 
BRANCH  42  43
HETATM   43  O9  UNL     1      -4.556  32.328  22.867  1.00  0.00    -0.398 OA
ATOM     44  H9  UNL     1      -3.788  31.780  22.759  1.00  0.00     0.209 HD
ENDBRANCH  42  43
ENDBRANCH   9  42
TORSDOF 17
ENDMDL
