MODEL 1
REMARK VINA RESULT: -9.147010981      0.000      0.000
REMARK  9 active torsions:
REMARK  status: ('A' for Active; 'I' for Inactive)
REMARK    1  A    between atoms: N1_1  and  C1_5 
REMARK    2  A    between atoms: C2_9  and  O1_10 
REMARK    3  A    between atoms: O1_10  and  N3_11 
REMARK       I    between atoms: N3_11  and  C3_13 
REMARK    4  A    between atoms: C3_13  and  C4_15 
REMARK    5  A    between atoms: C4_15  and  O3_16 
REMARK    6  A    between atoms: C5_19  and  C6_20 
REMARK    7  A    between atoms: C8_24  and  O7_25 
REMARK    8  A    between atoms: C8_24  and  C9_27 
REMARK    9  A    between atoms: C10_30  and  O10_31 
ROOT
HETATM    1  C4  UNL     1       5.839  10.437  50.128  1.00  0.00     0.283 C 
HETATM    2  O4  UNL     1       4.488  10.269  50.503  1.00  0.00    -0.296 OA
HETATM    3  C5  UNL     1       3.450  11.075  50.073  1.00  0.00     0.149 C 
HETATM    4  C7  UNL     1       3.670  11.864  49.039  1.00  0.00     0.068 C 
HETATM    5  C8  UNL     1       4.987  11.882  48.363  1.00  0.00     0.198 C 
HETATM    6  C10 UNL     1       6.035  11.777  49.451  1.00  0.00     0.240 C 
ENDROOT
BRANCH   1   7
HETATM    7  C3  UNL     1       6.748  10.354  51.307  1.00  0.00     0.307 C 
HETATM    8  N3  UNL     1       7.019   9.091  51.873  1.00  0.00    -0.225 N 
ATOM      9  H3  UNL     1       6.598   8.250  51.480  1.00  0.00     0.197 HD
HETATM   10  O2  UNL     1       7.235  11.426  51.747  1.00  0.00    -0.265 OA
BRANCH   8  11
HETATM   11  O1  UNL     1       7.841   9.006  52.940  1.00  0.00    -0.215 OA
BRANCH  11  12
HETATM   12  C2  UNL     1       7.272   8.097  53.829  1.00  0.00     0.500 C 
HETATM   13  N2  UNL     1       5.877   8.337  54.127  1.00  0.00     0.029 N 
HETATM   14  C1  UNL     1       6.303   8.436  55.497  1.00  0.00     0.530 C 
ATOM     15  H22 UNL     1       5.143   7.691  53.835  1.00  0.00     0.288 HD
ATOM     16  H21 UNL     1       5.347   9.080  53.672  1.00  0.00     0.288 HD
HETATM   17  O11 UNL     1       7.629   8.491  55.139  1.00  0.00    -0.282 OA
BRANCH  14  18
HETATM   18  N1  UNL     1       6.045   7.267  56.313  1.00  0.00    -0.027 N 
ATOM     19  H13 UNL     1       5.252   7.440  56.932  1.00  0.00     0.279 HD
ATOM     20  H12 UNL     1       5.665   6.515  55.738  1.00  0.00     0.279 HD
ATOM     21  H11 UNL     1       6.841   6.926  56.852  1.00  0.00     0.279 HD
ENDBRANCH  14  18
ENDBRANCH  11  12
ENDBRANCH   8  11
ENDBRANCH   1   7
BRANCH   1  22
HETATM   22  O3  UNL     1       6.190   9.473  49.166  1.00  0.00    -0.356 OA
ATOM     23  H3  UNL     1       6.258   8.614  49.566  1.00  0.00     0.213 HD
ENDBRANCH   1  22
BRANCH   6  24
HETATM   24  O10 UNL     1       7.317  11.932  48.999  1.00  0.00    -0.386 OA
ATOM     25  H10 UNL     1       7.418  11.605  48.113  1.00  0.00     0.210 HD
ENDBRANCH   6  24
BRANCH   3  26
HETATM   26  C6  UNL     1       2.137  11.052  50.753  1.00  0.00     0.233 C 
HETATM   27  O5  UNL     1       1.103  11.106  50.052  1.00  0.00    -0.642 OA
HETATM   28  O6  UNL     1       2.135  10.971  52.137  1.00  0.00    -0.642 OA
ENDBRANCH   3  26
BRANCH   5  29
HETATM   29  O7  UNL     1       5.169  10.827  47.503  1.00  0.00    -0.373 OA
ATOM     30  H7  UNL     1       4.357  10.508  47.126  1.00  0.00     0.211 HD
ENDBRANCH   5  29
BRANCH   5  31
HETATM   31  C9  UNL     1       5.155  13.153  47.627  1.00  0.00     0.216 C 
HETATM   32  O8  UNL     1       4.523  13.330  46.558  1.00  0.00    -0.645 OA
HETATM   33  O9  UNL     1       6.001  14.121  48.126  1.00  0.00    -0.645 OA
ENDBRANCH   5  31
TORSDOF 9
ENDMDL
MODEL 2
REMARK VINA RESULT: -8.616509844      1.246      3.408
REMARK  9 active torsions:
REMARK  status: ('A' for Active; 'I' for Inactive)
REMARK    1  A    between atoms: N1_1  and  C1_5 
REMARK    2  A    between atoms: C2_9  and  O1_10 
REMARK    3  A    between atoms: O1_10  and  N3_11 
REMARK       I    between atoms: N3_11  and  C3_13 
REMARK    4  A    between atoms: C3_13  and  C4_15 
REMARK    5  A    between atoms: C4_15  and  O3_16 
REMARK    6  A    between atoms: C5_19  and  C6_20 
REMARK    7  A    between atoms: C8_24  and  O7_25 
REMARK    8  A    between atoms: C8_24  and  C9_27 
REMARK    9  A    between atoms: C10_30  and  O10_31 
ROOT
HETATM    1  C4  UNL     1       5.820  10.817  50.503  1.00  0.00     0.283 C 
HETATM    2  O4  UNL     1       5.798  11.085  49.117  1.00  0.00    -0.296 OA
HETATM    3  C5  UNL     1       4.647  11.197  48.360  1.00  0.00     0.149 C 
HETATM    4  C7  UNL     1       3.503  11.350  48.998  1.00  0.00     0.068 C 
HETATM    5  C8  UNL     1       3.457  11.400  50.477  1.00  0.00     0.198 C 
HETATM    6  C10 UNL     1       4.452  10.374  50.977  1.00  0.00     0.240 C 
ENDROOT
BRANCH   1   7
HETATM    7  C3  UNL     1       6.814   9.757  50.840  1.00  0.00     0.307 C 
HETATM    8  N3  UNL     1       7.149   9.540  52.193  1.00  0.00    -0.225 N 
ATOM      9  H3  UNL     1       6.718  10.102  52.927  1.00  0.00     0.197 HD
HETATM   10  O2  UNL     1       7.312   9.099  49.892  1.00  0.00    -0.265 OA
BRANCH   8  11
HETATM   11  O1  UNL     1       8.047   8.584  52.508  1.00  0.00    -0.215 OA
BRANCH  11  12
HETATM   12  C2  UNL     1       7.482   7.799  53.509  1.00  0.00     0.500 C 
HETATM   13  N2  UNL     1       6.075   8.040  53.743  1.00  0.00     0.029 N 
HETATM   14  C1  UNL     1       6.467   8.350  55.092  1.00  0.00     0.530 C 
ATOM     15  H22 UNL     1       5.364   7.338  53.535  1.00  0.00     0.288 HD
ATOM     16  H21 UNL     1       5.537   8.694  53.174  1.00  0.00     0.288 HD
HETATM   17  O11 UNL     1       7.799   8.390  54.754  1.00  0.00    -0.282 OA
BRANCH  14  18
HETATM   18  N1  UNL     1       6.220   7.306  56.065  1.00  0.00    -0.027 N 
ATOM     19  H13 UNL     1       6.635   7.559  56.963  1.00  0.00     0.279 HD
ATOM     20  H12 UNL     1       5.233   7.291  56.321  1.00  0.00     0.279 HD
ATOM     21  H11 UNL     1       6.524   6.372  55.790  1.00  0.00     0.279 HD
ENDBRANCH  14  18
ENDBRANCH  11  12
ENDBRANCH   8  11
ENDBRANCH   1   7
BRANCH   1  22
HETATM   22  O3  UNL     1       6.101  11.999  51.212  1.00  0.00    -0.356 OA
ATOM     23  H3  UNL     1       5.299  12.463  51.417  1.00  0.00     0.213 HD
ENDBRANCH   1  22
BRANCH   6  24
HETATM   24  O10 UNL     1       4.421  10.191  52.332  1.00  0.00    -0.386 OA
ATOM     25  H10 UNL     1       5.283   9.996  52.680  1.00  0.00     0.210 HD
ENDBRANCH   6  24
BRANCH   3  26
HETATM   26  C6  UNL     1       4.700  11.145  46.883  1.00  0.00     0.233 C 
HETATM   27  O5  UNL     1       5.707  11.614  46.308  1.00  0.00    -0.642 OA
HETATM   28  O6  UNL     1       3.622  10.576  46.223  1.00  0.00    -0.642 OA
ENDBRANCH   3  26
BRANCH   5  29
HETATM   29  O7  UNL     1       3.820  12.622  50.988  1.00  0.00    -0.373 OA
ATOM     30  H7  UNL     1       3.126  13.269  50.939  1.00  0.00     0.211 HD
ENDBRANCH   5  29
BRANCH   5  31
HETATM   31  C9  UNL     1       2.099  11.052  50.948  1.00  0.00     0.216 C 
HETATM   32  O8  UNL     1       1.138  11.113  50.145  1.00  0.00    -0.645 OA
HETATM   33  O9  UNL     1       1.913  10.665  52.259  1.00  0.00    -0.645 OA
ENDBRANCH   5  31
TORSDOF 9
ENDMDL
MODEL 3
REMARK VINA RESULT: -8.422618340      1.238      3.518
REMARK  9 active torsions:
REMARK  status: ('A' for Active; 'I' for Inactive)
REMARK    1  A    between atoms: N1_1  and  C1_5 
REMARK    2  A    between atoms: C2_9  and  O1_10 
REMARK    3  A    between atoms: O1_10  and  N3_11 
REMARK       I    between atoms: N3_11  and  C3_13 
REMARK    4  A    between atoms: C3_13  and  C4_15 
REMARK    5  A    between atoms: C4_15  and  O3_16 
REMARK    6  A    between atoms: C5_19  and  C6_20 
REMARK    7  A    between atoms: C8_24  and  O7_25 
REMARK    8  A    between atoms: C8_24  and  C9_27 
REMARK    9  A    between atoms: C10_30  and  O10_31 
ROOT
HETATM    1  C4  UNL     1       5.706  11.603  51.486  1.00  0.00     0.283 C 
HETATM    2  O4  UNL     1       6.086  12.294  50.315  1.00  0.00    -0.296 OA
HETATM    3  C5  UNL     1       5.360  12.298  49.139  1.00  0.00     0.149 C 
HETATM    4  C7  UNL     1       4.110  11.880  49.185  1.00  0.00     0.068 C 
HETATM    5  C8  UNL     1       3.507  11.423  50.457  1.00  0.00     0.198 C 
HETATM    6  C10 UNL     1       4.577  10.639  51.187  1.00  0.00     0.240 C 
ENDROOT
BRANCH   1   7
HETATM    7  C3  UNL     1       6.849  10.842  52.068  1.00  0.00     0.307 C 
HETATM    8  N3  UNL     1       6.854   9.435  51.968  1.00  0.00    -0.225 N 
ATOM      9  H3  UNL     1       6.086   8.949  51.505  1.00  0.00     0.197 HD
HETATM   10  O2  UNL     1       7.764  11.496  52.627  1.00  0.00    -0.265 OA
BRANCH   8  11
HETATM   11  O1  UNL     1       7.883   8.736  52.491  1.00  0.00    -0.215 OA
BRANCH  11  12
HETATM   12  C2  UNL     1       7.364   7.917  53.489  1.00  0.00     0.500 C 
HETATM   13  N2  UNL     1       5.956   8.112  53.758  1.00  0.00     0.029 N 
HETATM   14  C1  UNL     1       6.370   8.407  55.104  1.00  0.00     0.530 C 
ATOM     15  H22 UNL     1       5.261   7.394  53.552  1.00  0.00     0.288 HD
ATOM     16  H21 UNL     1       5.387   8.760  53.215  1.00  0.00     0.288 HD
HETATM   17  O11 UNL     1       7.692   8.492  54.738  1.00  0.00    -0.282 OA
BRANCH  14  18
HETATM   18  N1  UNL     1       6.175   7.337  56.061  1.00  0.00    -0.027 N 
ATOM     19  H13 UNL     1       7.061   6.868  56.247  1.00  0.00     0.279 HD
ATOM     20  H12 UNL     1       5.979   7.724  56.984  1.00  0.00     0.279 HD
ATOM     21  H11 UNL     1       5.462   6.652  55.811  1.00  0.00     0.279 HD
ENDBRANCH  14  18
ENDBRANCH  11  12
ENDBRANCH   8  11
ENDBRANCH   1   7
BRANCH   1  22
HETATM   22  O3  UNL     1       5.188  12.510  52.428  1.00  0.00    -0.356 OA
ATOM     23  H3  UNL     1       4.320  12.244  52.704  1.00  0.00     0.213 HD
ENDBRANCH   1  22
BRANCH   6  24
HETATM   24  O10 UNL     1       4.129  10.017  52.321  1.00  0.00    -0.386 OA
ATOM     25  H10 UNL     1       4.773   9.409  52.664  1.00  0.00     0.210 HD
ENDBRANCH   6  24
BRANCH   3  26
HETATM   26  C6  UNL     1       5.969  12.756  47.871  1.00  0.00     0.233 C 
HETATM   27  O5  UNL     1       6.077  11.937  46.933  1.00  0.00    -0.642 OA
HETATM   28  O6  UNL     1       6.385  14.077  47.802  1.00  0.00    -0.642 OA
ENDBRANCH   3  26
BRANCH   5  29
HETATM   29  O7  UNL     1       3.114  12.456  51.272  1.00  0.00    -0.373 OA
ATOM     30  H7  UNL     1       2.642  12.165  52.043  1.00  0.00     0.211 HD
ENDBRANCH   5  29
BRANCH   5  31
HETATM   31  C9  UNL     1       2.349  10.547  50.176  1.00  0.00     0.216 C 
HETATM   32  O8  UNL     1       2.545   9.334  49.923  1.00  0.00    -0.645 OA
HETATM   33  O9  UNL     1       1.076  11.076  50.197  1.00  0.00    -0.645 OA
ENDBRANCH   5  31
TORSDOF 9
ENDMDL
MODEL 4
REMARK VINA RESULT: -8.169931293      1.378      1.501
REMARK  9 active torsions:
REMARK  status: ('A' for Active; 'I' for Inactive)
REMARK    1  A    between atoms: N1_1  and  C1_5 
REMARK    2  A    between atoms: C2_9  and  O1_10 
REMARK    3  A    between atoms: O1_10  and  N3_11 
REMARK       I    between atoms: N3_11  and  C3_13 
REMARK    4  A    between atoms: C3_13  and  C4_15 
REMARK    5  A    between atoms: C4_15  and  O3_16 
REMARK    6  A    between atoms: C5_19  and  C6_20 
REMARK    7  A    between atoms: C8_24  and  O7_25 
REMARK    8  A    between atoms: C8_24  and  C9_27 
REMARK    9  A    between atoms: C10_30  and  O10_31 
ROOT
HETATM    1  C4  UNL     1       6.318  10.481  50.254  1.00  0.00     0.283 C 
HETATM    2  O4  UNL     1       5.335   9.484  50.071  1.00  0.00    -0.296 OA
HETATM    3  C5  UNL     1       4.141   9.677  49.401  1.00  0.00     0.149 C 
HETATM    4  C7  UNL     1       4.025  10.750  48.643  1.00  0.00     0.068 C 
HETATM    5  C8  UNL     1       5.140  11.716  48.517  1.00  0.00     0.198 C 
HETATM    6  C10 UNL     1       5.762  11.842  49.891  1.00  0.00     0.240 C 
ENDROOT
BRANCH   1   7
HETATM    7  C3  UNL     1       6.804  10.518  51.663  1.00  0.00     0.307 C 
HETATM    8  N3  UNL     1       7.451   9.382  52.193  1.00  0.00    -0.225 N 
ATOM      9  H3  UNL     1       7.583   8.550  51.617  1.00  0.00     0.197 HD
HETATM   10  O2  UNL     1       6.610  11.571  52.322  1.00  0.00    -0.265 OA
BRANCH   8  11
HETATM   11  O1  UNL     1       7.894   9.405  53.467  1.00  0.00    -0.215 OA
BRANCH  11  12
HETATM   12  C2  UNL     1       7.300   8.337  54.132  1.00  0.00     0.500 C 
HETATM   13  N2  UNL     1       5.879   8.486  54.364  1.00  0.00     0.029 N 
HETATM   14  C1  UNL     1       6.207   8.342  55.757  1.00  0.00     0.530 C 
ATOM     15  H22 UNL     1       5.191   7.887  53.907  1.00  0.00     0.288 HD
ATOM     16  H21 UNL     1       5.356   9.287  54.013  1.00  0.00     0.288 HD
HETATM   17  O11 UNL     1       7.551   8.493  55.514  1.00  0.00    -0.282 OA
BRANCH  14  18
HETATM   18  N1  UNL     1       5.936   7.038  56.327  1.00  0.00    -0.027 N 
ATOM     19  H13 UNL     1       5.300   6.517  55.723  1.00  0.00     0.279 HD
ATOM     20  H12 UNL     1       6.766   6.449  56.265  1.00  0.00     0.279 HD
ATOM     21  H11 UNL     1       5.583   7.044  57.284  1.00  0.00     0.279 HD
ENDBRANCH  14  18
ENDBRANCH  11  12
ENDBRANCH   8  11
ENDBRANCH   1   7
BRANCH   1  22
HETATM   22  O3  UNL     1       7.389  10.262  49.369  1.00  0.00    -0.356 OA
ATOM     23  H3  UNL     1       8.114  10.839  49.576  1.00  0.00     0.213 HD
ENDBRANCH   1  22
BRANCH   6  24
HETATM   24  O10 UNL     1       6.718  12.818  49.976  1.00  0.00    -0.386 OA
ATOM     25  H10 UNL     1       6.616  13.470  49.293  1.00  0.00     0.210 HD
ENDBRANCH   6  24
BRANCH   3  26
HETATM   26  C6  UNL     1       3.031   8.708  49.532  1.00  0.00     0.233 C 
HETATM   27  O5  UNL     1       2.341   8.454  48.520  1.00  0.00    -0.642 OA
HETATM   28  O6  UNL     1       2.823   8.137  50.778  1.00  0.00    -0.642 OA
ENDBRANCH   3  26
BRANCH   5  29
HETATM   29  O7  UNL     1       6.120  11.300  47.649  1.00  0.00    -0.373 OA
ATOM     30  H7  UNL     1       6.998  11.451  47.977  1.00  0.00     0.211 HD
ENDBRANCH   5  29
BRANCH   5  31
HETATM   31  C9  UNL     1       4.619  13.028  48.080  1.00  0.00     0.216 C 
HETATM   32  O8  UNL     1       5.416  13.884  47.628  1.00  0.00    -0.645 OA
HETATM   33  O9  UNL     1       3.268  13.290  48.178  1.00  0.00    -0.645 OA
ENDBRANCH   5  31
TORSDOF 9
ENDMDL
MODEL 5
REMARK VINA RESULT: -8.047574672      2.115      2.456
REMARK  9 active torsions:
REMARK  status: ('A' for Active; 'I' for Inactive)
REMARK    1  A    between atoms: N1_1  and  C1_5 
REMARK    2  A    between atoms: C2_9  and  O1_10 
REMARK    3  A    between atoms: O1_10  and  N3_11 
REMARK       I    between atoms: N3_11  and  C3_13 
REMARK    4  A    between atoms: C3_13  and  C4_15 
REMARK    5  A    between atoms: C4_15  and  O3_16 
REMARK    6  A    between atoms: C5_19  and  C6_20 
REMARK    7  A    between atoms: C8_24  and  O7_25 
REMARK    8  A    between atoms: C8_24  and  C9_27 
REMARK    9  A    between atoms: C10_30  and  O10_31 
ROOT
HETATM    1  C4  UNL     1       5.828  10.365  50.134  1.00  0.00     0.283 C 
HETATM    2  O4  UNL     1       4.477  10.195  50.507  1.00  0.00    -0.296 OA
HETATM    3  C5  UNL     1       3.443  11.014  50.094  1.00  0.00     0.149 C 
HETATM    4  C7  UNL     1       3.665  11.822  49.076  1.00  0.00     0.068 C 
HETATM    5  C8  UNL     1       4.982  11.848  48.399  1.00  0.00     0.198 C 
HETATM    6  C10 UNL     1       6.030  11.717  49.484  1.00  0.00     0.240 C 
ENDROOT
BRANCH   1   7
HETATM    7  C3  UNL     1       6.739  10.255  51.311  1.00  0.00     0.307 C 
HETATM    8  N3  UNL     1       6.257  10.625  52.584  1.00  0.00    -0.225 N 
ATOM      9  H3  UNL     1       5.301  10.962  52.694  1.00  0.00     0.197 HD
HETATM   10  O2  UNL     1       7.906   9.834  51.110  1.00  0.00    -0.265 OA
BRANCH   8  11
HETATM   11  O1  UNL     1       7.073  10.529  53.654  1.00  0.00    -0.215 OA
BRANCH  11  12
HETATM   12  C2  UNL     1       7.824  11.700  53.709  1.00  0.00     0.500 C 
HETATM   13  N2  UNL     1       8.705  11.800  54.852  1.00  0.00     0.029 N 
HETATM   14  C1  UNL     1       7.982  13.004  55.161  1.00  0.00     0.530 C 
ATOM     15  H22 UNL     1       9.720  11.789  54.755  1.00  0.00     0.288 HD
ATOM     16  H21 UNL     1       8.802  11.041  55.527  1.00  0.00     0.288 HD
HETATM   17  O11 UNL     1       7.001  12.718  54.243  1.00  0.00    -0.282 OA
BRANCH  14  18
HETATM   18  N1  UNL     1       8.659  14.239  54.816  1.00  0.00    -0.027 N 
ATOM     19  H13 UNL     1       8.594  14.404  53.811  1.00  0.00     0.279 HD
ATOM     20  H12 UNL     1       8.128  15.037  55.164  1.00  0.00     0.279 HD
ATOM     21  H11 UNL     1       9.629  14.304  55.120  1.00  0.00     0.279 HD
ENDBRANCH  14  18
ENDBRANCH  11  12
ENDBRANCH   8  11
ENDBRANCH   1   7
BRANCH   1  22
HETATM   22  O3  UNL     1       6.174   9.418  49.153  1.00  0.00    -0.356 OA
ATOM     23  H3  UNL     1       7.105   9.231  49.185  1.00  0.00     0.213 HD
ENDBRANCH   1  22
BRANCH   6  24
HETATM   24  O10 UNL     1       7.312  11.876  49.033  1.00  0.00    -0.386 OA
ATOM     25  H10 UNL     1       7.391  12.626  48.455  1.00  0.00     0.210 HD
ENDBRANCH   6  24
BRANCH   3  26
HETATM   26  C6  UNL     1       2.130  10.983  50.776  1.00  0.00     0.233 C 
HETATM   27  O5  UNL     1       1.099  11.150  50.088  1.00  0.00    -0.642 OA
HETATM   28  O6  UNL     1       2.125  10.769  52.145  1.00  0.00    -0.642 OA
ENDBRANCH   3  26
BRANCH   5  29
HETATM   29  O7  UNL     1       5.157  10.809  47.518  1.00  0.00    -0.373 OA
ATOM     30  H7  UNL     1       5.944  10.894  46.992  1.00  0.00     0.211 HD
ENDBRANCH   5  29
BRANCH   5  31
HETATM   31  C9  UNL     1       5.154  13.132  47.688  1.00  0.00     0.216 C 
HETATM   32  O8  UNL     1       4.521  13.334  46.625  1.00  0.00    -0.645 OA
HETATM   33  O9  UNL     1       6.006  14.086  48.204  1.00  0.00    -0.645 OA
ENDBRANCH   5  31
TORSDOF 9
ENDMDL
