MODEL 1
REMARK VINA RESULT: -8.734747390      0.000      0.000
REMARK  7 active torsions:
REMARK  status: ('A' for Active; 'I' for Inactive)
REMARK    1  A    between atoms: C3_5  and  C4_6 
REMARK       I    between atoms: C4_6  and  N3_8 
REMARK    2  A    between atoms: N3_8  and  N4_10 
REMARK    3  A    between atoms: N4_10  and  N5_11 
REMARK    4  A    between atoms: N5_11  and  C5_12 
REMARK    5  A    between atoms: C7_15  and  O3_16 
REMARK    6  A    between atoms: C8_18  and  O4_19 
REMARK    7  A    between atoms: C9_21  and  O5_22 
ROOT
HETATM    1  C4  UNL     1       6.934  10.594  51.302  1.00  0.00     0.277 C 
HETATM    2  O1  UNL     1       7.661   9.989  50.445  1.00  0.00    -0.266 OA
HETATM    3  N3  UNL     1       6.521  11.886  50.971  1.00  0.00    -0.253 N 
ATOM      4  H3  UNL     1       5.941  12.412  51.624  1.00  0.00     0.187 HD
ENDROOT
BRANCH   3   5
HETATM    5  N4  UNL     1       6.899  12.475  49.736  1.00  0.00    -0.028 NA
BRANCH   5   6
HETATM    6  N5  UNL     1       5.793  12.975  49.063  1.00  0.00    -0.111 NA
BRANCH   6   7
HETATM    7  C5  UNL     1       5.046  11.917  48.458  1.00  0.00     0.200 C 
HETATM    8  C6  UNL     1       5.160  12.027  46.975  1.00  0.00     0.181 C 
HETATM    9  O2  UNL     1       6.221  12.058  46.386  1.00  0.00    -0.293 OA
HETATM   10  C7  UNL     1       3.764  12.083  46.448  1.00  0.00     0.220 C 
HETATM   11  C8  UNL     1       3.068  12.830  47.588  1.00  0.00     0.185 C 
HETATM   12  C9  UNL     1       3.595  12.053  48.783  1.00  0.00     0.177 C 
BRANCH  10  13
HETATM   13  O3  UNL     1       3.262  10.790  46.316  1.00  0.00    -0.385 OA
ATOM     14  H3  UNL     1       2.952  10.658  45.428  1.00  0.00     0.210 HD
ENDBRANCH  10  13
BRANCH  11  15
HETATM   15  O4  UNL     1       3.587  14.119  47.601  1.00  0.00    -0.390 OA
ATOM     16  H4  UNL     1       3.392  14.486  48.456  1.00  0.00     0.210 HD
ENDBRANCH  11  15
BRANCH  12  17
HETATM   17  O5  UNL     1       3.041  10.755  48.729  1.00  0.00    -0.391 OA
ATOM     18  H5  UNL     1       2.101  10.853  48.828  1.00  0.00     0.210 HD
ENDBRANCH  12  17
ENDBRANCH   6   7
ENDBRANCH   5   6
ENDBRANCH   3   5
BRANCH   1  19
HETATM   19  C3  UNL     1       6.627   9.877  52.507  1.00  0.00     0.142 A 
HETATM   20  C2  UNL     1       7.323  10.145  53.703  1.00  0.00     0.143 A 
HETATM   21  N1  UNL     1       7.096   9.526  54.854  1.00  0.00    -0.291 N 
HETATM   22  N2  UNL     1       8.334  11.144  53.668  1.00  0.00    -0.081 NA
HETATM   23  C1  UNL     1       7.864   9.863  56.065  1.00  0.00     0.162 C 
HETATM   24  C11 UNL     1       6.142   8.577  54.905  1.00  0.00     0.330 A 
HETATM   25  N6  UNL     1       5.432   8.262  53.807  1.00  0.00    -0.274 N 
HETATM   26  O7  UNL     1       5.942   8.000  56.015  1.00  0.00    -0.246 OA
HETATM   27  C10 UNL     1       5.671   8.902  52.624  1.00  0.00     0.268 A 
ATOM     28  H6  UNL     1       4.712   7.542  53.858  1.00  0.00     0.173 HD
HETATM   29  O6  UNL     1       4.960   8.538  51.660  1.00  0.00    -0.267 OA
ENDBRANCH   1  19
TORSDOF 7
ENDMDL
MODEL 2
REMARK VINA RESULT: -8.690714210      1.875      3.245
REMARK  7 active torsions:
REMARK  status: ('A' for Active; 'I' for Inactive)
REMARK    1  A    between atoms: C3_5  and  C4_6 
REMARK       I    between atoms: C4_6  and  N3_8 
REMARK    2  A    between atoms: N3_8  and  N4_10 
REMARK    3  A    between atoms: N4_10  and  N5_11 
REMARK    4  A    between atoms: N5_11  and  C5_12 
REMARK    5  A    between atoms: C7_15  and  O3_16 
REMARK    6  A    between atoms: C8_18  and  O4_19 
REMARK    7  A    between atoms: C9_21  and  O5_22 
ROOT
HETATM    1  C4  UNL     1       6.998  10.979  52.676  1.00  0.00     0.277 C 
HETATM    2  O1  UNL     1       7.670  10.607  51.657  1.00  0.00    -0.266 OA
HETATM    3  N3  UNL     1       5.966  11.891  52.445  1.00  0.00    -0.253 N 
ATOM      4  H3  UNL     1       5.401  12.220  53.228  1.00  0.00     0.187 HD
ENDROOT
BRANCH   3   5
HETATM    5  N4  UNL     1       5.696  12.365  51.135  1.00  0.00    -0.028 NA
BRANCH   5   6
HETATM    6  N5  UNL     1       4.364  12.164  50.799  1.00  0.00    -0.111 NA
BRANCH   6   7
HETATM    7  C5  UNL     1       4.247  11.669  49.463  1.00  0.00     0.200 C 
HETATM    8  C6  UNL     1       3.098  10.722  49.393  1.00  0.00     0.181 C 
HETATM    9  O2  UNL     1       1.970  11.012  49.735  1.00  0.00    -0.293 OA
HETATM   10  C7  UNL     1       3.640   9.442  48.844  1.00  0.00     0.220 C 
HETATM   11  C8  UNL     1       5.054   9.467  49.431  1.00  0.00     0.185 C 
HETATM   12  C9  UNL     1       5.465  10.889  49.090  1.00  0.00     0.177 C 
BRANCH  10  13
HETATM   13  O3  UNL     1       3.674   9.508  47.453  1.00  0.00    -0.385 OA
ATOM     14  H3  UNL     1       4.555   9.322  47.148  1.00  0.00     0.210 HD
ENDBRANCH  10  13
BRANCH  11  15
HETATM   15  O4  UNL     1       4.920   9.336  50.808  1.00  0.00    -0.390 OA
ATOM     16  H4  UNL     1       5.599   9.870  51.203  1.00  0.00     0.210 HD
ENDBRANCH  11  15
BRANCH  12  17
HETATM   17  O5  UNL     1       5.589  10.974  47.685  1.00  0.00    -0.391 OA
ATOM     18  H5  UNL     1       5.806  11.876  47.483  1.00  0.00     0.210 HD
ENDBRANCH  12  17
ENDBRANCH   6   7
ENDBRANCH   5   6
ENDBRANCH   3   5
BRANCH   1  19
HETATM   19  C3  UNL     1       7.380  10.417  53.941  1.00  0.00     0.142 A 
HETATM   20  C2  UNL     1       6.647   9.357  54.510  1.00  0.00     0.143 A 
HETATM   21  N1  UNL     1       6.939   8.786  55.671  1.00  0.00    -0.291 N 
HETATM   22  N2  UNL     1       5.521   8.873  53.790  1.00  0.00    -0.081 NA
HETATM   23  C1  UNL     1       6.124   7.680  56.202  1.00  0.00     0.162 C 
HETATM   24  C11 UNL     1       8.002   9.233  56.367  1.00  0.00     0.330 A 
HETATM   25  N6  UNL     1       8.754  10.241  55.892  1.00  0.00    -0.274 N 
HETATM   26  O7  UNL     1       8.262   8.672  57.473  1.00  0.00    -0.246 OA
HETATM   27  C10 UNL     1       8.448  10.827  54.696  1.00  0.00     0.268 A 
ATOM     28  H6  UNL     1       9.557  10.570  56.427  1.00  0.00     0.173 HD
HETATM   29  O6  UNL     1       9.207  11.756  54.340  1.00  0.00    -0.267 OA
ENDBRANCH   1  19
TORSDOF 7
ENDMDL
MODEL 3
REMARK VINA RESULT: -8.666627784      2.284      3.604
REMARK  7 active torsions:
REMARK  status: ('A' for Active; 'I' for Inactive)
REMARK    1  A    between atoms: C3_5  and  C4_6 
REMARK       I    between atoms: C4_6  and  N3_8 
REMARK    2  A    between atoms: N3_8  and  N4_10 
REMARK    3  A    between atoms: N4_10  and  N5_11 
REMARK    4  A    between atoms: N5_11  and  C5_12 
REMARK    5  A    between atoms: C7_15  and  O3_16 
REMARK    6  A    between atoms: C8_18  and  O4_19 
REMARK    7  A    between atoms: C9_21  and  O5_22 
ROOT
HETATM    1  C4  UNL     1       6.611  11.318  52.488  1.00  0.00     0.277 C 
HETATM    2  O1  UNL     1       7.344  10.960  51.507  1.00  0.00    -0.266 OA
HETATM    3  N3  UNL     1       5.413  11.959  52.171  1.00  0.00    -0.253 N 
ATOM      4  H3  UNL     1       4.792  12.267  52.920  1.00  0.00     0.187 HD
ENDROOT
BRANCH   3   5
HETATM    5  N4  UNL     1       5.048  12.189  50.819  1.00  0.00    -0.028 NA
BRANCH   5   6
HETATM    6  N5  UNL     1       3.670  12.127  50.657  1.00  0.00    -0.111 NA
BRANCH   6   7
HETATM    7  C5  UNL     1       3.320  11.186  49.639  1.00  0.00     0.200 C 
HETATM    8  C6  UNL     1       2.040  10.520  50.011  1.00  0.00     0.181 C 
HETATM    9  O2  UNL     1       1.018  11.126  50.262  1.00  0.00    -0.293 OA
HETATM   10  C7  UNL     1       2.309   9.050  49.995  1.00  0.00     0.220 C 
HETATM   11  C8  UNL     1       3.769   9.033  50.454  1.00  0.00     0.185 C 
HETATM   12  C9  UNL     1       4.351  10.108  49.552  1.00  0.00     0.177 C 
BRANCH  10  13
HETATM   13  O3  UNL     1       2.187   8.567  48.695  1.00  0.00    -0.385 OA
ATOM     14  H3  UNL     1       3.019   8.208  48.409  1.00  0.00     0.210 HD
ENDBRANCH  10  13
BRANCH  11  15
HETATM   15  O4  UNL     1       3.782   9.471  51.773  1.00  0.00    -0.390 OA
ATOM     16  H4  UNL     1       2.906   9.336  52.117  1.00  0.00     0.210 HD
ENDBRANCH  11  15
BRANCH  12  17
HETATM   17  O5  UNL     1       4.318   9.620  48.227  1.00  0.00    -0.391 OA
ATOM     18  H5  UNL     1       3.417   9.681  47.933  1.00  0.00     0.210 HD
ENDBRANCH  12  17
ENDBRANCH   6   7
ENDBRANCH   5   6
ENDBRANCH   3   5
BRANCH   1  19
HETATM   19  C3  UNL     1       7.104  11.020  53.803  1.00  0.00     0.142 A 
HETATM   20  C2  UNL     1       6.715   9.841  54.470  1.00  0.00     0.143 A 
HETATM   21  N1  UNL     1       7.128   9.497  55.682  1.00  0.00    -0.291 N 
HETATM   22  N2  UNL     1       5.820   8.967  53.794  1.00  0.00    -0.081 NA
HETATM   23  C1  UNL     1       6.678   8.245  56.314  1.00  0.00     0.162 C 
HETATM   24  C11 UNL     1       7.975  10.314  56.336  1.00  0.00     0.330 A 
HETATM   25  N6  UNL     1       8.394  11.459  55.770  1.00  0.00    -0.274 N 
HETATM   26  O7  UNL     1       8.356   9.965  57.494  1.00  0.00    -0.246 OA
HETATM   27  C10 UNL     1       7.965  11.809  54.521  1.00  0.00     0.268 A 
ATOM     28  H6  UNL     1       9.036  12.069  56.276  1.00  0.00     0.173 HD
HETATM   29  O6  UNL     1       8.411  12.893  54.081  1.00  0.00    -0.267 OA
ENDBRANCH   1  19
TORSDOF 7
ENDMDL
MODEL 4
REMARK VINA RESULT: -8.523862137      2.325      3.221
REMARK  7 active torsions:
REMARK  status: ('A' for Active; 'I' for Inactive)
REMARK    1  A    between atoms: C3_5  and  C4_6 
REMARK       I    between atoms: C4_6  and  N3_8 
REMARK    2  A    between atoms: N3_8  and  N4_10 
REMARK    3  A    between atoms: N4_10  and  N5_11 
REMARK    4  A    between atoms: N5_11  and  C5_12 
REMARK    5  A    between atoms: C7_15  and  O3_16 
REMARK    6  A    between atoms: C8_18  and  O4_19 
REMARK    7  A    between atoms: C9_21  and  O5_22 
ROOT
HETATM    1  C4  UNL     1       6.817  11.070  51.928  1.00  0.00     0.277 C 
HETATM    2  O1  UNL     1       7.336  10.944  50.769  1.00  0.00    -0.266 OA
HETATM    3  N3  UNL     1       5.614  11.773  52.001  1.00  0.00    -0.253 N 
ATOM      4  H3  UNL     1       5.160  11.902  52.905  1.00  0.00     0.187 HD
ENDROOT
BRANCH   3   5
HETATM    5  N4  UNL     1       5.015  12.311  50.831  1.00  0.00    -0.028 NA
BRANCH   5   6
HETATM    6  N5  UNL     1       3.647  12.076  50.820  1.00  0.00    -0.111 NA
BRANCH   6   7
HETATM    7  C5  UNL     1       3.286  11.238  49.719  1.00  0.00     0.200 C 
HETATM    8  C6  UNL     1       2.051  10.480  50.068  1.00  0.00     0.181 C 
HETATM    9  O2  UNL     1       1.020  11.009  50.428  1.00  0.00    -0.293 OA
HETATM   10  C7  UNL     1       2.376   9.034  49.876  1.00  0.00     0.220 C 
HETATM   11  C8  UNL     1       3.856   9.030  50.268  1.00  0.00     0.185 C 
HETATM   12  C9  UNL     1       4.352  10.223  49.467  1.00  0.00     0.177 C 
BRANCH  10  13
HETATM   13  O3  UNL     1       2.212   8.691  48.537  1.00  0.00    -0.385 OA
ATOM     14  H3  UNL     1       2.029   7.762  48.466  1.00  0.00     0.210 HD
ENDBRANCH  10  13
BRANCH  11  15
HETATM   15  O4  UNL     1       3.915   9.321  51.625  1.00  0.00    -0.390 OA
ATOM     16  H4  UNL     1       4.453   8.649  52.028  1.00  0.00     0.210 HD
ENDBRANCH  11  15
BRANCH  12  17
HETATM   17  O5  UNL     1       4.276   9.882  48.098  1.00  0.00    -0.391 OA
ATOM     18  H5  UNL     1       4.442   8.948  48.038  1.00  0.00     0.210 HD
ENDBRANCH  12  17
ENDBRANCH   6   7
ENDBRANCH   5   6
ENDBRANCH   3   5
BRANCH   1  19
HETATM   19  C3  UNL     1       7.531  10.473  53.022  1.00  0.00     0.142 A 
HETATM   20  C2  UNL     1       8.133  11.274  54.013  1.00  0.00     0.143 A 
HETATM   21  N1  UNL     1       8.806  10.796  55.051  1.00  0.00    -0.291 N 
HETATM   22  N2  UNL     1       8.009  12.684  53.885  1.00  0.00    -0.081 NA
HETATM   23  C1  UNL     1       9.407  11.698  56.049  1.00  0.00     0.162 C 
HETATM   24  C11 UNL     1       8.934   9.463  55.186  1.00  0.00     0.330 A 
HETATM   25  N6  UNL     1       8.389   8.629  54.283  1.00  0.00    -0.274 N 
HETATM   26  O7  UNL     1       9.581   9.030  56.186  1.00  0.00    -0.246 OA
HETATM   27  C10 UNL     1       7.697   9.126  53.214  1.00  0.00     0.268 A 
ATOM     28  H6  UNL     1       8.491   7.621  54.397  1.00  0.00     0.173 HD
HETATM   29  O6  UNL     1       7.228   8.270  52.430  1.00  0.00    -0.267 OA
ENDBRANCH   1  19
TORSDOF 7
ENDMDL
MODEL 5
REMARK VINA RESULT: -8.503937499      1.346      2.182
REMARK  7 active torsions:
REMARK  status: ('A' for Active; 'I' for Inactive)
REMARK    1  A    between atoms: C3_5  and  C4_6 
REMARK       I    between atoms: C4_6  and  N3_8 
REMARK    2  A    between atoms: N3_8  and  N4_10 
REMARK    3  A    between atoms: N4_10  and  N5_11 
REMARK    4  A    between atoms: N5_11  and  C5_12 
REMARK    5  A    between atoms: C7_15  and  O3_16 
REMARK    6  A    between atoms: C8_18  and  O4_19 
REMARK    7  A    between atoms: C9_21  and  O5_22 
ROOT
HETATM    1  C4  UNL     1       6.900  10.478  52.072  1.00  0.00     0.277 C 
HETATM    2  O1  UNL     1       6.757  11.744  52.140  1.00  0.00    -0.266 OA
HETATM    3  N3  UNL     1       7.114   9.939  50.803  1.00  0.00    -0.253 N 
ATOM      4  H3  UNL     1       7.232   8.932  50.696  1.00  0.00     0.187 HD
ENDROOT
BRANCH   3   5
HETATM    5  N4  UNL     1       7.169  10.778  49.659  1.00  0.00    -0.028 NA
BRANCH   5   6
HETATM    6  N5  UNL     1       5.976  10.733  48.951  1.00  0.00    -0.111 NA
BRANCH   6   7
HETATM    7  C5  UNL     1       5.435  12.046  48.785  1.00  0.00     0.200 C 
HETATM    8  C6  UNL     1       4.121  11.948  48.088  1.00  0.00     0.181 C 
HETATM    9  O2  UNL     1       3.201  11.263  48.487  1.00  0.00    -0.293 OA
HETATM   10  C7  UNL     1       4.215  12.827  46.884  1.00  0.00     0.220 C 
HETATM   11  C8  UNL     1       5.697  12.660  46.536  1.00  0.00     0.185 C 
HETATM   12  C9  UNL     1       6.322  12.866  47.906  1.00  0.00     0.177 C 
BRANCH  10  13
HETATM   13  O3  UNL     1       3.930  14.142  47.242  1.00  0.00    -0.385 OA
ATOM     14  H3  UNL     1       4.533  14.730  46.802  1.00  0.00     0.210 HD
ENDBRANCH  10  13
BRANCH  11  15
HETATM   15  O4  UNL     1       5.871  11.342  46.135  1.00  0.00    -0.390 OA
ATOM     16  H4  UNL     1       6.660  11.026  46.560  1.00  0.00     0.210 HD
ENDBRANCH  11  15
BRANCH  12  17
HETATM   17  O5  UNL     1       6.123  14.216  48.270  1.00  0.00    -0.391 OA
ATOM     18  H5  UNL     1       6.465  14.745  47.559  1.00  0.00     0.210 HD
ENDBRANCH  12  17
ENDBRANCH   6   7
ENDBRANCH   5   6
ENDBRANCH   3   5
BRANCH   1  19
HETATM   19  C3  UNL     1       6.823   9.754  53.310  1.00  0.00     0.142 A 
HETATM   20  C2  UNL     1       7.815   9.909  54.299  1.00  0.00     0.143 A 
HETATM   21  N1  UNL     1       7.812   9.277  55.465  1.00  0.00    -0.291 N 
HETATM   22  N2  UNL     1       8.887  10.801  54.023  1.00  0.00    -0.081 NA
HETATM   23  C1  UNL     1       8.885   9.492  56.451  1.00  0.00     0.162 C 
HETATM   24  C11 UNL     1       6.804   8.428  55.742  1.00  0.00     0.330 A 
HETATM   25  N6  UNL     1       5.818   8.224  54.852  1.00  0.00    -0.274 N 
HETATM   26  O7  UNL     1       6.823   7.835  56.863  1.00  0.00    -0.246 OA
HETATM   27  C10 UNL     1       5.826   8.877  53.651  1.00  0.00     0.268 A 
ATOM     28  H6  UNL     1       5.060   7.579  55.073  1.00  0.00     0.173 HD
HETATM   29  O6  UNL     1       4.866   8.620  52.891  1.00  0.00    -0.267 OA
ENDBRANCH   1  19
TORSDOF 7
ENDMDL
