MODEL 1
REMARK VINA RESULT: -7.597358887      0.000      0.000
REMARK  5 active torsions:
REMARK  status: ('A' for Active; 'I' for Inactive)
REMARK    1  A    between atoms: C2_2  and  C3_3 
REMARK    2  A    between atoms: C3_3  and  C4_4 
REMARK    3  A    between atoms: C4_4  and  C5_5 
REMARK    4  A    between atoms: C5_5  and  C6_6 
REMARK    5  A    between atoms: C12_14  and  C13_15 
ROOT
HETATM    1  C13 UNL     1       9.685  -0.949  57.886  1.00  0.00    -0.022 A 
HETATM    2  C14 UNL     1       8.959  -2.084  57.586  1.00  0.00     0.012 A 
HETATM    3  C15 UNL     1       7.677  -2.003  57.042  1.00  0.00     0.002 A 
HETATM    4  C16 UNL     1       7.087  -0.781  56.787  1.00  0.00     0.023 A 
HETATM    5  C17 UNL     1       7.810   0.352  57.085  1.00  0.00     0.045 A 
HETATM    6  C18 UNL     1       7.240   1.647  56.837  1.00  0.00     0.099 C 
HETATM    7  N2  UNL     1       6.799   2.689  56.623  1.00  0.00    -0.191 NA
HETATM    8  C19 UNL     1       9.075   0.264  57.620  1.00  0.00     0.035 A 
ENDROOT
BRANCH   1   9
HETATM    9  C12 UNL     1      10.992  -1.061  58.509  1.00  0.00     0.003 A 
HETATM   10  C11 UNL     1      11.115  -0.975  59.910  1.00  0.00     0.101 A 
HETATM   11  N1  UNL     1      12.392  -1.024  60.213  1.00  0.00    -0.364 N 
HETATM   12  C10 UNL     1      13.132  -1.139  59.070  1.00  0.00     0.043 A 
ATOM     13  H1  UNL     1      12.773  -0.982  61.159  1.00  0.00     0.165 HD
HETATM   14  C9  UNL     1      14.491  -1.217  58.864  1.00  0.00     0.030 A 
HETATM   15  C20 UNL     1      12.256  -1.166  58.001  1.00  0.00     0.009 A 
HETATM   16  C8  UNL     1      15.007  -1.324  57.604  1.00  0.00     0.003 A 
HETATM   17  C7  UNL     1      14.113  -1.351  56.532  1.00  0.00     0.008 A 
HETATM   18  C6  UNL     1      12.740  -1.276  56.705  1.00  0.00    -0.045 A 
BRANCH  18  19
HETATM   19  C5  UNL     1      11.788  -1.391  55.593  1.00  0.00     0.039 C 
BRANCH  19  20
HETATM   20  C4  UNL     1      12.103  -2.670  54.768  1.00  0.00     0.005 C 
BRANCH  20  21
HETATM   21  C3  UNL     1      11.337  -3.783  55.492  1.00  0.00    -0.000 C 
BRANCH  21  22
HETATM   22  C2  UNL     1      12.238  -4.742  56.211  1.00  0.00    -0.005 C 
HETATM   23  C1  UNL     1      12.196  -4.539  57.710  1.00  0.00     0.005 C 
ENDBRANCH  21  22
ENDBRANCH  20  21
ENDBRANCH  19  20
ENDBRANCH  18  19
ENDBRANCH   1   9
TORSDOF 5
ENDMDL
MODEL 2
REMARK VINA RESULT: -7.406999923      1.906      3.624
REMARK  5 active torsions:
REMARK  status: ('A' for Active; 'I' for Inactive)
REMARK    1  A    between atoms: C2_2  and  C3_3 
REMARK    2  A    between atoms: C3_3  and  C4_4 
REMARK    3  A    between atoms: C4_4  and  C5_5 
REMARK    4  A    between atoms: C5_5  and  C6_6 
REMARK    5  A    between atoms: C12_14  and  C13_15 
ROOT
HETATM    1  C13 UNL     1       8.941  -1.313  56.355  1.00  0.00    -0.022 A 
HETATM    2  C14 UNL     1       8.232  -2.360  56.912  1.00  0.00     0.012 A 
HETATM    3  C15 UNL     1       6.971  -2.166  57.473  1.00  0.00     0.002 A 
HETATM    4  C16 UNL     1       6.384  -0.916  57.493  1.00  0.00     0.023 A 
HETATM    5  C17 UNL     1       7.088   0.129  56.939  1.00  0.00     0.045 A 
HETATM    6  C18 UNL     1       6.521   1.448  56.935  1.00  0.00     0.099 C 
HETATM    7  N2  UNL     1       6.065   2.506  56.910  1.00  0.00    -0.191 NA
HETATM    8  C19 UNL     1       8.333  -0.070  56.386  1.00  0.00     0.035 A 
ENDROOT
BRANCH   1   9
HETATM    9  C12 UNL     1      10.278  -1.531  55.834  1.00  0.00     0.003 A 
HETATM   10  C11 UNL     1      10.458  -1.903  54.487  1.00  0.00     0.101 A 
HETATM   11  N1  UNL     1      11.738  -2.116  54.287  1.00  0.00    -0.364 N 
HETATM   12  C10 UNL     1      12.426  -1.902  55.449  1.00  0.00     0.043 A 
ATOM     13  H1  UNL     1      12.156  -2.399  53.401  1.00  0.00     0.165 HD
HETATM   14  C9  UNL     1      13.765  -2.003  55.750  1.00  0.00     0.030 A 
HETATM   15  C20 UNL     1      11.513  -1.532  56.418  1.00  0.00     0.009 A 
HETATM   16  C8  UNL     1      14.226  -1.739  57.009  1.00  0.00     0.003 A 
HETATM   17  C7  UNL     1      13.295  -1.364  57.980  1.00  0.00     0.008 A 
HETATM   18  C6  UNL     1      11.940  -1.252  57.709  1.00  0.00    -0.045 A 
BRANCH  18  19
HETATM   19  C5  UNL     1      10.965  -0.777  58.698  1.00  0.00     0.039 C 
BRANCH  19  20
HETATM   20  C4  UNL     1      11.696   0.048  59.795  1.00  0.00     0.005 C 
BRANCH  20  21
HETATM   21  C3  UNL     1      11.659  -0.856  61.033  1.00  0.00    -0.000 C 
BRANCH  21  22
HETATM   22  C2  UNL     1      12.977  -0.930  61.743  1.00  0.00    -0.005 C 
HETATM   23  C1  UNL     1      12.808  -1.247  63.213  1.00  0.00     0.005 C 
ENDBRANCH  21  22
ENDBRANCH  20  21
ENDBRANCH  19  20
ENDBRANCH  18  19
ENDBRANCH   1   9
TORSDOF 5
ENDMDL
MODEL 3
REMARK VINA RESULT: -7.249056793      0.795      1.515
REMARK  5 active torsions:
REMARK  status: ('A' for Active; 'I' for Inactive)
REMARK    1  A    between atoms: C2_2  and  C3_3 
REMARK    2  A    between atoms: C3_3  and  C4_4 
REMARK    3  A    between atoms: C4_4  and  C5_5 
REMARK    4  A    between atoms: C5_5  and  C6_6 
REMARK    5  A    between atoms: C12_14  and  C13_15 
ROOT
HETATM    1  C13 UNL     1       9.854  -0.996  58.106  1.00  0.00    -0.022 A 
HETATM    2  C14 UNL     1       9.200  -2.156  57.739  1.00  0.00     0.012 A 
HETATM    3  C15 UNL     1       7.967  -2.120  57.089  1.00  0.00     0.002 A 
HETATM    4  C16 UNL     1       7.354  -0.920  56.788  1.00  0.00     0.023 A 
HETATM    5  C17 UNL     1       8.004   0.238  57.152  1.00  0.00     0.045 A 
HETATM    6  C18 UNL     1       7.408   1.511  56.861  1.00  0.00     0.099 C 
HETATM    7  N2  UNL     1       6.947   2.537  56.614  1.00  0.00    -0.191 NA
HETATM    8  C19 UNL     1       9.221   0.195  57.793  1.00  0.00     0.035 A 
ENDROOT
BRANCH   1   9
HETATM    9  C12 UNL     1      11.105  -1.063  58.837  1.00  0.00     0.003 A 
HETATM   10  C11 UNL     1      11.121  -0.846  60.230  1.00  0.00     0.101 A 
HETATM   11  N1  UNL     1      12.369  -0.879  60.636  1.00  0.00    -0.364 N 
HETATM   12  C10 UNL     1      13.194  -1.109  59.570  1.00  0.00     0.043 A 
ATOM     13  H1  UNL     1      12.677  -0.753  61.600  1.00  0.00     0.165 HD
HETATM   14  C9  UNL     1      14.563  -1.220  59.481  1.00  0.00     0.030 A 
HETATM   15  C20 UNL     1      12.403  -1.228  58.443  1.00  0.00     0.009 A 
HETATM   16  C8  UNL     1      15.174  -1.451  58.281  1.00  0.00     0.003 A 
HETATM   17  C7  UNL     1      14.366  -1.570  57.148  1.00  0.00     0.008 A 
HETATM   18  C6  UNL     1      12.985  -1.465  57.204  1.00  0.00    -0.045 A 
BRANCH  18  19
HETATM   19  C5  UNL     1      12.120  -1.674  56.037  1.00  0.00     0.039 C 
BRANCH  19  20
HETATM   20  C4  UNL     1      11.912  -3.198  55.809  1.00  0.00     0.005 C 
BRANCH  20  21
HETATM   21  C3  UNL     1      10.802  -3.273  54.755  1.00  0.00    -0.000 C 
BRANCH  21  22
HETATM   22  C2  UNL     1      10.832  -2.127  53.789  1.00  0.00    -0.005 C 
HETATM   23  C1  UNL     1       9.939  -0.990  54.234  1.00  0.00     0.005 C 
ENDBRANCH  21  22
ENDBRANCH  20  21
ENDBRANCH  19  20
ENDBRANCH  18  19
ENDBRANCH   1   9
TORSDOF 5
ENDMDL
MODEL 4
REMARK VINA RESULT: -6.703518765      1.734      3.951
REMARK  5 active torsions:
REMARK  status: ('A' for Active; 'I' for Inactive)
REMARK    1  A    between atoms: C2_2  and  C3_3 
REMARK    2  A    between atoms: C3_3  and  C4_4 
REMARK    3  A    between atoms: C4_4  and  C5_5 
REMARK    4  A    between atoms: C5_5  and  C6_6 
REMARK    5  A    between atoms: C12_14  and  C13_15 
ROOT
HETATM    1  C13 UNL     1      12.117  -1.906  55.763  1.00  0.00    -0.022 A 
HETATM    2  C14 UNL     1      11.950  -3.170  55.233  1.00  0.00     0.012 A 
HETATM    3  C15 UNL     1      10.862  -3.476  54.416  1.00  0.00     0.002 A 
HETATM    4  C16 UNL     1       9.911  -2.524  54.109  1.00  0.00     0.023 A 
HETATM    5  C17 UNL     1      10.075  -1.263  54.636  1.00  0.00     0.045 A 
HETATM    6  C18 UNL     1       9.113  -0.238  54.345  1.00  0.00     0.099 C 
HETATM    7  N2  UNL     1       8.357   0.596  54.101  1.00  0.00    -0.191 NA
HETATM    8  C19 UNL     1      11.152  -0.968  55.441  1.00  0.00     0.035 A 
ENDROOT
BRANCH   1   9
HETATM    9  C12 UNL     1      13.224  -1.631  56.661  1.00  0.00     0.003 A 
HETATM   10  C11 UNL     1      14.536  -1.535  56.156  1.00  0.00     0.101 A 
HETATM   11  N1  UNL     1      15.354  -1.365  57.168  1.00  0.00    -0.364 N 
HETATM   12  C10 UNL     1      14.643  -1.342  58.335  1.00  0.00     0.043 A 
ATOM     13  H1  UNL     1      16.367  -1.264  57.094  1.00  0.00     0.165 HD
HETATM   14  C9  UNL     1      15.042  -1.200  59.645  1.00  0.00     0.030 A 
HETATM   15  C20 UNL     1      13.308  -1.505  58.019  1.00  0.00     0.009 A 
HETATM   16  C8  UNL     1      14.131  -1.215  60.663  1.00  0.00     0.003 A 
HETATM   17  C7  UNL     1      12.784  -1.380  60.333  1.00  0.00     0.008 A 
HETATM   18  C6  UNL     1      12.350  -1.524  59.025  1.00  0.00    -0.045 A 
BRANCH  18  19
HETATM   19  C5  UNL     1      10.932  -1.611  58.659  1.00  0.00     0.039 C 
BRANCH  19  20
HETATM   20  C4  UNL     1      10.159  -0.416  59.284  1.00  0.00     0.005 C 
BRANCH  20  21
HETATM   21  C3  UNL     1       9.114  -0.047  58.224  1.00  0.00    -0.000 C 
BRANCH  21  22
HETATM   22  C2  UNL     1       8.300  -1.221  57.770  1.00  0.00    -0.005 C 
HETATM   23  C1  UNL     1       6.879  -0.825  57.431  1.00  0.00     0.005 C 
ENDBRANCH  21  22
ENDBRANCH  20  21
ENDBRANCH  19  20
ENDBRANCH  18  19
ENDBRANCH   1   9
TORSDOF 5
ENDMDL
MODEL 5
REMARK VINA RESULT: -6.700490308      1.532      2.007
REMARK  5 active torsions:
REMARK  status: ('A' for Active; 'I' for Inactive)
REMARK    1  A    between atoms: C2_2  and  C3_3 
REMARK    2  A    between atoms: C3_3  and  C4_4 
REMARK    3  A    between atoms: C4_4  and  C5_5 
REMARK    4  A    between atoms: C5_5  and  C6_6 
REMARK    5  A    between atoms: C12_14  and  C13_15 
ROOT
HETATM    1  C13 UNL     1       9.092  -0.548  57.825  1.00  0.00    -0.022 A 
HETATM    2  C14 UNL     1       8.769   0.703  57.337  1.00  0.00     0.012 A 
HETATM    3  C15 UNL     1       7.516   0.964  56.784  1.00  0.00     0.002 A 
HETATM    4  C16 UNL     1       6.553  -0.022  56.702  1.00  0.00     0.023 A 
HETATM    5  C17 UNL     1       6.873  -1.269  57.188  1.00  0.00     0.045 A 
HETATM    6  C18 UNL     1       5.905  -2.327  57.127  1.00  0.00     0.099 C 
HETATM    7  N2  UNL     1       5.127  -3.177  57.099  1.00  0.00    -0.191 NA
HETATM    8  C19 UNL     1       8.111  -1.520  57.735  1.00  0.00     0.035 A 
ENDROOT
BRANCH   1   9
HETATM    9  C12 UNL     1      10.424  -0.810  58.339  1.00  0.00     0.003 A 
HETATM   10  C11 UNL     1      10.665  -0.774  59.728  1.00  0.00     0.101 A 
HETATM   11  N1  UNL     1      11.949  -0.961  59.927  1.00  0.00    -0.364 N 
HETATM   12  C10 UNL     1      12.582  -1.121  58.726  1.00  0.00     0.043 A 
ATOM     13  H1  UNL     1      12.405  -0.983  60.839  1.00  0.00     0.165 HD
HETATM   14  C9  UNL     1      13.905  -1.333  58.411  1.00  0.00     0.030 A 
HETATM   15  C20 UNL     1      11.627  -1.031  57.730  1.00  0.00     0.009 A 
HETATM   16  C8  UNL     1      14.308  -1.460  57.111  1.00  0.00     0.003 A 
HETATM   17  C7  UNL     1      13.335  -1.367  56.114  1.00  0.00     0.008 A 
HETATM   18  C6  UNL     1      11.995  -1.157  56.397  1.00  0.00    -0.045 A 
BRANCH  18  19
HETATM   19  C5  UNL     1      10.953  -1.144  55.364  1.00  0.00     0.039 C 
BRANCH  19  20
HETATM   20  C4  UNL     1      11.078  -2.419  54.483  1.00  0.00     0.005 C 
BRANCH  20  21
HETATM   21  C3  UNL     1      10.680  -3.565  55.421  1.00  0.00    -0.000 C 
BRANCH  21  22
HETATM   22  C2  UNL     1      11.843  -4.419  55.827  1.00  0.00    -0.005 C 
HETATM   23  C1  UNL     1      11.905  -4.611  57.327  1.00  0.00     0.005 C 
ENDBRANCH  21  22
ENDBRANCH  20  21
ENDBRANCH  19  20
ENDBRANCH  18  19
ENDBRANCH   1   9
TORSDOF 5
ENDMDL
