MODEL 1
REMARK VINA RESULT: -6.716441137      0.000      0.000
REMARK  8 active torsions:
REMARK  status: ('A' for Active; 'I' for Inactive)
REMARK    1  A    between atoms: N1_1  and  N2_4 
REMARK    2  A    between atoms: C1_5  and  O1_6 
REMARK    3  A    between atoms: C2_8  and  O2_9 
REMARK    4  A    between atoms: C3_11  and  N3_12 
REMARK    5  A    between atoms: N6_25  and  C9_26 
REMARK    6  A    between atoms: C9_26  and  O6_27 
REMARK    7  A    between atoms: C10_29  and  O7_30 
REMARK    8  A    between atoms: C10_29  and  O8_32 
ROOT
HETATM    1  N3  UNL     1      20.887  26.141 101.065  1.00  0.00    -0.268 N 
HETATM    2  C4  UNL     1      21.809  27.117 101.186  1.00  0.00     0.331 A 
HETATM    3  O3  UNL     1      22.888  26.991 100.562  1.00  0.00    -0.246 OA
HETATM    4  N4  UNL     1      21.640  28.219 101.934  1.00  0.00    -0.273 N 
ATOM      5  H4  UNL     1      22.387  28.913 101.972  1.00  0.00     0.173 HD
HETATM    6  C5  UNL     1      20.505  28.434 102.639  1.00  0.00     0.280 A 
HETATM    7  O4  UNL     1      20.393  29.483 103.326  1.00  0.00    -0.265 OA
HETATM    8  C6  UNL     1      19.541  27.474 102.551  1.00  0.00     0.154 A 
HETATM    9  C7  UNL     1      19.742  26.365 101.782  1.00  0.00     0.149 A 
HETATM   10  N5  UNL     1      18.637  25.620 101.895  1.00  0.00    -0.292 N 
ATOM     11  H5  UNL     1      18.473  24.723 101.439  1.00  0.00     0.172 HD
HETATM   12  C8  UNL     1      17.779  26.254 102.713  1.00  0.00     0.330 A 
HETATM   13  O5  UNL     1      16.645  25.823 103.029  1.00  0.00    -0.246 OA
HETATM   14  N6  UNL     1      18.332  27.406 103.124  1.00  0.00    -0.269 N 
ENDROOT
BRANCH   1  15
HETATM   15  C3  UNL     1      21.063  24.971 100.273  1.00  0.00     0.216 C 
HETATM   16  C2  UNL     1      20.972  23.661 100.998  1.00  0.00     0.199 C 
HETATM   17  C1  UNL     1      19.782  22.937 100.377  1.00  0.00     0.271 C 
HETATM   18  N2  UNL     1      19.425  23.637  99.202  1.00  0.00    -0.242 N 
HETATM   19  C10 UNL     1      20.156  24.846  99.080  1.00  0.00     0.286 C 
BRANCH  16  20
HETATM   20  O2  UNL     1      20.900  23.751 102.365  1.00  0.00    -0.389 OA
ATOM     21  H2  UNL     1      21.410  24.469 102.723  1.00  0.00     0.210 HD
ENDBRANCH  16  20
BRANCH  17  22
HETATM   22  O1  UNL     1      20.138  21.623  99.983  1.00  0.00    -0.372 OA
ATOM     23  H1  UNL     1      20.913  21.385 100.480  1.00  0.00     0.212 HD
ENDBRANCH  17  22
BRANCH  18  24
HETATM   24  N1  UNL     1      18.110  23.648  98.831  1.00  0.00    -0.340 N 
ATOM     25  H12 UNL     1      17.462  23.066  99.362  1.00  0.00     0.176 HD
ATOM     26  H11 UNL     1      17.889  23.635  97.835  1.00  0.00     0.176 HD
ENDBRANCH  18  24
BRANCH  19  27
HETATM   27  O7  UNL     1      20.885  24.748  97.865  1.00  0.00    -0.346 OA
ATOM     28  H7  UNL     1      21.156  23.841  97.790  1.00  0.00     0.215 HD
ENDBRANCH  19  27
BRANCH  19  29
HETATM   29  O8  UNL     1      19.343  25.978  98.892  1.00  0.00    -0.346 OA
ATOM     30  H8  UNL     1      19.405  26.349  98.020  1.00  0.00     0.215 HD
ENDBRANCH  19  29
ENDBRANCH   1  15
BRANCH  14  31
HETATM   31  C9  UNL     1      17.695  28.359 104.021  1.00  0.00     0.300 C 
BRANCH  31  32
HETATM   32  O6  UNL     1      16.428  28.649 103.530  1.00  0.00    -0.382 OA
ATOM     33  H6  UNL     1      16.521  29.207 102.767  1.00  0.00     0.211 HD
ENDBRANCH  31  32
ENDBRANCH  14  31
TORSDOF 8
ENDMDL
MODEL 2
REMARK VINA RESULT: -6.635797374      1.509      3.922
REMARK  8 active torsions:
REMARK  status: ('A' for Active; 'I' for Inactive)
REMARK    1  A    between atoms: N1_1  and  N2_4 
REMARK    2  A    between atoms: C1_5  and  O1_6 
REMARK    3  A    between atoms: C2_8  and  O2_9 
REMARK    4  A    between atoms: C3_11  and  N3_12 
REMARK    5  A    between atoms: N6_25  and  C9_26 
REMARK    6  A    between atoms: C9_26  and  O6_27 
REMARK    7  A    between atoms: C10_29  and  O7_30 
REMARK    8  A    between atoms: C10_29  and  O8_32 
ROOT
HETATM    1  N3  UNL     1      18.528  26.101 101.770  1.00  0.00    -0.268 N 
HETATM    2  C4  UNL     1      17.764  26.804 102.631  1.00  0.00     0.331 A 
HETATM    3  O3  UNL     1      16.593  26.409 102.839  1.00  0.00    -0.246 OA
HETATM    4  N4  UNL     1      18.182  27.901 103.281  1.00  0.00    -0.273 N 
ATOM      5  H4  UNL     1      17.542  28.376 103.917  1.00  0.00     0.173 HD
HETATM    6  C5  UNL     1      19.432  28.394 103.115  1.00  0.00     0.280 A 
HETATM    7  O4  UNL     1      19.779  29.426 103.747  1.00  0.00    -0.265 OA
HETATM    8  C6  UNL     1      20.245  27.719 102.252  1.00  0.00     0.154 A 
HETATM    9  C7  UNL     1      19.790  26.607 101.606  1.00  0.00     0.149 A 
HETATM   10  N5  UNL     1      20.799  26.174 100.843  1.00  0.00    -0.292 N 
ATOM     11  H5  UNL     1      20.777  25.356 100.233  1.00  0.00     0.172 HD
HETATM   12  C8  UNL     1      21.846  26.998 101.014  1.00  0.00     0.330 A 
HETATM   13  O5  UNL     1      22.954  26.873 100.440  1.00  0.00    -0.246 OA
HETATM   14  N6  UNL     1      21.510  27.960 101.887  1.00  0.00    -0.269 N 
ENDROOT
BRANCH   1  15
HETATM   15  C3  UNL     1      18.087  24.937 101.079  1.00  0.00     0.216 C 
HETATM   16  C2  UNL     1      18.050  25.031  99.582  1.00  0.00     0.199 C 
HETATM   17  C1  UNL     1      19.038  23.979  99.087  1.00  0.00     0.271 C 
HETATM   18  N2  UNL     1      19.370  23.157 100.188  1.00  0.00    -0.242 N 
HETATM   19  C10 UNL     1      18.829  23.668 101.395  1.00  0.00     0.286 C 
BRANCH  16  20
HETATM   20  O2  UNL     1      18.282  26.281  99.067  1.00  0.00    -0.389 OA
ATOM     21  H2  UNL     1      17.523  26.851  99.103  1.00  0.00     0.210 HD
ENDBRANCH  16  20
BRANCH  17  22
HETATM   22  O1  UNL     1      18.440  23.142  98.112  1.00  0.00    -0.372 OA
ATOM     23  H1  UNL     1      17.623  23.554  97.857  1.00  0.00     0.212 HD
ENDBRANCH  17  22
BRANCH  18  24
HETATM   24  N1  UNL     1      20.623  22.614 100.233  1.00  0.00    -0.340 N 
ATOM     25  H12 UNL     1      20.851  21.889  99.553  1.00  0.00     0.176 HD
ATOM     26  H11 UNL     1      21.026  22.404 101.147  1.00  0.00     0.176 HD
ENDBRANCH  18  24
BRANCH  19  27
HETATM   27  O7  UNL     1      17.966  22.659 101.900  1.00  0.00    -0.346 OA
ATOM     28  H7  UNL     1      17.750  22.916 102.789  1.00  0.00     0.215 HD
ENDBRANCH  19  27
BRANCH  19  29
HETATM   29  O8  UNL     1      19.783  23.833 102.414  1.00  0.00    -0.346 OA
ATOM     30  H8  UNL     1      19.909  24.738 102.673  1.00  0.00     0.215 HD
ENDBRANCH  19  29
ENDBRANCH   1  15
BRANCH  14  31
HETATM   31  C9  UNL     1      22.393  29.035 102.319  1.00  0.00     0.300 C 
BRANCH  31  32
HETATM   32  O6  UNL     1      22.889  29.678 101.192  1.00  0.00    -0.382 OA
ATOM     33  H6  UNL     1      22.186  30.178 100.795  1.00  0.00     0.211 HD
ENDBRANCH  31  32
ENDBRANCH  14  31
TORSDOF 8
ENDMDL
MODEL 3
REMARK VINA RESULT: -6.563766046      3.057      5.770
REMARK  8 active torsions:
REMARK  status: ('A' for Active; 'I' for Inactive)
REMARK    1  A    between atoms: N1_1  and  N2_4 
REMARK    2  A    between atoms: C1_5  and  O1_6 
REMARK    3  A    between atoms: C2_8  and  O2_9 
REMARK    4  A    between atoms: C3_11  and  N3_12 
REMARK    5  A    between atoms: N6_25  and  C9_26 
REMARK    6  A    between atoms: C9_26  and  O6_27 
REMARK    7  A    between atoms: C10_29  and  O7_30 
REMARK    8  A    between atoms: C10_29  and  O8_32 
ROOT
HETATM    1  N3  UNL     1      16.035  27.201 102.601  1.00  0.00    -0.268 N 
HETATM    2  C4  UNL     1      14.738  27.563 102.537  1.00  0.00     0.331 A 
HETATM    3  O3  UNL     1      14.469  28.747 102.228  1.00  0.00    -0.246 OA
HETATM    4  N4  UNL     1      13.714  26.730 102.784  1.00  0.00    -0.273 N 
ATOM      5  H4  UNL     1      12.759  27.082 102.714  1.00  0.00     0.173 HD
HETATM    6  C5  UNL     1      13.915  25.435 103.123  1.00  0.00     0.280 A 
HETATM    7  O4  UNL     1      12.923  24.692 103.344  1.00  0.00    -0.265 OA
HETATM    8  C6  UNL     1      15.212  25.019 103.202  1.00  0.00     0.154 A 
HETATM    9  C7  UNL     1      16.231  25.890 102.946  1.00  0.00     0.149 A 
HETATM   10  N5  UNL     1      17.366  25.200 103.101  1.00  0.00    -0.292 N 
ATOM     11  H5  UNL     1      18.309  25.568 102.980  1.00  0.00     0.172 HD
HETATM   12  C8  UNL     1      17.053  23.939 103.445  1.00  0.00     0.330 A 
HETATM   13  O5  UNL     1      17.890  23.032 103.666  1.00  0.00    -0.246 OA
HETATM   14  N6  UNL     1      15.718  23.818 103.509  1.00  0.00    -0.269 N 
ENDROOT
BRANCH   1  15
HETATM   15  C3  UNL     1      17.123  28.081 102.341  1.00  0.00     0.216 C 
HETATM   16  C2  UNL     1      18.035  28.366 103.497  1.00  0.00     0.199 C 
HETATM   17  C1  UNL     1      19.401  27.836 103.073  1.00  0.00     0.271 C 
HETATM   18  N2  UNL     1      19.339  27.560 101.688  1.00  0.00    -0.242 N 
HETATM   19  C10 UNL     1      18.017  27.696 101.194  1.00  0.00     0.286 C 
BRANCH  16  20
HETATM   20  O2  UNL     1      17.615  27.879 104.709  1.00  0.00    -0.389 OA
ATOM     21  H2  UNL     1      16.746  28.175 104.953  1.00  0.00     0.210 HD
ENDBRANCH  16  20
BRANCH  17  22
HETATM   22  O1  UNL     1      20.405  28.821 103.252  1.00  0.00    -0.372 OA
ATOM     23  H1  UNL     1      20.010  29.531 103.746  1.00  0.00     0.212 HD
ENDBRANCH  17  22
BRANCH  18  24
HETATM   24  N1  UNL     1      20.098  26.533 101.199  1.00  0.00    -0.340 N 
ATOM     25  H12 UNL     1      20.468  26.625 100.254  1.00  0.00     0.176 HD
ATOM     26  H11 UNL     1      19.796  25.577 101.388  1.00  0.00     0.176 HD
ENDBRANCH  18  24
BRANCH  19  27
HETATM   27  O7  UNL     1      18.068  28.705 100.197  1.00  0.00    -0.346 OA
ATOM     28  H7  UNL     1      18.016  29.535 100.656  1.00  0.00     0.215 HD
ENDBRANCH  19  27
BRANCH  19  29
HETATM   29  O8  UNL     1      17.556  26.564 100.500  1.00  0.00    -0.346 OA
ATOM     30  H8  UNL     1      16.943  26.036 100.997  1.00  0.00     0.215 HD
ENDBRANCH  19  29
ENDBRANCH   1  15
BRANCH  14  31
HETATM   31  C9  UNL     1      15.011  22.593 103.853  1.00  0.00     0.300 C 
BRANCH  31  32
HETATM   32  O6  UNL     1      14.548  22.701 105.159  1.00  0.00    -0.382 OA
ATOM     33  H6  UNL     1      14.210  21.856 105.430  1.00  0.00     0.211 HD
ENDBRANCH  31  32
ENDBRANCH  14  31
TORSDOF 8
ENDMDL
MODEL 4
REMARK VINA RESULT: -6.515760373      1.354      3.761
REMARK  8 active torsions:
REMARK  status: ('A' for Active; 'I' for Inactive)
REMARK    1  A    between atoms: N1_1  and  N2_4 
REMARK    2  A    between atoms: C1_5  and  O1_6 
REMARK    3  A    between atoms: C2_8  and  O2_9 
REMARK    4  A    between atoms: C3_11  and  N3_12 
REMARK    5  A    between atoms: N6_25  and  C9_26 
REMARK    6  A    between atoms: C9_26  and  O6_27 
REMARK    7  A    between atoms: C10_29  and  O7_30 
REMARK    8  A    between atoms: C10_29  and  O8_32 
ROOT
HETATM    1  N3  UNL     1      18.438  25.792 101.752  1.00  0.00    -0.268 N 
HETATM    2  C4  UNL     1      17.322  25.998 102.480  1.00  0.00     0.331 A 
HETATM    3  O3  UNL     1      16.386  25.171 102.374  1.00  0.00    -0.246 OA
HETATM    4  N4  UNL     1      17.152  27.036 103.315  1.00  0.00    -0.273 N 
ATOM      5  H4  UNL     1      16.276  27.120 103.831  1.00  0.00     0.173 HD
HETATM    6  C5  UNL     1      18.112  27.974 103.489  1.00  0.00     0.280 A 
HETATM    7  O4  UNL     1      17.906  28.929 104.283  1.00  0.00    -0.265 OA
HETATM    8  C6  UNL     1      19.261  27.812 102.773  1.00  0.00     0.154 A 
HETATM    9  C7  UNL     1      19.404  26.746 101.933  1.00  0.00     0.149 A 
HETATM   10  N5  UNL     1      20.617  26.858 101.382  1.00  0.00    -0.292 N 
ATOM     11  H5  UNL     1      21.027  26.214 100.707  1.00  0.00     0.172 HD
HETATM   12  C8  UNL     1      21.205  27.964 101.870  1.00  0.00     0.330 A 
HETATM   13  O5  UNL     1      22.353  28.359 101.556  1.00  0.00    -0.246 OA
HETATM   14  N6  UNL     1      20.370  28.561 102.735  1.00  0.00    -0.269 N 
ENDROOT
BRANCH   1  15
HETATM   15  C3  UNL     1      18.621  24.693 100.866  1.00  0.00     0.216 C 
HETATM   16  C2  UNL     1      18.797  25.034  99.416  1.00  0.00     0.199 C 
HETATM   17  C1  UNL     1      20.191  24.533  99.050  1.00  0.00     0.271 C 
HETATM   18  N2  UNL     1      20.638  23.710 100.108  1.00  0.00    -0.242 N 
HETATM   19  C10 UNL     1      19.747  23.756 101.210  1.00  0.00     0.286 C 
BRANCH  16  20
HETATM   20  O2  UNL     1      18.591  26.352  99.095  1.00  0.00    -0.389 OA
ATOM     21  H2  UNL     1      17.675  26.604  99.111  1.00  0.00     0.210 HD
ENDBRANCH  16  20
BRANCH  17  22
HETATM   22  O1  UNL     1      20.149  23.725  97.887  1.00  0.00    -0.372 OA
ATOM     23  H1  UNL     1      19.674  22.934  98.116  1.00  0.00     0.212 HD
ENDBRANCH  17  22
BRANCH  18  24
HETATM   24  N1  UNL     1      21.978  23.674 100.376  1.00  0.00    -0.340 N 
ATOM     25  H12 UNL     1      22.296  23.055 101.121  1.00  0.00     0.176 HD
ATOM     26  H11 UNL     1      22.494  24.554 100.379  1.00  0.00     0.176 HD
ENDBRANCH  18  24
BRANCH  19  27
HETATM   27  O7  UNL     1      19.291  22.426 101.406  1.00  0.00    -0.346 OA
ATOM     28  H7  UNL     1      18.411  22.392 101.050  1.00  0.00     0.215 HD
ENDBRANCH  19  27
BRANCH  19  29
HETATM   29  O8  UNL     1      20.372  24.078 102.427  1.00  0.00    -0.346 OA
ATOM     30  H8  UNL     1      19.911  23.750 103.190  1.00  0.00     0.215 HD
ENDBRANCH  19  29
ENDBRANCH   1  15
BRANCH  14  31
HETATM   31  C9  UNL     1      20.666  29.788 103.461  1.00  0.00     0.300 C 
BRANCH  31  32
HETATM   32  O6  UNL     1      21.357  30.646 102.616  1.00  0.00    -0.382 OA
ATOM     33  H6  UNL     1      21.981  31.142 103.134  1.00  0.00     0.211 HD
ENDBRANCH  31  32
ENDBRANCH  14  31
TORSDOF 8
ENDMDL
MODEL 5
REMARK VINA RESULT: -6.474036218      1.616      2.471
REMARK  8 active torsions:
REMARK  status: ('A' for Active; 'I' for Inactive)
REMARK    1  A    between atoms: N1_1  and  N2_4 
REMARK    2  A    between atoms: C1_5  and  O1_6 
REMARK    3  A    between atoms: C2_8  and  O2_9 
REMARK    4  A    between atoms: C3_11  and  N3_12 
REMARK    5  A    between atoms: N6_25  and  C9_26 
REMARK    6  A    between atoms: C9_26  and  O6_27 
REMARK    7  A    between atoms: C10_29  and  O7_30 
REMARK    8  A    between atoms: C10_29  and  O8_32 
ROOT
HETATM    1  N3  UNL     1      21.631  24.732 100.674  1.00  0.00    -0.268 N 
HETATM    2  C4  UNL     1      22.979  24.738 100.630  1.00  0.00     0.331 A 
HETATM    3  O3  UNL     1      23.555  23.791 100.045  1.00  0.00    -0.246 OA
HETATM    4  N4  UNL     1      23.742  25.699 101.173  1.00  0.00    -0.273 N 
ATOM      5  H4  UNL     1      24.757  25.630 101.096  1.00  0.00     0.173 HD
HETATM    6  C5  UNL     1      23.201  26.757 101.821  1.00  0.00     0.280 A 
HETATM    7  O4  UNL     1      23.959  27.633 102.315  1.00  0.00    -0.265 OA
HETATM    8  C6  UNL     1      21.840  26.797 101.895  1.00  0.00     0.154 A 
HETATM    9  C7  UNL     1      21.091  25.805 101.332  1.00  0.00     0.149 A 
HETATM   10  N5  UNL     1      19.812  26.118 101.565  1.00  0.00    -0.292 N 
ATOM     11  H5  UNL     1      19.002  25.574 101.270  1.00  0.00     0.172 HD
HETATM   12  C8  UNL     1      19.775  27.272 102.252  1.00  0.00     0.330 A 
HETATM   13  O5  UNL     1      18.725  27.844 102.631  1.00  0.00    -0.246 OA
HETATM   14  N6  UNL     1      21.030  27.700 102.461  1.00  0.00    -0.269 N 
ENDROOT
BRANCH   1  15
HETATM   15  C3  UNL     1      20.818  23.714 100.099  1.00  0.00     0.216 C 
HETATM   16  C2  UNL     1      19.984  22.914 101.055  1.00  0.00     0.199 C 
HETATM   17  C1  UNL     1      18.538  23.186 100.654  1.00  0.00     0.271 C 
HETATM   18  N2  UNL     1      18.560  23.831  99.396  1.00  0.00    -0.242 N 
HETATM   19  C10 UNL     1      19.883  24.161  99.009  1.00  0.00     0.286 C 
BRANCH  16  20
HETATM   20  O2  UNL     1      20.233  23.145 102.384  1.00  0.00    -0.389 OA
ATOM     21  H2  UNL     1      19.772  23.902 102.728  1.00  0.00     0.210 HD
ENDBRANCH  16  20
BRANCH  17  22
HETATM   22  O1  UNL     1      17.823  21.973 100.484  1.00  0.00    -0.372 OA
ATOM     23  H1  UNL     1      17.006  22.064 100.960  1.00  0.00     0.212 HD
ENDBRANCH  17  22
BRANCH  18  24
HETATM   24  N1  UNL     1      17.571  24.731  99.115  1.00  0.00    -0.340 N 
ATOM     25  H12 UNL     1      16.773  24.405  98.571  1.00  0.00     0.176 HD
ATOM     26  H11 UNL     1      17.842  25.677  98.845  1.00  0.00     0.176 HD
ENDBRANCH  18  24
BRANCH  19  27
HETATM   27  O7  UNL     1      20.122  23.477  97.788  1.00  0.00    -0.346 OA
ATOM     28  H7  UNL     1      20.822  23.948  97.353  1.00  0.00     0.215 HD
ENDBRANCH  19  27
BRANCH  19  29
HETATM   29  O8  UNL     1      20.048  25.516  98.670  1.00  0.00    -0.346 OA
ATOM     30  H8  UNL     1      20.259  26.070  99.412  1.00  0.00     0.215 HD
ENDBRANCH  19  29
ENDBRANCH   1  15
BRANCH  14  31
HETATM   31  C9  UNL     1      21.383  28.919 103.174  1.00  0.00     0.300 C 
BRANCH  31  32
HETATM   32  O6  UNL     1      20.854  30.003 102.485  1.00  0.00    -0.382 OA
ATOM     33  H6  UNL     1      19.918  30.035 102.644  1.00  0.00     0.211 HD
ENDBRANCH  31  32
ENDBRANCH  14  31
TORSDOF 8
ENDMDL
