MODEL 1
REMARK VINA RESULT: -5.628844261      0.000      0.000
REMARK  2 active torsions:
REMARK  status: ('A' for Active; 'I' for Inactive)
REMARK    1  A    between atoms: C4_4  and  N1_5 
REMARK    2  A    between atoms: N1_5  and  C5_7 
ROOT
HETATM    1  C5  UNL     1      10.483   2.984  -5.037  1.00  0.00     0.094 C 
HETATM    2  C6  UNL     1      10.795   4.091  -6.033  1.00  0.00     0.028 C 
HETATM    3  C7  UNL     1      10.096   3.898  -7.340  1.00  0.00     0.021 C 
HETATM    4  C8  UNL     1      10.362   2.548  -7.930  1.00  0.00     0.114 C 
HETATM    5  N2  UNL     1      10.711   1.530  -7.016  1.00  0.00    -0.419 N 
ATOM      6  H2  UNL     1      11.274   0.730  -7.304  1.00  0.00     0.153 HD
HETATM    7  C9  UNL     1      10.244   1.665  -5.672  1.00  0.00     0.138 C 
ENDROOT
BRANCH   1   8
HETATM    8  N1  UNL     1      11.438   3.073  -4.018  1.00  0.00    -0.411 N 
ATOM      9  H1  UNL     1      11.226   3.631  -3.191  1.00  0.00     0.154 HD
BRANCH   8  10
HETATM   10  C4  UNL     1      12.676   2.420  -4.096  1.00  0.00     0.077 C 
HETATM   11  C3  UNL     1      13.903   3.265  -3.966  1.00  0.00     0.024 C 
HETATM   12  C2  UNL     1      14.925   2.220  -3.518  1.00  0.00     0.002 C 
HETATM   13  C1  UNL     1      14.180   1.538  -2.407  1.00  0.00     0.002 C 
HETATM   14  C10 UNL     1      12.760   1.534  -2.859  1.00  0.00     0.024 C 
ENDBRANCH   8  10
ENDBRANCH   1   8
TORSDOF 2
ENDMDL
MODEL 2
REMARK VINA RESULT: -5.572211414      3.234      5.236
REMARK  2 active torsions:
REMARK  status: ('A' for Active; 'I' for Inactive)
REMARK    1  A    between atoms: C4_4  and  N1_5 
REMARK    2  A    between atoms: N1_5  and  C5_7 
ROOT
HETATM    1  C5  UNL     1      16.302   3.943  -4.743  1.00  0.00     0.094 C 
HETATM    2  C6  UNL     1      16.901   4.056  -6.136  1.00  0.00     0.028 C 
HETATM    3  C7  UNL     1      17.699   5.307  -6.316  1.00  0.00     0.021 C 
HETATM    4  C8  UNL     1      16.916   6.533  -5.963  1.00  0.00     0.114 C 
HETATM    5  N2  UNL     1      15.853   6.348  -5.051  1.00  0.00    -0.419 N 
ATOM      6  H2  UNL     1      15.047   6.973  -5.044  1.00  0.00     0.153 HD
HETATM    7  C9  UNL     1      15.952   5.253  -4.140  1.00  0.00     0.138 C 
ENDROOT
BRANCH   1   8
HETATM    8  N1  UNL     1      15.317   2.951  -4.803  1.00  0.00    -0.411 N 
ATOM      9  H1  UNL     1      15.386   2.230  -5.522  1.00  0.00     0.154 HD
BRANCH   8  10
HETATM   10  C4  UNL     1      14.238   2.914  -3.909  1.00  0.00     0.077 C 
HETATM   11  C3  UNL     1      12.969   2.291  -4.395  1.00  0.00     0.024 C 
HETATM   12  C2  UNL     1      12.308   1.913  -3.069  1.00  0.00     0.002 C 
HETATM   13  C1  UNL     1      13.438   1.221  -2.364  1.00  0.00     0.002 C 
HETATM   14  C10 UNL     1      14.656   1.969  -2.789  1.00  0.00     0.024 C 
ENDBRANCH   8  10
ENDBRANCH   1   8
TORSDOF 2
ENDMDL
MODEL 3
REMARK VINA RESULT: -5.521229517      1.487      1.933
REMARK  2 active torsions:
REMARK  status: ('A' for Active; 'I' for Inactive)
REMARK    1  A    between atoms: C4_4  and  N1_5 
REMARK    2  A    between atoms: N1_5  and  C5_7 
ROOT
HETATM    1  C5  UNL     1      11.707   3.393  -6.153  1.00  0.00     0.094 C 
HETATM    2  C6  UNL     1      10.199   3.268  -6.311  1.00  0.00     0.028 C 
HETATM    3  C7  UNL     1       9.714   3.807  -7.617  1.00  0.00     0.021 C 
HETATM    4  C8  UNL     1      10.167   5.214  -7.852  1.00  0.00     0.114 C 
HETATM    5  N2  UNL     1      11.343   5.608  -7.176  1.00  0.00    -0.419 N 
ATOM      6  H2  UNL     1      11.518   6.585  -6.942  1.00  0.00     0.153 HD
HETATM    7  C9  UNL     1      12.277   4.583  -6.831  1.00  0.00     0.138 C 
ENDROOT
BRANCH   1   8
HETATM    8  N1  UNL     1      11.992   3.196  -4.798  1.00  0.00    -0.411 N 
ATOM      9  H1  UNL     1      11.395   3.638  -4.099  1.00  0.00     0.154 HD
BRANCH   8  10
HETATM   10  C4  UNL     1      13.071   2.411  -4.368  1.00  0.00     0.077 C 
HETATM   11  C3  UNL     1      14.204   3.118  -3.696  1.00  0.00     0.024 C 
HETATM   12  C2  UNL     1      14.825   1.971  -2.897  1.00  0.00     0.002 C 
HETATM   13  C1  UNL     1      13.612   1.383  -2.236  1.00  0.00     0.002 C 
HETATM   14  C10 UNL     1      12.528   1.531  -3.248  1.00  0.00     0.024 C 
ENDBRANCH   8  10
ENDBRANCH   1   8
TORSDOF 2
ENDMDL
MODEL 4
REMARK VINA RESULT: -5.405618128      1.012      1.929
REMARK  2 active torsions:
REMARK  status: ('A' for Active; 'I' for Inactive)
REMARK    1  A    between atoms: C4_4  and  N1_5 
REMARK    2  A    between atoms: N1_5  and  C5_7 
ROOT
HETATM    1  C5  UNL     1      11.141   2.730  -5.545  1.00  0.00     0.094 C 
HETATM    2  C6  UNL     1      10.057   1.662  -5.546  1.00  0.00     0.028 C 
HETATM    3  C7  UNL     1       9.631   1.281  -6.927  1.00  0.00     0.021 C 
HETATM    4  C8  UNL     1       9.221   2.469  -7.741  1.00  0.00     0.114 C 
HETATM    5  N2  UNL     1       9.780   3.707  -7.356  1.00  0.00    -0.419 N 
ATOM      6  H2  UNL     1       9.303   4.587  -7.551  1.00  0.00     0.153 HD
HETATM    7  C9  UNL     1      11.040   3.678  -6.682  1.00  0.00     0.138 C 
ENDROOT
BRANCH   1   8
HETATM    8  N1  UNL     1      11.201   3.248  -4.247  1.00  0.00    -0.411 N 
ATOM      9  H1  UNL     1      10.448   3.857  -3.923  1.00  0.00     0.154 HD
BRANCH   8  10
HETATM   10  C4  UNL     1      12.260   2.959  -3.376  1.00  0.00     0.077 C 
HETATM   11  C3  UNL     1      12.496   1.521  -3.042  1.00  0.00     0.024 C 
HETATM   12  C2  UNL     1      13.965   1.561  -2.619  1.00  0.00     0.002 C 
HETATM   13  C1  UNL     1      14.576   2.334  -3.751  1.00  0.00     0.002 C 
HETATM   14  C10 UNL     1      13.533   3.330  -4.127  1.00  0.00     0.024 C 
ENDBRANCH   8  10
ENDBRANCH   1   8
TORSDOF 2
ENDMDL
MODEL 5
REMARK VINA RESULT: -5.351430089      0.963      1.115
REMARK  2 active torsions:
REMARK  status: ('A' for Active; 'I' for Inactive)
REMARK    1  A    between atoms: C4_4  and  N1_5 
REMARK    2  A    between atoms: N1_5  and  C5_7 
ROOT
HETATM    1  C5  UNL     1      11.096   3.035  -5.746  1.00  0.00     0.094 C 
HETATM    2  C6  UNL     1      12.155   2.744  -6.799  1.00  0.00     0.028 C 
HETATM    3  C7  UNL     1      11.565   2.276  -8.089  1.00  0.00     0.021 C 
HETATM    4  C8  UNL     1      10.653   1.104  -7.902  1.00  0.00     0.114 C 
HETATM    5  N2  UNL     1      10.066   0.973  -6.624  1.00  0.00    -0.419 N 
ATOM      6  H2  UNL     1       9.773   0.064  -6.266  1.00  0.00     0.153 HD
HETATM    7  C9  UNL     1       9.900   2.164  -5.852  1.00  0.00     0.138 C 
ENDROOT
BRANCH   1   8
HETATM    8  N1  UNL     1      11.757   3.115  -4.515  1.00  0.00    -0.411 N 
ATOM      9  H1  UNL     1      11.360   3.700  -3.780  1.00  0.00     0.154 HD
BRANCH   8  10
HETATM   10  C4  UNL     1      12.946   2.419  -4.259  1.00  0.00     0.077 C 
HETATM   11  C3  UNL     1      14.100   3.209  -3.730  1.00  0.00     0.024 C 
HETATM   12  C2  UNL     1      14.918   2.107  -3.055  1.00  0.00     0.002 C 
HETATM   13  C1  UNL     1      13.861   1.408  -2.251  1.00  0.00     0.002 C 
HETATM   14  C10 UNL     1      12.639   1.478  -3.100  1.00  0.00     0.024 C 
ENDBRANCH   8  10
ENDBRANCH   1   8
TORSDOF 2
ENDMDL
