MODEL 1
REMARK VINA RESULT: -9.642038277      0.000      0.000
REMARK  10 active torsions:
REMARK  status: ('A' for Active; 'I' for Inactive)
REMARK    1  A    between atoms: C3_5  and  N2_6 
REMARK    2  A    between atoms: N3_9  and  C4_10 
REMARK    3  A    between atoms: C4_10  and  C5_11 
REMARK       I    between atoms: C5_11  and  N4_13 
REMARK    4  A    between atoms: N4_13  and  N5_15 
REMARK       I    between atoms: N5_15  and  C6_17 
REMARK    5  A    between atoms: C6_17  and  C7_19 
REMARK       I    between atoms: C7_19  and  N6_21 
REMARK    6  A    between atoms: N6_21  and  N7_23 
REMARK    7  A    between atoms: C8_25  and  C9_26 
REMARK    8  A    between atoms: C12_29  and  N8_30 
REMARK    9  A    between atoms: C15_35  and  O6_36 
REMARK   10  A    between atoms: C16_38  and  O7_39 
ROOT
HETATM    1  C5  UNL     1       8.770  39.040  35.211  1.00  0.00     0.255 C 
HETATM    2  O1  UNL     1       7.715  38.370  35.402  1.00  0.00    -0.270 OA
HETATM    3  N4  UNL     1       9.642  39.204  36.295  1.00  0.00    -0.266 N 
ATOM      4  H4  UNL     1      10.500  39.741  36.170  1.00  0.00     0.190 HD
ENDROOT
BRANCH   3   5
HETATM    5  N5  UNL     1       9.360  38.649  37.532  1.00  0.00    -0.259 N 
HETATM    6  C6  UNL     1      10.363  38.230  38.435  1.00  0.00     0.329 C 
HETATM    7  O2  UNL     1      11.570  38.363  38.107  1.00  0.00    -0.261 OA
ATOM      8  H5  UNL     1       8.383  38.539  37.805  1.00  0.00     0.190 HD
BRANCH   6   9
HETATM    9  C7  UNL     1       9.999  37.659  39.708  1.00  0.00     0.329 C 
HETATM   10  O3  UNL     1      10.767  36.904  40.343  1.00  0.00    -0.261 OA
HETATM   11  N6  UNL     1       8.723  37.950  40.283  1.00  0.00    -0.262 N 
ATOM     12  H6  UNL     1       8.082  38.564  39.779  1.00  0.00     0.190 HD
BRANCH  11  13
HETATM   13  N7  UNL     1       8.341  37.442  41.465  1.00  0.00    -0.308 N 
HETATM   14  C8  UNL     1       7.777  36.467  41.964  1.00  0.00     0.118 C 
ATOM     15  H7  UNL     1       8.611  38.086  42.207  1.00  0.00     0.186 HD
BRANCH  14  16
HETATM   16  C9  UNL     1       7.227  35.308  41.285  1.00  0.00    -0.019 A 
HETATM   17  C10 UNL     1       7.211  35.235  39.899  1.00  0.00     0.015 A 
HETATM   18  C11 UNL     1       6.684  34.125  39.282  1.00  0.00     0.037 A 
HETATM   19  C12 UNL     1       6.169  33.079  40.006  1.00  0.00     0.102 A 
HETATM   20  C13 UNL     1       6.185  33.152  41.384  1.00  0.00     0.037 A 
HETATM   21  C14 UNL     1       6.703  34.244  42.020  1.00  0.00     0.015 A 
BRANCH  19  22
HETATM   22  N8  UNL     1       5.639  31.957  39.312  1.00  0.00    -0.116 N 
HETATM   23  O4  UNL     1       5.293  32.111  38.127  1.00  0.00    -0.532 OA
HETATM   24  O5  UNL     1       5.517  30.749  39.945  1.00  0.00    -0.532 OA
ENDBRANCH  19  22
ENDBRANCH  14  16
ENDBRANCH  11  13
ENDBRANCH   6   9
ENDBRANCH   3   5
BRANCH   1  25
HETATM   25  C4  UNL     1       8.998  39.599  33.841  1.00  0.00     0.254 C 
BRANCH  25  26
HETATM   26  N3  UNL     1       9.963  38.811  33.093  1.00  0.00    -0.151 N 
HETATM   27  C3  UNL     1       9.647  37.601  32.587  1.00  0.00     0.680 A 
HETATM   28  N1  UNL     1      10.572  36.861  31.898  1.00  0.00    -0.193 N 
HETATM   29  C2  UNL     1      11.817  37.272  31.683  1.00  0.00     0.060 A 
ATOM     30  H1  UNL     1      10.290  35.951  31.532  1.00  0.00     0.184 HD
HETATM   31  C1  UNL     1      12.826  36.473  30.938  1.00  0.00     0.072 C 
HETATM   32  C16 UNL     1      12.177  38.505  32.185  1.00  0.00     0.140 A 
HETATM   33  C15 UNL     1      11.219  39.236  32.881  1.00  0.00     0.194 A 
BRANCH  27  34
HETATM   34  N2  UNL     1       8.496  37.082  32.699  1.00  0.00    -0.234 N 
ATOM     35  H22 UNL     1       8.176  36.307  32.120  1.00  0.00     0.174 HD
ATOM     36  H21 UNL     1       7.897  37.481  33.421  1.00  0.00     0.174 HD
ENDBRANCH  27  34
BRANCH  32  37
HETATM   37  O7  UNL     1      13.455  39.005  32.004  1.00  0.00    -0.355 OA
ATOM     38  H7  UNL     1      13.912  39.449  32.709  1.00  0.00     0.218 HD
ENDBRANCH  32  37
BRANCH  33  39
HETATM   39  O6  UNL     1      11.612  40.484  33.377  1.00  0.00    -0.344 OA
ATOM     40  H6  UNL     1      12.533  40.713  33.379  1.00  0.00     0.219 HD
ENDBRANCH  33  39
ENDBRANCH  25  26
ENDBRANCH   1  25
TORSDOF 10
ENDMDL
MODEL 2
REMARK VINA RESULT: -9.342412537      1.751      2.333
REMARK  10 active torsions:
REMARK  status: ('A' for Active; 'I' for Inactive)
REMARK    1  A    between atoms: C3_5  and  N2_6 
REMARK    2  A    between atoms: N3_9  and  C4_10 
REMARK    3  A    between atoms: C4_10  and  C5_11 
REMARK       I    between atoms: C5_11  and  N4_13 
REMARK    4  A    between atoms: N4_13  and  N5_15 
REMARK       I    between atoms: N5_15  and  C6_17 
REMARK    5  A    between atoms: C6_17  and  C7_19 
REMARK       I    between atoms: C7_19  and  N6_21 
REMARK    6  A    between atoms: N6_21  and  N7_23 
REMARK    7  A    between atoms: C8_25  and  C9_26 
REMARK    8  A    between atoms: C12_29  and  N8_30 
REMARK    9  A    between atoms: C15_35  and  O6_36 
REMARK   10  A    between atoms: C16_38  and  O7_39 
ROOT
HETATM    1  C5  UNL     1       8.980  37.536  33.984  1.00  0.00     0.255 C 
HETATM    2  O1  UNL     1       8.119  36.826  34.579  1.00  0.00    -0.270 OA
HETATM    3  N4  UNL     1       9.772  38.388  34.764  1.00  0.00    -0.266 N 
ATOM      4  H4  UNL     1      10.474  38.974  34.311  1.00  0.00     0.190 HD
ENDROOT
BRANCH   3   5
HETATM    5  N5  UNL     1       9.621  38.449  36.140  1.00  0.00    -0.259 N 
HETATM    6  C6  UNL     1      10.268  37.557  37.026  1.00  0.00     0.329 C 
HETATM    7  O2  UNL     1      11.017  36.666  36.552  1.00  0.00    -0.261 OA
ATOM      8  H5  UNL     1       9.016  39.170  36.531  1.00  0.00     0.190 HD
BRANCH   6   9
HETATM    9  C7  UNL     1      10.065  37.677  38.448  1.00  0.00     0.329 C 
HETATM   10  O3  UNL     1      10.954  37.378  39.275  1.00  0.00    -0.261 OA
HETATM   11  N6  UNL     1       8.814  38.149  38.955  1.00  0.00    -0.262 N 
ATOM     12  H6  UNL     1       8.076  38.397  38.296  1.00  0.00     0.190 HD
BRANCH  11  13
HETATM   13  N7  UNL     1       8.580  38.276  40.270  1.00  0.00    -0.308 N 
HETATM   14  C8  UNL     1       8.111  37.670  41.234  1.00  0.00     0.118 C 
ATOM     15  H7  UNL     1       8.902  39.193  40.578  1.00  0.00     0.186 HD
BRANCH  14  16
HETATM   16  C9  UNL     1       7.540  36.336  41.260  1.00  0.00    -0.019 A 
HETATM   17  C10 UNL     1       7.217  35.723  42.463  1.00  0.00     0.015 A 
HETATM   18  C11 UNL     1       6.677  34.458  42.458  1.00  0.00     0.037 A 
HETATM   19  C12 UNL     1       6.449  33.780  41.287  1.00  0.00     0.102 A 
HETATM   20  C13 UNL     1       6.771  34.389  40.092  1.00  0.00     0.037 A 
HETATM   21  C14 UNL     1       7.308  35.645  40.070  1.00  0.00     0.015 A 
BRANCH  19  22
HETATM   22  N8  UNL     1       5.887  32.475  41.345  1.00  0.00    -0.116 N 
HETATM   23  O4  UNL     1       5.678  31.978  42.466  1.00  0.00    -0.532 OA
HETATM   24  O5  UNL     1       5.593  31.799  40.193  1.00  0.00    -0.532 OA
ENDBRANCH  19  22
ENDBRANCH  14  16
ENDBRANCH  11  13
ENDBRANCH   6   9
ENDBRANCH   3   5
BRANCH   1  25
HETATM   25  C4  UNL     1       9.079  37.404  32.497  1.00  0.00     0.254 C 
BRANCH  25  26
HETATM   26  N3  UNL     1      10.463  37.372  32.051  1.00  0.00    -0.151 N 
HETATM   27  C3  UNL     1      10.904  38.172  31.059  1.00  0.00     0.680 A 
HETATM   28  N1  UNL     1      12.207  38.120  30.638  1.00  0.00    -0.193 N 
HETATM   29  C2  UNL     1      13.109  37.297  31.165  1.00  0.00     0.060 A 
ATOM     30  H1  UNL     1      12.499  38.742  29.885  1.00  0.00     0.184 HD
HETATM   31  C1  UNL     1      14.523  37.234  30.712  1.00  0.00     0.072 C 
HETATM   32  C16 UNL     1      12.693  36.465  32.183  1.00  0.00     0.140 A 
HETATM   33  C15 UNL     1      11.365  36.538  32.591  1.00  0.00     0.194 A 
BRANCH  27  34
HETATM   34  N2  UNL     1      10.167  39.017  30.470  1.00  0.00    -0.234 N 
ATOM     35  H22 UNL     1      10.033  39.032  29.460  1.00  0.00     0.174 HD
ATOM     36  H21 UNL     1       9.694  39.691  31.072  1.00  0.00     0.174 HD
ENDBRANCH  27  34
BRANCH  32  37
HETATM   37  O7  UNL     1      13.571  35.578  32.784  1.00  0.00    -0.355 OA
ATOM     38  H7  UNL     1      14.066  35.826  33.556  1.00  0.00     0.218 HD
ENDBRANCH  32  37
BRANCH  33  39
HETATM   39  O6  UNL     1      10.973  35.682  33.627  1.00  0.00    -0.344 OA
ATOM     40  H6  UNL     1      11.621  35.382  34.252  1.00  0.00     0.219 HD
ENDBRANCH  33  39
ENDBRANCH  25  26
ENDBRANCH   1  25
TORSDOF 10
ENDMDL
MODEL 3
REMARK VINA RESULT: -9.288580257      1.917      2.703
REMARK  10 active torsions:
REMARK  status: ('A' for Active; 'I' for Inactive)
REMARK    1  A    between atoms: C3_5  and  N2_6 
REMARK    2  A    between atoms: N3_9  and  C4_10 
REMARK    3  A    between atoms: C4_10  and  C5_11 
REMARK       I    between atoms: C5_11  and  N4_13 
REMARK    4  A    between atoms: N4_13  and  N5_15 
REMARK       I    between atoms: N5_15  and  C6_17 
REMARK    5  A    between atoms: C6_17  and  C7_19 
REMARK       I    between atoms: C7_19  and  N6_21 
REMARK    6  A    between atoms: N6_21  and  N7_23 
REMARK    7  A    between atoms: C8_25  and  C9_26 
REMARK    8  A    between atoms: C12_29  and  N8_30 
REMARK    9  A    between atoms: C15_35  and  O6_36 
REMARK   10  A    between atoms: C16_38  and  O7_39 
ROOT
HETATM    1  C5  UNL     1       9.958  38.253  35.772  1.00  0.00     0.255 C 
HETATM    2  O1  UNL     1       9.173  37.268  35.671  1.00  0.00    -0.270 OA
HETATM    3  N4  UNL     1       9.974  38.950  36.987  1.00  0.00    -0.266 N 
ATOM      4  H4  UNL     1      10.597  39.751  37.097  1.00  0.00     0.190 HD
ENDROOT
BRANCH   3   5
HETATM    5  N5  UNL     1       9.162  38.571  38.043  1.00  0.00    -0.259 N 
HETATM    6  C6  UNL     1       9.665  38.229  39.318  1.00  0.00     0.329 C 
HETATM    7  O2  UNL     1      10.907  38.269  39.513  1.00  0.00    -0.261 OA
ATOM      8  H5  UNL     1       8.154  38.536  37.892  1.00  0.00     0.190 HD
BRANCH   6   9
HETATM    9  C7  UNL     1       8.761  37.842  40.373  1.00  0.00     0.329 C 
HETATM   10  O3  UNL     1       7.598  38.293  40.452  1.00  0.00    -0.261 OA
HETATM   11  N6  UNL     1       9.186  36.913  41.374  1.00  0.00    -0.262 N 
ATOM     12  H6  UNL     1      10.133  36.534  41.326  1.00  0.00     0.190 HD
BRANCH  11  13
HETATM   13  N7  UNL     1       8.380  36.523  42.373  1.00  0.00    -0.308 N 
HETATM   14  C8  UNL     1       7.519  35.689  42.655  1.00  0.00     0.118 C 
ATOM     15  H7  UNL     1       8.534  37.128  43.180  1.00  0.00     0.186 HD
BRANCH  14  16
HETATM   16  C9  UNL     1       6.988  34.633  41.813  1.00  0.00    -0.019 A 
HETATM   17  C10 UNL     1       6.920  34.787  40.435  1.00  0.00     0.015 A 
HETATM   18  C11 UNL     1       6.411  33.770  39.661  1.00  0.00     0.037 A 
HETATM   19  C12 UNL     1       5.965  32.599  40.220  1.00  0.00     0.102 A 
HETATM   20  C13 UNL     1       6.033  32.446  41.589  1.00  0.00     0.037 A 
HETATM   21  C14 UNL     1       6.533  33.441  42.379  1.00  0.00     0.015 A 
BRANCH  19  22
HETATM   22  N8  UNL     1       5.452  31.582  39.368  1.00  0.00    -0.116 N 
HETATM   23  O4  UNL     1       5.410  30.418  39.806  1.00  0.00    -0.532 OA
HETATM   24  O5  UNL     1       5.025  31.891  38.105  1.00  0.00    -0.532 OA
ENDBRANCH  19  22
ENDBRANCH  14  16
ENDBRANCH  11  13
ENDBRANCH   6   9
ENDBRANCH   3   5
BRANCH   1  25
HETATM   25  C4  UNL     1      10.804  38.591  34.585  1.00  0.00     0.254 C 
BRANCH  25  26
HETATM   26  N3  UNL     1      10.004  39.097  33.481  1.00  0.00    -0.151 N 
HETATM   27  C3  UNL     1       9.705  40.407  33.368  1.00  0.00     0.680 A 
HETATM   28  N1  UNL     1       8.936  40.868  32.332  1.00  0.00    -0.193 N 
HETATM   29  C2  UNL     1       8.440  40.076  31.386  1.00  0.00     0.060 A 
ATOM     30  H1  UNL     1       8.734  41.867  32.285  1.00  0.00     0.184 HD
HETATM   31  C1  UNL     1       7.603  40.569  30.261  1.00  0.00     0.072 C 
HETATM   32  C16 UNL     1       8.726  38.730  31.469  1.00  0.00     0.140 A 
HETATM   33  C15 UNL     1       9.510  38.288  32.531  1.00  0.00     0.194 A 
BRANCH  27  34
HETATM   34  N2  UNL     1      10.116  41.285  34.184  1.00  0.00    -0.234 N 
ATOM     35  H22 UNL     1       9.616  41.531  35.038  1.00  0.00     0.174 HD
ATOM     36  H21 UNL     1      10.999  41.736  33.945  1.00  0.00     0.174 HD
ENDBRANCH  27  34
BRANCH  32  37
HETATM   37  O7  UNL     1       8.248  37.839  30.524  1.00  0.00    -0.355 OA
ATOM     38  H7  UNL     1       7.468  37.321  30.688  1.00  0.00     0.218 HD
ENDBRANCH  32  37
BRANCH  33  39
HETATM   39  O6  UNL     1       9.784  36.917  32.588  1.00  0.00    -0.344 OA
ATOM     40  H6  UNL     1       9.488  36.354  31.883  1.00  0.00     0.219 HD
ENDBRANCH  33  39
ENDBRANCH  25  26
ENDBRANCH   1  25
TORSDOF 10
ENDMDL
MODEL 4
REMARK VINA RESULT: -9.264048328      1.324      1.642
REMARK  10 active torsions:
REMARK  status: ('A' for Active; 'I' for Inactive)
REMARK    1  A    between atoms: C3_5  and  N2_6 
REMARK    2  A    between atoms: N3_9  and  C4_10 
REMARK    3  A    between atoms: C4_10  and  C5_11 
REMARK       I    between atoms: C5_11  and  N4_13 
REMARK    4  A    between atoms: N4_13  and  N5_15 
REMARK       I    between atoms: N5_15  and  C6_17 
REMARK    5  A    between atoms: C6_17  and  C7_19 
REMARK       I    between atoms: C7_19  and  N6_21 
REMARK    6  A    between atoms: N6_21  and  N7_23 
REMARK    7  A    between atoms: C8_25  and  C9_26 
REMARK    8  A    between atoms: C12_29  and  N8_30 
REMARK    9  A    between atoms: C15_35  and  O6_36 
REMARK   10  A    between atoms: C16_38  and  O7_39 
ROOT
HETATM    1  C5  UNL     1       9.105  39.049  34.941  1.00  0.00     0.255 C 
HETATM    2  O1  UNL     1       7.972  38.526  35.143  1.00  0.00    -0.270 OA
HETATM    3  N4  UNL     1       9.986  39.134  36.027  1.00  0.00    -0.266 N 
ATOM      4  H4  UNL     1      10.907  39.553  35.893  1.00  0.00     0.190 HD
ENDROOT
BRANCH   3   5
HETATM    5  N5  UNL     1       9.630  38.659  37.278  1.00  0.00    -0.259 N 
HETATM    6  C6  UNL     1      10.577  38.276  38.255  1.00  0.00     0.329 C 
HETATM    7  O2  UNL     1      11.801  38.368  37.984  1.00  0.00    -0.261 OA
ATOM      8  H5  UNL     1       8.639  38.581  37.505  1.00  0.00     0.190 HD
BRANCH   6   9
HETATM    9  C7  UNL     1      10.136  37.788  39.538  1.00  0.00     0.329 C 
HETATM   10  O3  UNL     1      10.850  37.049  40.250  1.00  0.00    -0.261 OA
HETATM   11  N6  UNL     1       8.844  38.147  40.034  1.00  0.00    -0.262 N 
ATOM     12  H6  UNL     1       8.247  38.749  39.467  1.00  0.00     0.190 HD
BRANCH  11  13
HETATM   13  N7  UNL     1       8.392  37.717  41.222  1.00  0.00    -0.308 N 
HETATM   14  C8  UNL     1       7.789  36.781  41.748  1.00  0.00     0.118 C 
ATOM     15  H7  UNL     1       8.631  38.403  41.937  1.00  0.00     0.186 HD
BRANCH  14  16
HETATM   16  C9  UNL     1       7.262  35.587  41.113  1.00  0.00    -0.019 A 
HETATM   17  C10 UNL     1       7.306  35.435  39.734  1.00  0.00     0.015 A 
HETATM   18  C11 UNL     1       6.798  34.294  39.158  1.00  0.00     0.037 A 
HETATM   19  C12 UNL     1       6.245  33.294  39.918  1.00  0.00     0.102 A 
HETATM   20  C13 UNL     1       6.200  33.445  41.288  1.00  0.00     0.037 A 
HETATM   21  C14 UNL     1       6.698  34.569  41.884  1.00  0.00     0.015 A 
BRANCH  19  22
HETATM   22  N8  UNL     1       5.738  32.136  39.266  1.00  0.00    -0.116 N 
HETATM   23  O4  UNL     1       5.423  32.230  38.067  1.00  0.00    -0.532 OA
HETATM   24  O5  UNL     1       5.605  30.960  39.954  1.00  0.00    -0.532 OA
ENDBRANCH  19  22
ENDBRANCH  14  16
ENDBRANCH  11  13
ENDBRANCH   6   9
ENDBRANCH   3   5
BRANCH   1  25
HETATM   25  C4  UNL     1       9.409  39.532  33.557  1.00  0.00     0.254 C 
BRANCH  25  26
HETATM   26  N3  UNL     1      10.496  38.778  32.952  1.00  0.00    -0.151 N 
HETATM   27  C3  UNL     1      11.495  39.391  32.285  1.00  0.00     0.680 A 
HETATM   28  N1  UNL     1      12.504  38.667  31.705  1.00  0.00    -0.193 N 
HETATM   29  C2  UNL     1      12.569  37.340  31.757  1.00  0.00     0.060 A 
ATOM     30  H1  UNL     1      13.240  39.170  31.210  1.00  0.00     0.184 HD
HETATM   31  C1  UNL     1      13.659  36.548  31.128  1.00  0.00     0.072 C 
HETATM   32  C16 UNL     1      11.564  36.679  32.432  1.00  0.00     0.140 A 
HETATM   33  C15 UNL     1      10.552  37.438  33.011  1.00  0.00     0.194 A 
BRANCH  27  34
HETATM   34  N2  UNL     1      11.577  40.649  32.162  1.00  0.00    -0.234 N 
ATOM     35  H22 UNL     1      12.253  41.216  32.674  1.00  0.00     0.174 HD
ATOM     36  H21 UNL     1      10.927  41.075  31.503  1.00  0.00     0.174 HD
ENDBRANCH  27  34
BRANCH  32  37
HETATM   37  O7  UNL     1      11.558  35.298  32.531  1.00  0.00    -0.355 OA
ATOM     38  H7  UNL     1      11.426  34.867  33.367  1.00  0.00     0.218 HD
ENDBRANCH  32  37
BRANCH  33  39
HETATM   39  O6  UNL     1       9.547  36.740  33.690  1.00  0.00    -0.344 OA
ATOM     40  H6  UNL     1       9.579  36.683  34.637  1.00  0.00     0.219 HD
ENDBRANCH  33  39
ENDBRANCH  25  26
ENDBRANCH   1  25
TORSDOF 10
ENDMDL
MODEL 5
REMARK VINA RESULT: -9.142500513      2.151      3.177
REMARK  10 active torsions:
REMARK  status: ('A' for Active; 'I' for Inactive)
REMARK    1  A    between atoms: C3_5  and  N2_6 
REMARK    2  A    between atoms: N3_9  and  C4_10 
REMARK    3  A    between atoms: C4_10  and  C5_11 
REMARK       I    between atoms: C5_11  and  N4_13 
REMARK    4  A    between atoms: N4_13  and  N5_15 
REMARK       I    between atoms: N5_15  and  C6_17 
REMARK    5  A    between atoms: C6_17  and  C7_19 
REMARK       I    between atoms: C7_19  and  N6_21 
REMARK    6  A    between atoms: N6_21  and  N7_23 
REMARK    7  A    between atoms: C8_25  and  C9_26 
REMARK    8  A    between atoms: C12_29  and  N8_30 
REMARK    9  A    between atoms: C15_35  and  O6_36 
REMARK   10  A    between atoms: C16_38  and  O7_39 
ROOT
HETATM    1  C5  UNL     1      10.988  36.835  33.376  1.00  0.00     0.255 C 
HETATM    2  O1  UNL     1      11.465  35.986  34.182  1.00  0.00    -0.270 OA
HETATM    3  N4  UNL     1      10.452  38.013  33.914  1.00  0.00    -0.266 N 
ATOM      4  H4  UNL     1      10.058  38.715  33.287  1.00  0.00     0.190 HD
ENDROOT
BRANCH   3   5
HETATM    5  N5  UNL     1      10.448  38.241  35.279  1.00  0.00    -0.259 N 
HETATM    6  C6  UNL     1       9.352  37.916  36.111  1.00  0.00     0.329 C 
HETATM    7  O2  UNL     1       8.331  37.394  35.595  1.00  0.00    -0.261 OA
ATOM      8  H5  UNL     1      11.273  38.664  35.705  1.00  0.00     0.190 HD
BRANCH   6   9
HETATM    9  C7  UNL     1       9.414  38.182  37.527  1.00  0.00     0.329 C 
HETATM   10  O3  UNL     1      10.461  38.580  38.084  1.00  0.00    -0.261 OA
HETATM   11  N6  UNL     1       8.255  37.992  38.342  1.00  0.00    -0.262 N 
ATOM     12  H6  UNL     1       7.392  37.667  37.905  1.00  0.00     0.190 HD
BRANCH  11  13
HETATM   13  N7  UNL     1       8.266  38.226  39.663  1.00  0.00    -0.308 N 
HETATM   14  C8  UNL     1       7.994  37.701  40.743  1.00  0.00     0.118 C 
ATOM     15  H7  UNL     1       8.624  39.166  39.831  1.00  0.00     0.186 HD
BRANCH  14  16
HETATM   16  C9  UNL     1       7.460  36.373  40.982  1.00  0.00    -0.019 A 
HETATM   17  C10 UNL     1       7.247  35.491  39.931  1.00  0.00     0.015 A 
HETATM   18  C11 UNL     1       6.739  34.239  40.186  1.00  0.00     0.037 A 
HETATM   19  C12 UNL     1       6.434  33.835  41.462  1.00  0.00     0.102 A 
HETATM   20  C13 UNL     1       6.646  34.712  42.506  1.00  0.00     0.037 A 
HETATM   21  C14 UNL     1       7.149  35.961  42.279  1.00  0.00     0.015 A 
BRANCH  19  22
HETATM   22  N8  UNL     1       5.914  32.527  41.664  1.00  0.00    -0.116 N 
HETATM   23  O4  UNL     1       5.697  32.157  42.831  1.00  0.00    -0.532 OA
HETATM   24  O5  UNL     1       5.668  31.710  40.594  1.00  0.00    -0.532 OA
ENDBRANCH  19  22
ENDBRANCH  14  16
ENDBRANCH  11  13
ENDBRANCH   6   9
ENDBRANCH   3   5
BRANCH   1  25
HETATM   25  C4  UNL     1      11.038  36.510  31.916  1.00  0.00     0.254 C 
BRANCH  25  26
HETATM   26  N3  UNL     1      12.262  36.995  31.299  1.00  0.00    -0.151 N 
HETATM   27  C3  UNL     1      12.300  38.165  30.630  1.00  0.00     0.680 A 
HETATM   28  N1  UNL     1      13.457  38.602  30.039  1.00  0.00    -0.193 N 
HETATM   29  C2  UNL     1      14.597  37.920  30.082  1.00  0.00     0.060 A 
ATOM     30  H1  UNL     1      13.442  39.493  29.543  1.00  0.00     0.184 HD
HETATM   31  C1  UNL     1      15.855  38.387  29.442  1.00  0.00     0.072 C 
HETATM   32  C16 UNL     1      14.596  36.718  30.759  1.00  0.00     0.140 A 
HETATM   33  C15 UNL     1      13.408  36.298  31.349  1.00  0.00     0.194 A 
BRANCH  27  34
HETATM   34  N2  UNL     1      11.298  38.931  30.516  1.00  0.00    -0.234 N 
ATOM     35  H22 UNL     1      10.765  39.027  29.652  1.00  0.00     0.174 HD
ATOM     36  H21 UNL     1      11.037  39.451  31.353  1.00  0.00     0.174 HD
ENDBRANCH  27  34
BRANCH  32  37
HETATM   37  O7  UNL     1      15.743  35.948  30.849  1.00  0.00    -0.355 OA
ATOM     38  H7  UNL     1      15.798  35.220  31.457  1.00  0.00     0.218 HD
ENDBRANCH  32  37
BRANCH  33  39
HETATM   39  O6  UNL     1      13.438  35.076  32.030  1.00  0.00    -0.344 OA
ATOM     40  H6  UNL     1      13.978  34.371  31.695  1.00  0.00     0.219 HD
ENDBRANCH  33  39
ENDBRANCH  25  26
ENDBRANCH   1  25
TORSDOF 10
ENDMDL
