MODEL 1
REMARK VINA RESULT: -9.023369589      0.000      0.000
REMARK  8 active torsions:
REMARK  status: ('A' for Active; 'I' for Inactive)
REMARK       I    between atoms: N1_1  and  C1_5 
REMARK       I    between atoms: C1_5  and  N2_6 
REMARK       I    between atoms: C1_5  and  N3_10 
REMARK    1  A    between atoms: C4_18  and  S1_19 
REMARK    2  A    between atoms: C6_26  and  C7_27 
REMARK    3  A    between atoms: C7_27  and  O4_28 
REMARK    4  A    between atoms: C7_27  and  O5_30 
REMARK    5  A    between atoms: O5_30  and  C8_31 
REMARK    6  A    between atoms: C9_35  and  O7_36 
REMARK    7  A    between atoms: C9_35  and  O8_38 
REMARK    8  A    between atoms: C10_40  and  O9_41 
ROOT
HETATM    1  N1  UNL     1      30.126  36.327   9.060  1.00  0.00    -0.032 N 
ATOM      2  H11 UNL     1      30.579  35.428   8.892  1.00  0.00     0.278 HD
ATOM      3  H12 UNL     1      29.132  36.220   9.262  1.00  0.00     0.278 HD
ATOM      4  H13 UNL     1      30.416  36.740   9.946  1.00  0.00     0.278 HD
HETATM    5  C1  UNL     1      30.358  37.218   7.949  1.00  0.00     0.494 C 
HETATM    6  N2  UNL     1      29.711  38.502   8.188  1.00  0.00    -0.032 N 
ATOM      7  H21 UNL     1      29.875  39.132   7.403  1.00  0.00     0.278 HD
ATOM      8  H22 UNL     1      30.001  38.915   9.075  1.00  0.00     0.278 HD
ATOM      9  H23 UNL     1      28.717  38.395   8.390  1.00  0.00     0.278 HD
HETATM   10  N3  UNL     1      29.904  36.703   6.702  1.00  0.00    -0.173 N 
ATOM     11  H3  UNL     1      30.617  36.585   5.983  1.00  0.00     0.181 HD
HETATM   12  C2  UNL     1      28.717  36.370   6.369  1.00  0.00     0.683 A 
HETATM   13  N4  UNL     1      28.570  35.902   5.094  1.00  0.00    -0.174 N 
ATOM     14  H4  UNL     1      29.394  35.846   4.495  1.00  0.00     0.186 HD
HETATM   15  C3  UNL     1      27.388  35.515   4.600  1.00  0.00     0.152 A 
HETATM   16  N5  UNL     1      26.875  35.028   3.464  1.00  0.00    -0.314 N 
ATOM     17  H5  UNL     1      27.418  34.836   2.623  1.00  0.00     0.170 HD
HETATM   18  C4  UNL     1      25.539  34.823   3.578  1.00  0.00     0.227 A 
HETATM   19  N6  UNL     1      25.153  35.187   4.834  1.00  0.00    -0.326 N 
ATOM     20  H6  UNL     1      24.203  35.141   5.203  1.00  0.00     0.168 HD
HETATM   21  C5  UNL     1      26.232  35.615   5.502  1.00  0.00     0.108 A 
HETATM   22  C6  UNL     1      26.411  36.089   6.773  1.00  0.00     0.111 A 
HETATM   23  N9  UNL     1      27.652  36.457   7.183  1.00  0.00    -0.188 N 
ATOM     24  H9  UNL     1      27.778  36.808   8.132  1.00  0.00     0.184 HD
ENDROOT
BRANCH  22  25
HETATM   25  C7  UNL     1      25.260  36.190   7.676  1.00  0.00     0.313 C 
BRANCH  25  26
HETATM   26  O4  UNL     1      25.778  36.587   8.932  1.00  0.00    -0.366 OA
ATOM     27  H4  UNL     1      26.022  37.500   8.841  1.00  0.00     0.213 HD
ENDBRANCH  25  26
BRANCH  25  28
HETATM   28  O5  UNL     1      24.310  37.095   7.279  1.00  0.00    -0.330 OA
BRANCH  28  29
HETATM   29  C8  UNL     1      23.055  36.521   7.446  1.00  0.00     0.272 C 
HETATM   30  N7  UNL     1      23.241  35.241   8.122  1.00  0.00    -0.084 NA
HETATM   31  N8  UNL     1      22.014  34.610   8.326  1.00  0.00     0.019 NA
HETATM   32  O6  UNL     1      21.331  34.390   7.202  1.00  0.00    -0.200 OA
HETATM   33  C9  UNL     1      21.063  35.527   6.466  1.00  0.00     0.328 C 
HETATM   34  C10 UNL     1      22.372  36.222   6.134  1.00  0.00     0.258 C 
BRANCH  33  35
HETATM   35  O7  UNL     1      20.488  35.134   5.263  1.00  0.00    -0.340 OA
ATOM     36  H7  UNL     1      21.042  35.445   4.557  1.00  0.00     0.215 HD
ENDBRANCH  33  35
BRANCH  33  37
HETATM   37  O8  UNL     1      20.253  36.399   7.186  1.00  0.00    -0.340 OA
ATOM     38  H8  UNL     1      19.459  35.962   7.472  1.00  0.00     0.215 HD
ENDBRANCH  33  37
BRANCH  34  39
HETATM   39  O9  UNL     1      22.131  37.427   5.466  1.00  0.00    -0.383 OA
ATOM     40  H9  UNL     1      22.903  37.658   4.963  1.00  0.00     0.210 HD
ENDBRANCH  34  39
ENDBRANCH  28  29
ENDBRANCH  25  28
ENDBRANCH  22  25
BRANCH  18  41
HETATM   41  S1  UNL     1      24.561  34.196   2.284  1.00  0.00     0.172 S 
HETATM   42  O1  UNL     1      25.233  34.364   0.951  1.00  0.00    -0.589 OA
HETATM   43  O2  UNL     1      23.239  34.911   2.197  1.00  0.00    -0.589 OA
HETATM   44  O3  UNL     1      24.237  32.570   2.495  1.00  0.00    -0.589 OA
ENDBRANCH  18  41
TORSDOF 8
ENDMDL
MODEL 2
REMARK VINA RESULT: -8.424554217      4.495      7.095
REMARK  8 active torsions:
REMARK  status: ('A' for Active; 'I' for Inactive)
REMARK       I    between atoms: N1_1  and  C1_5 
REMARK       I    between atoms: C1_5  and  N2_6 
REMARK       I    between atoms: C1_5  and  N3_10 
REMARK    1  A    between atoms: C4_18  and  S1_19 
REMARK    2  A    between atoms: C6_26  and  C7_27 
REMARK    3  A    between atoms: C7_27  and  O4_28 
REMARK    4  A    between atoms: C7_27  and  O5_30 
REMARK    5  A    between atoms: O5_30  and  C8_31 
REMARK    6  A    between atoms: C9_35  and  O7_36 
REMARK    7  A    between atoms: C9_35  and  O8_38 
REMARK    8  A    between atoms: C10_40  and  O9_41 
ROOT
HETATM    1  N1  UNL     1      20.353  32.147   4.750  1.00  0.00    -0.032 N 
ATOM      2  H11 UNL     1      19.442  31.864   4.389  1.00  0.00     0.278 HD
ATOM      3  H12 UNL     1      20.307  33.040   5.241  1.00  0.00     0.278 HD
ATOM      4  H13 UNL     1      20.653  31.562   5.530  1.00  0.00     0.278 HD
HETATM    5  C1  UNL     1      21.328  32.167   3.686  1.00  0.00     0.494 C 
HETATM    6  N2  UNL     1      22.630  32.572   4.201  1.00  0.00    -0.032 N 
ATOM      7  H21 UNL     1      23.319  32.585   3.449  1.00  0.00     0.278 HD
ATOM      8  H22 UNL     1      22.930  31.986   4.981  1.00  0.00     0.278 HD
ATOM      9  H23 UNL     1      22.584  33.465   4.692  1.00  0.00     0.278 HD
HETATM   10  N3  UNL     1      20.976  33.027   2.608  1.00  0.00    -0.173 N 
ATOM     11  H3  UNL     1      20.873  32.579   1.697  1.00  0.00     0.181 HD
HETATM   12  C2  UNL     1      20.774  34.287   2.635  1.00  0.00     0.683 A 
HETATM   13  N4  UNL     1      20.446  34.859   1.438  1.00  0.00    -0.174 N 
ATOM     14  H4  UNL     1      20.383  34.264   0.611  1.00  0.00     0.186 HD
HETATM   15  C3  UNL     1      20.205  36.168   1.307  1.00  0.00     0.152 A 
HETATM   16  N5  UNL     1      19.874  37.048   0.354  1.00  0.00    -0.314 N 
ATOM     17  H5  UNL     1      19.723  36.806  -0.625  1.00  0.00     0.170 HD
HETATM   18  C4  UNL     1      19.767  38.302   0.860  1.00  0.00     0.227 A 
HETATM   19  N6  UNL     1      20.036  38.252   2.196  1.00  0.00    -0.326 N 
ATOM     20  H6  UNL     1      20.029  39.047   2.836  1.00  0.00     0.168 HD
HETATM   21  C5  UNL     1      20.308  36.983   2.526  1.00  0.00     0.108 A 
HETATM   22  C6  UNL     1      20.639  36.381   3.710  1.00  0.00     0.111 A 
HETATM   23  N9  UNL     1      20.865  35.043   3.742  1.00  0.00    -0.188 N 
ATOM     24  H9  UNL     1      21.110  34.600   4.627  1.00  0.00     0.184 HD
ENDROOT
BRANCH  22  25
HETATM   25  C7  UNL     1      20.743  37.190   4.928  1.00  0.00     0.313 C 
BRANCH  25  26
HETATM   26  O4  UNL     1      20.240  36.386   5.979  1.00  0.00    -0.366 OA
ATOM     27  H4  UNL     1      20.117  36.966   6.721  1.00  0.00     0.213 HD
ENDBRANCH  25  26
BRANCH  25  28
HETATM   28  O5  UNL     1      22.020  37.582   5.238  1.00  0.00    -0.330 OA
BRANCH  28  29
HETATM   29  C8  UNL     1      22.597  36.607   6.046  1.00  0.00     0.272 C 
HETATM   30  N7  UNL     1      22.791  37.189   7.370  1.00  0.00    -0.084 NA
HETATM   31  N8  UNL     1      23.366  36.259   8.235  1.00  0.00     0.019 NA
HETATM   32  O6  UNL     1      24.539  35.788   7.813  1.00  0.00    -0.200 OA
HETATM   33  C9  UNL     1      24.499  35.185   6.572  1.00  0.00     0.328 C 
HETATM   34  C10 UNL     1      23.959  36.179   5.557  1.00  0.00     0.258 C 
BRANCH  33  35
HETATM   35  O7  UNL     1      25.804  34.883   6.198  1.00  0.00    -0.340 OA
ATOM     36  H7  UNL     1      26.129  34.210   6.784  1.00  0.00     0.215 HD
ENDBRANCH  33  35
BRANCH  33  37
HETATM   37  O8  UNL     1      23.676  34.064   6.595  1.00  0.00    -0.340 OA
ATOM     38  H8  UNL     1      22.952  34.192   7.197  1.00  0.00     0.215 HD
ENDBRANCH  33  37
BRANCH  34  39
HETATM   39  O9  UNL     1      23.819  35.572   4.304  1.00  0.00    -0.383 OA
ATOM     40  H9  UNL     1      24.155  36.162   3.639  1.00  0.00     0.210 HD
ENDBRANCH  34  39
ENDBRANCH  28  29
ENDBRANCH  25  28
ENDBRANCH  22  25
BRANCH  18  41
HETATM   41  S1  UNL     1      19.350  39.684  -0.109  1.00  0.00     0.172 S 
HETATM   42  O1  UNL     1      17.979  40.200   0.223  1.00  0.00    -0.589 OA
HETATM   43  O2  UNL     1      19.344  39.346  -1.576  1.00  0.00    -0.589 OA
HETATM   44  O3  UNL     1      20.437  40.935   0.110  1.00  0.00    -0.589 OA
ENDBRANCH  18  41
TORSDOF 8
ENDMDL
MODEL 3
REMARK VINA RESULT: -8.379094549      4.784      7.732
REMARK  8 active torsions:
REMARK  status: ('A' for Active; 'I' for Inactive)
REMARK       I    between atoms: N1_1  and  C1_5 
REMARK       I    between atoms: C1_5  and  N2_6 
REMARK       I    between atoms: C1_5  and  N3_10 
REMARK    1  A    between atoms: C4_18  and  S1_19 
REMARK    2  A    between atoms: C6_26  and  C7_27 
REMARK    3  A    between atoms: C7_27  and  O4_28 
REMARK    4  A    between atoms: C7_27  and  O5_30 
REMARK    5  A    between atoms: O5_30  and  C8_31 
REMARK    6  A    between atoms: C9_35  and  O7_36 
REMARK    7  A    between atoms: C9_35  and  O8_38 
REMARK    8  A    between atoms: C10_40  and  O9_41 
ROOT
HETATM    1  N1  UNL     1      22.461  32.673  -0.823  1.00  0.00    -0.032 N 
ATOM      2  H11 UNL     1      22.353  33.648  -1.103  1.00  0.00     0.278 HD
ATOM      3  H12 UNL     1      21.667  32.344  -0.274  1.00  0.00     0.278 HD
ATOM      4  H13 UNL     1      22.372  32.036  -1.615  1.00  0.00     0.278 HD
HETATM    5  C1  UNL     1      23.711  32.490  -0.124  1.00  0.00     0.494 C 
HETATM    6  N2  UNL     1      23.866  31.097   0.277  1.00  0.00    -0.032 N 
ATOM      7  H21 UNL     1      24.749  30.968   0.771  1.00  0.00     0.278 HD
ATOM      8  H22 UNL     1      23.776  30.460  -0.515  1.00  0.00     0.278 HD
ATOM      9  H23 UNL     1      23.071  30.769   0.826  1.00  0.00     0.278 HD
HETATM   10  N3  UNL     1      23.844  33.315   1.028  1.00  0.00    -0.173 N 
ATOM     11  H3  UNL     1      24.631  33.964   1.022  1.00  0.00     0.181 HD
HETATM   12  C2  UNL     1      23.105  33.345   2.069  1.00  0.00     0.683 A 
HETATM   13  N4  UNL     1      23.473  34.245   3.029  1.00  0.00    -0.174 N 
ATOM     14  H4  UNL     1      24.295  34.828   2.866  1.00  0.00     0.186 HD
HETATM   15  C3  UNL     1      22.798  34.393   4.175  1.00  0.00     0.152 A 
HETATM   16  N5  UNL     1      22.847  35.127   5.293  1.00  0.00    -0.314 N 
ATOM     17  H5  UNL     1      23.555  35.835   5.486  1.00  0.00     0.170 HD
HETATM   18  C4  UNL     1      21.834  34.805   6.136  1.00  0.00     0.227 A 
HETATM   19  N6  UNL     1      21.085  33.824   5.555  1.00  0.00    -0.326 N 
ATOM     20  H6  UNL     1      20.257  33.386   5.960  1.00  0.00     0.168 HD
HETATM   21  C5  UNL     1      21.621  33.532   4.363  1.00  0.00     0.108 A 
HETATM   22  C6  UNL     1      21.279  32.639   3.383  1.00  0.00     0.111 A 
HETATM   23  N9  UNL     1      22.028  32.563   2.254  1.00  0.00    -0.188 N 
ATOM     24  H9  UNL     1      21.767  31.897   1.527  1.00  0.00     0.184 HD
ENDROOT
BRANCH  22  25
HETATM   25  C7  UNL     1      20.106  31.779   3.567  1.00  0.00     0.313 C 
BRANCH  25  26
HETATM   26  O4  UNL     1      20.112  30.869   2.483  1.00  0.00    -0.366 OA
ATOM     27  H4  UNL     1      20.897  30.343   2.583  1.00  0.00     0.213 HD
ENDBRANCH  25  26
BRANCH  25  28
HETATM   28  O5  UNL     1      20.104  31.073   4.742  1.00  0.00    -0.330 OA
BRANCH  28  29
HETATM   29  C8  UNL     1      18.801  31.025   5.226  1.00  0.00     0.272 C 
HETATM   30  N7  UNL     1      18.499  32.327   5.812  1.00  0.00    -0.084 NA
HETATM   31  N8  UNL     1      17.199  32.349   6.315  1.00  0.00     0.019 NA
HETATM   32  O6  UNL     1      16.965  31.415   7.237  1.00  0.00    -0.200 OA
HETATM   33  C9  UNL     1      17.190  30.122   6.809  1.00  0.00     0.328 C 
HETATM   34  C10 UNL     1      18.625  30.004   6.324  1.00  0.00     0.258 C 
BRANCH  33  35
HETATM   35  O7  UNL     1      17.056  29.277   7.905  1.00  0.00    -0.340 OA
ATOM     36  H7  UNL     1      16.537  28.528   7.637  1.00  0.00     0.215 HD
ENDBRANCH  33  35
BRANCH  33  37
HETATM   37  O8  UNL     1      16.328  29.790   5.770  1.00  0.00    -0.340 OA
ATOM     38  H8  UNL     1      16.817  29.501   5.008  1.00  0.00     0.215 HD
ENDBRANCH  33  37
BRANCH  34  39
HETATM   39  O9  UNL     1      18.862  28.730   5.798  1.00  0.00    -0.383 OA
ATOM     40  H9  UNL     1      18.179  28.143   6.099  1.00  0.00     0.210 HD
ENDBRANCH  34  39
ENDBRANCH  28  29
ENDBRANCH  25  28
ENDBRANCH  22  25
BRANCH  18  41
HETATM   41  S1  UNL     1      21.604  35.571   7.680  1.00  0.00     0.172 S 
HETATM   42  O1  UNL     1      20.191  36.047   7.856  1.00  0.00    -0.589 OA
HETATM   43  O2  UNL     1      22.492  36.777   7.834  1.00  0.00    -0.589 OA
HETATM   44  O3  UNL     1      21.955  34.528   8.938  1.00  0.00    -0.589 OA
ENDBRANCH  18  41
TORSDOF 8
ENDMDL
MODEL 4
REMARK VINA RESULT: -8.369375386      5.132      8.121
REMARK  8 active torsions:
REMARK  status: ('A' for Active; 'I' for Inactive)
REMARK       I    between atoms: N1_1  and  C1_5 
REMARK       I    between atoms: C1_5  and  N2_6 
REMARK       I    between atoms: C1_5  and  N3_10 
REMARK    1  A    between atoms: C4_18  and  S1_19 
REMARK    2  A    between atoms: C6_26  and  C7_27 
REMARK    3  A    between atoms: C7_27  and  O4_28 
REMARK    4  A    between atoms: C7_27  and  O5_30 
REMARK    5  A    between atoms: O5_30  and  C8_31 
REMARK    6  A    between atoms: C9_35  and  O7_36 
REMARK    7  A    between atoms: C9_35  and  O8_38 
REMARK    8  A    between atoms: C10_40  and  O9_41 
ROOT
HETATM    1  N1  UNL     1      20.620  31.055   0.588  1.00  0.00    -0.032 N 
ATOM      2  H11 UNL     1      20.735  31.895   0.021  1.00  0.00     0.278 HD
ATOM      3  H12 UNL     1      19.946  31.193   1.341  1.00  0.00     0.278 HD
ATOM      4  H13 UNL     1      20.131  30.317   0.081  1.00  0.00     0.278 HD
HETATM    5  C1  UNL     1      21.899  30.609   1.086  1.00  0.00     0.494 C 
HETATM    6  N2  UNL     1      21.735  29.409   1.896  1.00  0.00    -0.032 N 
ATOM      7  H21 UNL     1      22.639  29.094   2.248  1.00  0.00     0.278 HD
ATOM      8  H22 UNL     1      21.246  28.671   1.390  1.00  0.00     0.278 HD
ATOM      9  H23 UNL     1      21.061  29.547   2.649  1.00  0.00     0.278 HD
HETATM   10  N3  UNL     1      22.583  31.591   1.857  1.00  0.00    -0.173 N 
ATOM     11  H3  UNL     1      23.494  31.881   1.502  1.00  0.00     0.181 HD
HETATM   12  C2  UNL     1      22.202  32.155   2.937  1.00  0.00     0.683 A 
HETATM   13  N4  UNL     1      23.070  33.069   3.465  1.00  0.00    -0.174 N 
ATOM     14  H4  UNL     1      23.950  33.245   2.980  1.00  0.00     0.186 HD
HETATM   15  C3  UNL     1      22.810  33.741   4.592  1.00  0.00     0.152 A 
HETATM   16  N5  UNL     1      23.381  34.663   5.376  1.00  0.00    -0.314 N 
ATOM     17  H5  UNL     1      24.292  35.085   5.200  1.00  0.00     0.170 HD
HETATM   18  C4  UNL     1      22.589  34.963   6.437  1.00  0.00     0.227 A 
HETATM   19  N6  UNL     1      21.453  34.213   6.352  1.00  0.00    -0.326 N 
ATOM     20  H6  UNL     1      20.677  34.230   7.014  1.00  0.00     0.168 HD
HETATM   21  C5  UNL     1      21.529  33.451   5.253  1.00  0.00     0.108 A 
HETATM   22  C6  UNL     1      20.682  32.530   4.700  1.00  0.00     0.111 A 
HETATM   23  N9  UNL     1      21.034  31.899   3.551  1.00  0.00    -0.188 N 
ATOM     24  H9  UNL     1      20.398  31.215   3.144  1.00  0.00     0.184 HD
ENDROOT
BRANCH  22  25
HETATM   25  C7  UNL     1      19.403  32.239   5.356  1.00  0.00     0.313 C 
BRANCH  25  26
HETATM   26  O4  UNL     1      18.801  33.493   5.618  1.00  0.00    -0.366 OA
ATOM     27  H4  UNL     1      19.507  34.128   5.629  1.00  0.00     0.213 HD
ENDBRANCH  25  26
BRANCH  25  28
HETATM   28  O5  UNL     1      18.544  31.480   4.604  1.00  0.00    -0.330 OA
BRANCH  28  29
HETATM   29  C8  UNL     1      17.812  30.664   5.460  1.00  0.00     0.272 C 
HETATM   30  N7  UNL     1      17.462  31.456   6.634  1.00  0.00    -0.084 NA
HETATM   31  N8  UNL     1      16.719  30.694   7.536  1.00  0.00     0.019 NA
HETATM   32  O6  UNL     1      17.345  29.592   7.950  1.00  0.00    -0.200 OA
HETATM   33  C9  UNL     1      17.717  28.733   6.936  1.00  0.00     0.328 C 
HETATM   34  C10 UNL     1      18.606  29.480   5.956  1.00  0.00     0.258 C 
BRANCH  33  35
HETATM   35  O7  UNL     1      18.484  27.717   7.494  1.00  0.00    -0.340 OA
ATOM     36  H7  UNL     1      19.378  27.821   7.190  1.00  0.00     0.215 HD
ENDBRANCH  33  35
BRANCH  33  37
HETATM   37  O8  UNL     1      16.600  28.251   6.263  1.00  0.00    -0.340 OA
ATOM     38  H8  UNL     1      16.387  27.372   6.552  1.00  0.00     0.215 HD
ENDBRANCH  33  37
BRANCH  34  39
HETATM   39  O9  UNL     1      18.928  28.664   4.867  1.00  0.00    -0.383 OA
ATOM     40  H9  UNL     1      19.528  27.988   5.158  1.00  0.00     0.210 HD
ENDBRANCH  34  39
ENDBRANCH  28  29
ENDBRANCH  25  28
ENDBRANCH  22  25
BRANCH  18  41
HETATM   41  S1  UNL     1      23.031  36.125   7.652  1.00  0.00     0.172 S 
HETATM   42  O1  UNL     1      24.341  35.779   8.299  1.00  0.00    -0.589 OA
HETATM   43  O2  UNL     1      22.005  36.188   8.753  1.00  0.00    -0.589 OA
HETATM   44  O3  UNL     1      23.167  37.662   7.009  1.00  0.00    -0.589 OA
ENDBRANCH  18  41
TORSDOF 8
ENDMDL
MODEL 5
REMARK VINA RESULT: -8.317712928      2.737      5.198
REMARK  8 active torsions:
REMARK  status: ('A' for Active; 'I' for Inactive)
REMARK       I    between atoms: N1_1  and  C1_5 
REMARK       I    between atoms: C1_5  and  N2_6 
REMARK       I    between atoms: C1_5  and  N3_10 
REMARK    1  A    between atoms: C4_18  and  S1_19 
REMARK    2  A    between atoms: C6_26  and  C7_27 
REMARK    3  A    between atoms: C7_27  and  O4_28 
REMARK    4  A    between atoms: C7_27  and  O5_30 
REMARK    5  A    between atoms: O5_30  and  C8_31 
REMARK    6  A    between atoms: C9_35  and  O7_36 
REMARK    7  A    between atoms: C9_35  and  O8_38 
REMARK    8  A    between atoms: C10_40  and  O9_41 
ROOT
HETATM    1  N1  UNL     1      23.603  34.860   2.780  1.00  0.00    -0.032 N 
ATOM      2  H11 UNL     1      23.916  35.549   2.097  1.00  0.00     0.278 HD
ATOM      3  H12 UNL     1      23.404  35.285   3.686  1.00  0.00     0.278 HD
ATOM      4  H13 UNL     1      22.667  34.511   2.569  1.00  0.00     0.278 HD
HETATM    5  C1  UNL     1      24.564  33.789   2.885  1.00  0.00     0.494 C 
HETATM    6  N2  UNL     1      24.118  32.803   3.862  1.00  0.00    -0.032 N 
ATOM      7  H21 UNL     1      24.797  32.047   3.936  1.00  0.00     0.278 HD
ATOM      8  H22 UNL     1      23.182  32.455   3.651  1.00  0.00     0.278 HD
ATOM      9  H23 UNL     1      23.919  33.228   4.768  1.00  0.00     0.278 HD
HETATM   10  N3  UNL     1      25.869  34.230   3.246  1.00  0.00    -0.173 N 
ATOM     11  H3  UNL     1      26.609  34.026   2.574  1.00  0.00     0.181 HD
HETATM   12  C2  UNL     1      26.231  34.848   4.303  1.00  0.00     0.683 A 
HETATM   13  N4  UNL     1      27.561  35.149   4.384  1.00  0.00    -0.174 N 
ATOM     14  H4  UNL     1      28.175  34.872   3.618  1.00  0.00     0.186 HD
HETATM   15  C3  UNL     1      28.091  35.794   5.431  1.00  0.00     0.152 A 
HETATM   16  N5  UNL     1      29.281  36.242   5.848  1.00  0.00    -0.314 N 
ATOM     17  H5  UNL     1      30.150  36.141   5.325  1.00  0.00     0.170 HD
HETATM   18  C4  UNL     1      29.180  36.848   7.058  1.00  0.00     0.227 A 
HETATM   19  N6  UNL     1      27.876  36.800   7.456  1.00  0.00    -0.326 N 
ATOM     20  H6  UNL     1      27.504  37.179   8.327  1.00  0.00     0.168 HD
HETATM   21  C5  UNL     1      27.166  36.172   6.509  1.00  0.00     0.108 A 
HETATM   22  C6  UNL     1      25.840  35.856   6.398  1.00  0.00     0.111 A 
HETATM   23  N9  UNL     1      25.397  35.199   5.295  1.00  0.00    -0.188 N 
ATOM     24  H9  UNL     1      24.407  34.967   5.219  1.00  0.00     0.184 HD
ENDROOT
BRANCH  22  25
HETATM   25  C7  UNL     1      24.915  36.232   7.471  1.00  0.00     0.313 C 
BRANCH  25  26
HETATM   26  O4  UNL     1      24.211  37.368   7.004  1.00  0.00    -0.366 OA
ATOM     27  H4  UNL     1      23.291  37.193   7.162  1.00  0.00     0.213 HD
ENDBRANCH  25  26
BRANCH  25  28
HETATM   28  O5  UNL     1      24.012  35.256   7.806  1.00  0.00    -0.330 OA
BRANCH  28  29
HETATM   29  C8  UNL     1      22.729  35.756   7.616  1.00  0.00     0.272 C 
HETATM   30  N7  UNL     1      22.024  35.662   8.890  1.00  0.00    -0.084 NA
HETATM   31  N8  UNL     1      20.725  36.153   8.770  1.00  0.00     0.019 NA
HETATM   32  O6  UNL     1      19.997  35.525   7.847  1.00  0.00    -0.200 OA
HETATM   33  C9  UNL     1      20.539  35.553   6.577  1.00  0.00     0.328 C 
HETATM   34  C10 UNL     1      21.932  34.949   6.619  1.00  0.00     0.258 C 
BRANCH  33  35
HETATM   35  O7  UNL     1      19.762  34.739   5.760  1.00  0.00    -0.340 OA
ATOM     36  H7  UNL     1      18.984  35.226   5.515  1.00  0.00     0.215 HD
ENDBRANCH  33  35
BRANCH  33  37
HETATM   37  O8  UNL     1      20.622  36.859   6.106  1.00  0.00    -0.340 OA
ATOM     38  H8  UNL     1      21.438  36.996   5.641  1.00  0.00     0.215 HD
ENDBRANCH  33  37
BRANCH  34  39
HETATM   39  O9  UNL     1      22.546  35.044   5.367  1.00  0.00    -0.383 OA
ATOM     40  H9  UNL     1      22.066  34.507   4.748  1.00  0.00     0.210 HD
ENDBRANCH  34  39
ENDBRANCH  28  29
ENDBRANCH  25  28
ENDBRANCH  22  25
BRANCH  18  41
HETATM   41  S1  UNL     1      30.540  37.543   7.888  1.00  0.00     0.172 S 
HETATM   42  O1  UNL     1      31.717  37.719   6.972  1.00  0.00    -0.589 OA
HETATM   43  O2  UNL     1      30.999  36.666   9.023  1.00  0.00    -0.589 OA
HETATM   44  O3  UNL     1      30.163  39.038   8.534  1.00  0.00    -0.589 OA
ENDBRANCH  18  41
TORSDOF 8
ENDMDL
