MODEL 1
REMARK VINA RESULT: -7.335321000      0.000      0.000
REMARK  10 active torsions:
REMARK  status: ('A' for Active; 'I' for Inactive)
REMARK    1  A    between atoms: O1_2  and  N1_3 
REMARK       I    between atoms: N1_3  and  C2_5 
REMARK       I    between atoms: C2_5  and  N2_7 
REMARK    2  A    between atoms: N2_7  and  C3_9 
REMARK    3  A    between atoms: C3_9  and  C4_10 
REMARK    4  A    between atoms: C3_9  and  C10_32 
REMARK    5  A    between atoms: C4_10  and  C6_15 
REMARK       I    between atoms: C6_15  and  N5_17 
REMARK    6  A    between atoms: N5_17  and  C7_19 
REMARK    7  A    between atoms: C8_24  and  N8_25 
REMARK    8  A    between atoms: N8_25  and  O4_26 
REMARK    9  A    between atoms: C13_35  and  O5_36 
REMARK   10  A    between atoms: C14_38  and  O6_39 
ROOT
HETATM    1  C4  UNL     1      22.478  39.946  -2.942  1.00  0.00     0.115 C 
HETATM    2  N3  UNL     1      23.185  38.951  -2.953  1.00  0.00    -0.290 N 
ATOM      3  H3  UNL     1      22.712  38.175  -3.414  1.00  0.00     0.178 HD
HETATM    4  C5  UNL     1      24.391  38.588  -2.540  1.00  0.00     0.182 C 
HETATM    5  N4  UNL     1      25.446  38.239  -2.192  1.00  0.00    -0.172 NA
ENDROOT
BRANCH   1   6
HETATM    6  C3  UNL     1      22.820  41.233  -2.369  1.00  0.00     0.176 C 
BRANCH   6   7
HETATM    7  N2  UNL     1      21.640  42.082  -2.208  1.00  0.00    -0.327 N 
HETATM    8  C2  UNL     1      21.401  42.823  -1.035  1.00  0.00     0.340 C 
HETATM    9  N1  UNL     1      20.253  43.643  -0.881  1.00  0.00    -0.217 N 
HETATM   10  O2  UNL     1      22.223  42.761  -0.098  1.00  0.00    -0.245 OA
ATOM     11  H1  UNL     1      19.574  43.701  -1.640  1.00  0.00     0.199 HD
ATOM     12  H2  UNL     1      20.967  42.138  -2.971  1.00  0.00     0.165 HD
BRANCH   9  13
HETATM   13  O1  UNL     1      20.039  44.358   0.264  1.00  0.00    -0.281 OA
HETATM   14  C1  UNL     1      20.122  45.710  -0.035  1.00  0.00     0.237 C 
ENDBRANCH   9  13
ENDBRANCH   6   7
BRANCH   6  15
HETATM   15  C10 UNL     1      23.755  42.038  -3.198  1.00  0.00    -0.027 A 
HETATM   16  C11 UNL     1      25.071  42.095  -2.805  1.00  0.00     0.012 A 
HETATM   17  C12 UNL     1      26.026  42.813  -3.511  1.00  0.00     0.040 A 
HETATM   18  C13 UNL     1      25.645  43.501  -4.658  1.00  0.00     0.098 A 
HETATM   19  C14 UNL     1      24.323  43.457  -5.073  1.00  0.00     0.099 A 
HETATM   20  C15 UNL     1      23.407  42.718  -4.321  1.00  0.00     0.049 A 
BRANCH  18  21
HETATM   21  O5  UNL     1      26.577  44.229  -5.388  1.00  0.00    -0.358 OA
ATOM     22  H5  UNL     1      26.845  43.940  -6.252  1.00  0.00     0.217 HD
ENDBRANCH  18  21
BRANCH  19  23
HETATM   23  O6  UNL     1      23.924  44.131  -6.206  1.00  0.00    -0.358 OA
ATOM     24  H6  UNL     1      23.025  44.072  -6.510  1.00  0.00     0.217 HD
ENDBRANCH  19  23
ENDBRANCH   6  15
ENDBRANCH   1   6
BRANCH   1  25
HETATM   25  C6  UNL     1      21.145  39.773  -3.595  1.00  0.00     0.285 C 
HETATM   26  O3  UNL     1      20.801  40.436  -4.576  1.00  0.00    -0.265 OA
HETATM   27  N5  UNL     1      20.196  38.808  -3.086  1.00  0.00    -0.153 N 
ATOM     28  H5  UNL     1      20.209  37.846  -3.428  1.00  0.00     0.187 HD
BRANCH  27  29
HETATM   29  C7  UNL     1      19.335  39.168  -2.200  1.00  0.00     0.702 A 
HETATM   30  N6  UNL     1      18.809  38.403  -1.233  1.00  0.00    -0.129 N 
HETATM   31  N7  UNL     1      17.955  39.131  -0.518  1.00  0.00    -0.258 N 
ATOM     32  H6  UNL     1      19.028  37.420  -1.072  1.00  0.00     0.205 HD
HETATM   33  C8  UNL     1      17.941  40.367  -1.039  1.00  0.00     0.228 A 
ATOM     34  H7  UNL     1      17.410  38.808   0.282  1.00  0.00     0.190 HD
HETATM   35  N10 UNL     1      18.791  40.372  -2.067  1.00  0.00    -0.160 N 
ATOM     36  H10 UNL     1      18.992  41.177  -2.660  1.00  0.00     0.187 HD
BRANCH  33  37
HETATM   37  N8  UNL     1      17.177  41.491  -0.604  1.00  0.00    -0.026 NA
HETATM   38  C9  UNL     1      16.236  41.818  -1.575  1.00  0.00     0.187 C 
HETATM   39  N9  UNL     1      15.475  42.095  -2.381  1.00  0.00    -0.176 NA
BRANCH  37  40
HETATM   40  O4  UNL     1      16.542  41.119   0.551  1.00  0.00    -0.292 OA
ATOM     41  H4  UNL     1      17.140  41.303   1.267  1.00  0.00     0.238 HD
ENDBRANCH  37  40
ENDBRANCH  33  37
ENDBRANCH  27  29
ENDBRANCH   1  25
TORSDOF 10
ENDMDL
MODEL 2
REMARK VINA RESULT: -7.151173756      1.404      4.088
REMARK  10 active torsions:
REMARK  status: ('A' for Active; 'I' for Inactive)
REMARK    1  A    between atoms: O1_2  and  N1_3 
REMARK       I    between atoms: N1_3  and  C2_5 
REMARK       I    between atoms: C2_5  and  N2_7 
REMARK    2  A    between atoms: N2_7  and  C3_9 
REMARK    3  A    between atoms: C3_9  and  C4_10 
REMARK    4  A    between atoms: C3_9  and  C10_32 
REMARK    5  A    between atoms: C4_10  and  C6_15 
REMARK       I    between atoms: C6_15  and  N5_17 
REMARK    6  A    between atoms: N5_17  and  C7_19 
REMARK    7  A    between atoms: C8_24  and  N8_25 
REMARK    8  A    between atoms: N8_25  and  O4_26 
REMARK    9  A    between atoms: C13_35  and  O5_36 
REMARK   10  A    between atoms: C14_38  and  O6_39 
ROOT
HETATM    1  C4  UNL     1      22.064  40.235  -3.274  1.00  0.00     0.115 C 
HETATM    2  N3  UNL     1      22.885  39.480  -2.778  1.00  0.00    -0.290 N 
ATOM      3  H3  UNL     1      22.528  38.526  -2.749  1.00  0.00     0.178 HD
HETATM    4  C5  UNL     1      24.106  39.542  -2.268  1.00  0.00     0.182 C 
HETATM    5  N4  UNL     1      25.179  39.561  -1.816  1.00  0.00    -0.172 NA
ENDROOT
BRANCH   1   6
HETATM    6  C3  UNL     1      22.225  41.662  -3.474  1.00  0.00     0.176 C 
BRANCH   6   7
HETATM    7  N2  UNL     1      23.636  42.038  -3.555  1.00  0.00    -0.327 N 
HETATM    8  C2  UNL     1      24.194  42.624  -4.707  1.00  0.00     0.340 C 
HETATM    9  N1  UNL     1      25.566  42.984  -4.782  1.00  0.00    -0.217 N 
HETATM   10  O2  UNL     1      23.464  42.834  -5.697  1.00  0.00    -0.245 OA
ATOM     11  H1  UNL     1      26.172  42.815  -3.980  1.00  0.00     0.199 HD
ATOM     12  H2  UNL     1      24.237  41.871  -2.748  1.00  0.00     0.165 HD
BRANCH   9  13
HETATM   13  O1  UNL     1      26.089  43.554  -5.909  1.00  0.00    -0.281 OA
HETATM   14  C1  UNL     1      26.335  44.895  -5.655  1.00  0.00     0.237 C 
ENDBRANCH   9  13
ENDBRANCH   6   7
BRANCH   6  15
HETATM   15  C10 UNL     1      21.673  42.497  -2.375  1.00  0.00    -0.027 A 
HETATM   16  C11 UNL     1      22.498  42.783  -1.314  1.00  0.00     0.012 A 
HETATM   17  C12 UNL     1      22.083  43.558  -0.240  1.00  0.00     0.040 A 
HETATM   18  C13 UNL     1      20.788  44.067  -0.231  1.00  0.00     0.098 A 
HETATM   19  C14 UNL     1      19.939  43.791  -1.292  1.00  0.00     0.099 A 
HETATM   20  C15 UNL     1      20.413  43.004  -2.345  1.00  0.00     0.049 A 
BRANCH  18  21
HETATM   21  O5  UNL     1      20.342  44.847   0.828  1.00  0.00    -0.358 OA
ATOM     22  H5  UNL     1      19.974  44.443   1.604  1.00  0.00     0.217 HD
ENDBRANCH  18  21
BRANCH  19  23
HETATM   23  O6  UNL     1      18.653  44.284  -1.305  1.00  0.00    -0.358 OA
ATOM     24  H6  UNL     1      18.487  45.202  -1.123  1.00  0.00     0.217 HD
ENDBRANCH  19  23
ENDBRANCH   6  15
ENDBRANCH   1   6
BRANCH   1  25
HETATM   25  C6  UNL     1      20.790  39.581  -3.703  1.00  0.00     0.285 C 
HETATM   26  O3  UNL     1      20.267  39.812  -4.795  1.00  0.00    -0.265 OA
HETATM   27  N5  UNL     1      20.117  38.642  -2.834  1.00  0.00    -0.153 N 
ATOM     28  H5  UNL     1      20.348  37.649  -2.874  1.00  0.00     0.187 HD
BRANCH  27  29
HETATM   29  C7  UNL     1      19.224  39.066  -2.010  1.00  0.00     0.702 A 
HETATM   30  N6  UNL     1      18.599  38.350  -1.064  1.00  0.00    -0.129 N 
HETATM   31  N7  UNL     1      17.743  39.136  -0.416  1.00  0.00    -0.258 N 
ATOM     32  H6  UNL     1      18.756  37.360  -0.872  1.00  0.00     0.205 HD
HETATM   33  C8  UNL     1      17.827  40.360  -0.961  1.00  0.00     0.228 A 
ATOM     34  H7  UNL     1      17.133  38.859   0.353  1.00  0.00     0.190 HD
HETATM   35  N10 UNL     1      18.737  40.299  -1.933  1.00  0.00    -0.160 N 
ATOM     36  H10 UNL     1      19.016  41.079  -2.527  1.00  0.00     0.187 HD
BRANCH  33  37
HETATM   37  N8  UNL     1      17.098  41.531  -0.594  1.00  0.00    -0.026 NA
HETATM   38  C9  UNL     1      16.194  41.850  -1.602  1.00  0.00     0.187 C 
HETATM   39  N9  UNL     1      15.464  42.120  -2.439  1.00  0.00    -0.176 NA
BRANCH  37  40
HETATM   40  O4  UNL     1      16.422  41.236   0.559  1.00  0.00    -0.292 OA
ATOM     41  H4  UNL     1      15.699  41.850   0.621  1.00  0.00     0.238 HD
ENDBRANCH  37  40
ENDBRANCH  33  37
ENDBRANCH  27  29
ENDBRANCH   1  25
TORSDOF 10
ENDMDL
MODEL 3
REMARK VINA RESULT: -7.091854362      0.812      1.305
REMARK  10 active torsions:
REMARK  status: ('A' for Active; 'I' for Inactive)
REMARK    1  A    between atoms: O1_2  and  N1_3 
REMARK       I    between atoms: N1_3  and  C2_5 
REMARK       I    between atoms: C2_5  and  N2_7 
REMARK    2  A    between atoms: N2_7  and  C3_9 
REMARK    3  A    between atoms: C3_9  and  C4_10 
REMARK    4  A    between atoms: C3_9  and  C10_32 
REMARK    5  A    between atoms: C4_10  and  C6_15 
REMARK       I    between atoms: C6_15  and  N5_17 
REMARK    6  A    between atoms: N5_17  and  C7_19 
REMARK    7  A    between atoms: C8_24  and  N8_25 
REMARK    8  A    between atoms: N8_25  and  O4_26 
REMARK    9  A    between atoms: C13_35  and  O5_36 
REMARK   10  A    between atoms: C14_38  and  O6_39 
ROOT
HETATM    1  C4  UNL     1      22.228  39.869  -3.286  1.00  0.00     0.115 C 
HETATM    2  N3  UNL     1      22.931  38.875  -3.198  1.00  0.00    -0.290 N 
ATOM      3  H3  UNL     1      22.422  38.045  -3.501  1.00  0.00     0.178 HD
HETATM    4  C5  UNL     1      24.162  38.561  -2.824  1.00  0.00     0.182 C 
HETATM    5  N4  UNL     1      25.239  38.254  -2.506  1.00  0.00    -0.172 NA
ENDROOT
BRANCH   1   6
HETATM    6  C3  UNL     1      22.616  41.223  -2.940  1.00  0.00     0.176 C 
BRANCH   6   7
HETATM    7  N2  UNL     1      21.461  42.030  -2.547  1.00  0.00    -0.327 N 
HETATM    8  C2  UNL     1      21.392  42.690  -1.306  1.00  0.00     0.340 C 
HETATM    9  N1  UNL     1      20.267  43.470  -0.927  1.00  0.00    -0.217 N 
HETATM   10  O2  UNL     1      22.347  42.590  -0.509  1.00  0.00    -0.245 OA
ATOM     11  H1  UNL     1      19.480  43.558  -1.569  1.00  0.00     0.199 HD
ATOM     12  H2  UNL     1      20.679  42.118  -3.195  1.00  0.00     0.165 HD
BRANCH   9  13
HETATM   13  O1  UNL     1      20.218  44.106   0.282  1.00  0.00    -0.281 OA
HETATM   14  C1  UNL     1      20.362  45.469   0.072  1.00  0.00     0.237 C 
ENDBRANCH   9  13
ENDBRANCH   6   7
BRANCH   6  15
HETATM   15  C10 UNL     1      23.245  41.979  -4.055  1.00  0.00    -0.027 A 
HETATM   16  C11 UNL     1      22.486  42.936  -4.686  1.00  0.00     0.012 A 
HETATM   17  C12 UNL     1      22.979  43.701  -5.733  1.00  0.00     0.040 A 
HETATM   18  C13 UNL     1      24.287  43.499  -6.164  1.00  0.00     0.098 A 
HETATM   19  C14 UNL     1      25.070  42.539  -5.541  1.00  0.00     0.099 A 
HETATM   20  C15 UNL     1      24.517  41.799  -4.492  1.00  0.00     0.049 A 
BRANCH  18  21
HETATM   21  O5  UNL     1      24.810  44.249  -7.209  1.00  0.00    -0.358 OA
ATOM     22  H5  UNL     1      25.267  43.826  -7.926  1.00  0.00     0.217 HD
ENDBRANCH  18  21
BRANCH  19  23
HETATM   23  O6  UNL     1      26.366  42.322  -5.951  1.00  0.00    -0.358 OA
ATOM     24  H6  UNL     1      27.077  42.842  -5.597  1.00  0.00     0.217 HD
ENDBRANCH  19  23
ENDBRANCH   6  15
ENDBRANCH   1   6
BRANCH   1  25
HETATM   25  C6  UNL     1      20.850  39.619  -3.806  1.00  0.00     0.285 C 
HETATM   26  O3  UNL     1      20.407  40.197  -4.801  1.00  0.00    -0.265 OA
HETATM   27  N5  UNL     1      19.974  38.677  -3.146  1.00  0.00    -0.153 N 
ATOM     28  H5  UNL     1      19.984  37.692  -3.413  1.00  0.00     0.187 HD
BRANCH  27  29
HETATM   29  C7  UNL     1      19.182  39.087  -2.218  1.00  0.00     0.702 A 
HETATM   30  N6  UNL     1      18.732  38.377  -1.174  1.00  0.00    -0.129 N 
HETATM   31  N7  UNL     1      17.933  39.145  -0.437  1.00  0.00    -0.258 N 
ATOM     32  H6  UNL     1      18.965  37.404  -0.976  1.00  0.00     0.205 HD
HETATM   33  C8  UNL     1      17.877  40.351  -1.023  1.00  0.00     0.228 A 
ATOM     34  H7  UNL     1      17.450  38.868   0.418  1.00  0.00     0.190 HD
HETATM   35  N10 UNL     1      18.646  40.298  -2.111  1.00  0.00    -0.160 N 
ATOM     36  H10 UNL     1      18.800  41.068  -2.761  1.00  0.00     0.187 HD
BRANCH  33  37
HETATM   37  N8  UNL     1      17.145  41.498  -0.594  1.00  0.00    -0.026 NA
HETATM   38  C9  UNL     1      16.231  41.861  -1.578  1.00  0.00     0.187 C 
HETATM   39  N9  UNL     1      15.492  42.168  -2.394  1.00  0.00    -0.176 NA
BRANCH  37  40
HETATM   40  O4  UNL     1      16.480  41.143   0.549  1.00  0.00    -0.292 OA
ATOM     41  H4  UNL     1      15.819  40.508   0.298  1.00  0.00     0.238 HD
ENDBRANCH  37  40
ENDBRANCH  33  37
ENDBRANCH  27  29
ENDBRANCH   1  25
TORSDOF 10
ENDMDL
MODEL 4
REMARK VINA RESULT: -7.064037444      5.419      9.588
REMARK  10 active torsions:
REMARK  status: ('A' for Active; 'I' for Inactive)
REMARK    1  A    between atoms: O1_2  and  N1_3 
REMARK       I    between atoms: N1_3  and  C2_5 
REMARK       I    between atoms: C2_5  and  N2_7 
REMARK    2  A    between atoms: N2_7  and  C3_9 
REMARK    3  A    between atoms: C3_9  and  C4_10 
REMARK    4  A    between atoms: C3_9  and  C10_32 
REMARK    5  A    between atoms: C4_10  and  C6_15 
REMARK       I    between atoms: C6_15  and  N5_17 
REMARK    6  A    between atoms: N5_17  and  C7_19 
REMARK    7  A    between atoms: C8_24  and  N8_25 
REMARK    8  A    between atoms: N8_25  and  O4_26 
REMARK    9  A    between atoms: C13_35  and  O5_36 
REMARK   10  A    between atoms: C14_38  and  O6_39 
ROOT
HETATM    1  C4  UNL     1      16.993  47.822  -3.463  1.00  0.00     0.115 C 
HETATM    2  N3  UNL     1      17.336  48.993  -3.443  1.00  0.00    -0.290 N 
ATOM      3  H3  UNL     1      18.008  49.186  -4.185  1.00  0.00     0.178 HD
HETATM    4  C5  UNL     1      17.089  50.085  -2.735  1.00  0.00     0.182 C 
HETATM    5  N4  UNL     1      16.891  51.064  -2.136  1.00  0.00    -0.172 NA
ENDROOT
BRANCH   1   6
HETATM    6  C3  UNL     1      16.055  47.189  -2.556  1.00  0.00     0.176 C 
BRANCH   6   7
HETATM    7  N2  UNL     1      16.012  45.740  -2.750  1.00  0.00    -0.327 N 
HETATM    8  C2  UNL     1      16.740  44.850  -1.938  1.00  0.00     0.340 C 
HETATM    9  N1  UNL     1      16.699  43.444  -2.132  1.00  0.00    -0.217 N 
HETATM   10  O2  UNL     1      17.448  45.307  -1.017  1.00  0.00    -0.245 OA
ATOM     11  H1  UNL     1      16.126  43.060  -2.882  1.00  0.00     0.199 HD
ATOM     12  H2  UNL     1      15.434  45.361  -3.499  1.00  0.00     0.165 HD
BRANCH   9  13
HETATM   13  O1  UNL     1      17.412  42.596  -1.332  1.00  0.00    -0.281 OA
HETATM   14  C1  UNL     1      16.794  41.354  -1.342  1.00  0.00     0.237 C 
ENDBRANCH   9  13
ENDBRANCH   6   7
BRANCH   6  15
HETATM   15  C10 UNL     1      14.647  47.636  -2.728  1.00  0.00    -0.027 A 
HETATM   16  C11 UNL     1      13.900  47.031  -3.709  1.00  0.00     0.012 A 
HETATM   17  C12 UNL     1      12.575  47.369  -3.947  1.00  0.00     0.040 A 
HETATM   18  C13 UNL     1      11.977  48.355  -3.169  1.00  0.00     0.098 A 
HETATM   19  C14 UNL     1      12.713  48.979  -2.173  1.00  0.00     0.099 A 
HETATM   20  C15 UNL     1      14.043  48.596  -1.981  1.00  0.00     0.049 A 
BRANCH  18  21
HETATM   21  O5  UNL     1      10.653  48.717  -3.381  1.00  0.00    -0.358 OA
ATOM     22  H5  UNL     1      10.075  48.889  -2.647  1.00  0.00     0.217 HD
ENDBRANCH  18  21
BRANCH  19  23
HETATM   23  O6  UNL     1      12.141  49.957  -1.391  1.00  0.00    -0.358 OA
ATOM     24  H6  UNL     1      11.960  50.818  -1.750  1.00  0.00     0.217 HD
ENDBRANCH  19  23
ENDBRANCH   6  15
ENDBRANCH   1   6
BRANCH   1  25
HETATM   25  C6  UNL     1      17.621  47.003  -4.545  1.00  0.00     0.285 C 
HETATM   26  O3  UNL     1      16.974  46.561  -5.496  1.00  0.00    -0.265 OA
HETATM   27  N5  UNL     1      19.034  46.695  -4.507  1.00  0.00    -0.153 N 
ATOM     28  H5  UNL     1      19.709  47.328  -4.938  1.00  0.00     0.187 HD
BRANCH  27  29
HETATM   29  C7  UNL     1      19.434  45.618  -3.928  1.00  0.00     0.702 A 
HETATM   30  N6  UNL     1      19.310  44.365  -4.387  1.00  0.00    -0.129 N 
HETATM   31  N7  UNL     1      19.844  43.523  -3.505  1.00  0.00    -0.258 N 
ATOM     32  H6  UNL     1      18.875  44.100  -5.271  1.00  0.00     0.205 HD
HETATM   33  C8  UNL     1      20.308  44.252  -2.479  1.00  0.00     0.228 A 
ATOM     34  H7  UNL     1      19.891  42.508  -3.594  1.00  0.00     0.190 HD
HETATM   35  N10 UNL     1      20.050  45.531  -2.754  1.00  0.00    -0.160 N 
ATOM     36  H10 UNL     1      20.287  46.321  -2.155  1.00  0.00     0.187 HD
BRANCH  33  37
HETATM   37  N8  UNL     1      20.962  43.784  -1.300  1.00  0.00    -0.026 NA
HETATM   38  C9  UNL     1      21.842  44.758  -0.839  1.00  0.00     0.187 C 
HETATM   39  N9  UNL     1      22.577  45.552  -0.472  1.00  0.00    -0.176 NA
BRANCH  37  40
HETATM   40  O4  UNL     1      19.988  43.560  -0.365  1.00  0.00    -0.292 OA
ATOM     41  H4  UNL     1      20.388  43.062   0.338  1.00  0.00     0.238 HD
ENDBRANCH  37  40
ENDBRANCH  33  37
ENDBRANCH  27  29
ENDBRANCH   1  25
TORSDOF 10
ENDMDL
MODEL 5
REMARK VINA RESULT: -7.010037061      2.225      3.052
REMARK  10 active torsions:
REMARK  status: ('A' for Active; 'I' for Inactive)
REMARK    1  A    between atoms: O1_2  and  N1_3 
REMARK       I    between atoms: N1_3  and  C2_5 
REMARK       I    between atoms: C2_5  and  N2_7 
REMARK    2  A    between atoms: N2_7  and  C3_9 
REMARK    3  A    between atoms: C3_9  and  C4_10 
REMARK    4  A    between atoms: C3_9  and  C10_32 
REMARK    5  A    between atoms: C4_10  and  C6_15 
REMARK       I    between atoms: C6_15  and  N5_17 
REMARK    6  A    between atoms: N5_17  and  C7_19 
REMARK    7  A    between atoms: C8_24  and  N8_25 
REMARK    8  A    between atoms: N8_25  and  O4_26 
REMARK    9  A    between atoms: C13_35  and  O5_36 
REMARK   10  A    between atoms: C14_38  and  O6_39 
ROOT
HETATM    1  C4  UNL     1      21.699  40.703  -3.713  1.00  0.00     0.115 C 
HETATM    2  N3  UNL     1      21.884  41.521  -4.600  1.00  0.00    -0.290 N 
ATOM      3  H3  UNL     1      21.202  41.404  -5.348  1.00  0.00     0.178 HD
HETATM    4  C5  UNL     1      22.715  42.516  -4.873  1.00  0.00     0.182 C 
HETATM    5  N4  UNL     1      23.427  43.398  -5.140  1.00  0.00    -0.172 NA
ENDROOT
BRANCH   1   6
HETATM    6  C3  UNL     1      22.478  40.569  -2.497  1.00  0.00     0.176 C 
BRANCH   6   7
HETATM    7  N2  UNL     1      22.755  41.871  -1.890  1.00  0.00    -0.327 N 
HETATM    8  C2  UNL     1      21.920  42.438  -0.909  1.00  0.00     0.340 C 
HETATM    9  N1  UNL     1      22.191  43.703  -0.325  1.00  0.00    -0.217 N 
HETATM   10  O2  UNL     1      20.906  41.812  -0.538  1.00  0.00    -0.245 OA
ATOM     11  H1  UNL     1      23.016  44.224  -0.622  1.00  0.00     0.199 HD
ATOM     12  H2  UNL     1      23.584  42.386  -2.187  1.00  0.00     0.165 HD
BRANCH   9  13
HETATM   13  O1  UNL     1      21.369  44.237   0.627  1.00  0.00    -0.281 OA
HETATM   14  C1  UNL     1      22.137  44.985   1.507  1.00  0.00     0.237 C 
ENDBRANCH   9  13
ENDBRANCH   6   7
BRANCH   6  15
HETATM   15  C10 UNL     1      23.815  39.951  -2.695  1.00  0.00    -0.027 A 
HETATM   16  C11 UNL     1      24.920  40.746  -2.512  1.00  0.00     0.012 A 
HETATM   17  C12 UNL     1      26.213  40.266  -2.665  1.00  0.00     0.040 A 
HETATM   18  C13 UNL     1      26.404  38.933  -3.017  1.00  0.00     0.098 A 
HETATM   19  C14 UNL     1      25.302  38.113  -3.207  1.00  0.00     0.099 A 
HETATM   20  C15 UNL     1      24.025  38.654  -3.038  1.00  0.00     0.049 A 
BRANCH  18  21
HETATM   21  O5  UNL     1      27.685  38.421  -3.178  1.00  0.00    -0.358 OA
ATOM     22  H5  UNL     1      27.815  37.517  -3.438  1.00  0.00     0.217 HD
ENDBRANCH  18  21
BRANCH  19  23
HETATM   23  O6  UNL     1      25.468  36.791  -3.554  1.00  0.00    -0.358 OA
ATOM     24  H6  UNL     1      25.422  36.109  -2.894  1.00  0.00     0.217 HD
ENDBRANCH  19  23
ENDBRANCH   6  15
ENDBRANCH   1   6
BRANCH   1  25
HETATM   25  C6  UNL     1      20.549  39.777  -3.944  1.00  0.00     0.285 C 
HETATM   26  O3  UNL     1      19.919  39.761  -5.003  1.00  0.00    -0.265 OA
HETATM   27  N5  UNL     1      20.129  38.855  -2.912  1.00  0.00    -0.153 N 
ATOM     28  H5  UNL     1      20.543  37.924  -2.855  1.00  0.00     0.187 HD
BRANCH  27  29
HETATM   29  C7  UNL     1      19.228  39.216  -2.066  1.00  0.00     0.702 A 
HETATM   30  N6  UNL     1      18.658  38.450  -1.125  1.00  0.00    -0.129 N 
HETATM   31  N7  UNL     1      17.772  39.178  -0.448  1.00  0.00    -0.258 N 
ATOM     32  H6  UNL     1      18.870  37.467  -0.954  1.00  0.00     0.205 HD
HETATM   33  C8  UNL     1      17.783  40.414  -0.970  1.00  0.00     0.228 A 
ATOM     34  H7  UNL     1      17.191  38.855   0.325  1.00  0.00     0.190 HD
HETATM   35  N10 UNL     1      18.678  40.420  -1.957  1.00  0.00    -0.160 N 
ATOM     36  H10 UNL     1      18.907  41.225  -2.540  1.00  0.00     0.187 HD
BRANCH  33  37
HETATM   37  N8  UNL     1      16.999  41.538  -0.569  1.00  0.00    -0.026 NA
HETATM   38  C9  UNL     1      16.137  41.895  -1.601  1.00  0.00     0.187 C 
HETATM   39  N9  UNL     1      15.442  42.197  -2.456  1.00  0.00    -0.176 NA
BRANCH  37  40
HETATM   40  O4  UNL     1      16.276  41.150   0.526  1.00  0.00    -0.292 OA
ATOM     41  H4  UNL     1      16.482  41.761   1.224  1.00  0.00     0.238 HD
ENDBRANCH  37  40
ENDBRANCH  33  37
ENDBRANCH  27  29
ENDBRANCH   1  25
TORSDOF 10
ENDMDL
