MODEL 1
REMARK VINA RESULT: -8.662156428      0.000      0.000
REMARK  8 active torsions:
REMARK  status: ('A' for Active; 'I' for Inactive)
REMARK    1  A    between atoms: C6_7  and  C7_8 
REMARK    2  A    between atoms: C7_8  and  O2_9 
REMARK    3  A    between atoms: C12_15  and  C13_16 
REMARK    4  A    between atoms: C14_17  and  C15_18 
REMARK    5  A    between atoms: C15_18  and  C16_22 
REMARK    6  A    between atoms: C16_22  and  O3_23 
REMARK    7  A    between atoms: O3_23  and  C17_24 
REMARK       I    between atoms: C17_24  and  N2_26 
REMARK    8  A    between atoms: C20_29  and  O5_30 
ROOT
HETATM    1  C13 UNL     1       2.904  45.339  54.001  1.00  0.00    -0.015 C 
HETATM    2  C14 UNL     1       1.845  44.617  53.869  1.00  0.00     0.023 C 
ENDROOT
BRANCH   2   3
HETATM    3  C15 UNL     1       1.536  43.489  53.040  1.00  0.00     0.027 C 
HETATM    4  N1  UNL     1       1.168  42.374  53.654  1.00  0.00    -0.401 N 
ATOM      5  H12 UNL     1       1.143  42.427  54.672  1.00  0.00     0.156 HD
ATOM      6  H11 UNL     1       0.949  41.571  53.064  1.00  0.00     0.156 HD
BRANCH   3   7
HETATM    7  C16 UNL     1       1.572  43.412  51.570  1.00  0.00     0.237 C 
BRANCH   7   8
HETATM    8  O3  UNL     1       2.023  42.117  51.134  1.00  0.00    -0.298 OA
BRANCH   8   9
HETATM    9  C17 UNL     1       3.324  41.998  50.668  1.00  0.00     0.363 C 
HETATM   10  O4  UNL     1       4.254  42.411  51.397  1.00  0.00    -0.238 OA
HETATM   11  N2  UNL     1       3.581  41.415  49.385  1.00  0.00    -0.328 N 
HETATM   12  C18 UNL     1       4.952  41.306  48.928  1.00  0.00     0.130 C 
HETATM   13  C22 UNL     1       2.530  40.933  48.530  1.00  0.00     0.130 C 
HETATM   14  C19 UNL     1       5.076  41.964  47.557  1.00  0.00     0.051 C 
HETATM   15  C20 UNL     1       4.049  41.403  46.612  1.00  0.00     0.121 C 
HETATM   16  C21 UNL     1       2.670  41.604  47.175  1.00  0.00     0.051 C 
BRANCH  15  17
HETATM   17  O5  UNL     1       4.296  40.088  46.250  1.00  0.00    -0.395 OA
ATOM     18  H5  UNL     1       3.618  39.486  46.534  1.00  0.00     0.210 HD
ENDBRANCH  15  17
ENDBRANCH   8   9
ENDBRANCH   7   8
ENDBRANCH   3   7
ENDBRANCH   2   3
BRANCH   1  19
HETATM   19  C12 UNL     1       4.191  45.274  53.349  1.00  0.00     0.047 C 
HETATM   20  C2  UNL     1       4.196  46.037  52.036  1.00  0.00    -0.081 C 
HETATM   21  C1  UNL     1       3.208  46.819  51.662  1.00  0.00     0.015 C 
HETATM   22  C3  UNL     1       5.403  45.841  51.193  1.00  0.00     0.036 C 
HETATM   23  C4  UNL     1       6.440  45.153  52.057  1.00  0.00     0.037 C 
HETATM   24  C5  UNL     1       6.564  45.857  53.369  1.00  0.00     0.131 C 
HETATM   25  O1  UNL     1       7.082  47.138  53.110  1.00  0.00    -0.378 OA
HETATM   26  C10 UNL     1       5.308  45.909  54.172  1.00  0.00    -0.007 C 
HETATM   27  C6  UNL     1       7.466  47.706  54.330  1.00  0.00     0.145 C 
HETATM   28  C8  UNL     1       6.197  48.008  55.088  1.00  0.00     0.035 C 
HETATM   29  C9  UNL     1       4.983  47.351  54.488  1.00  0.00     0.015 C 
HETATM   30  C11 UNL     1       5.412  45.163  55.486  1.00  0.00     0.019 C 
BRANCH  27  31
HETATM   31  C7  UNL     1       8.198  49.008  53.979  1.00  0.00     0.196 C 
BRANCH  31  32
HETATM   32  O2  UNL     1       8.527  49.717  55.139  1.00  0.00    -0.398 OA
ATOM     33  H2  UNL     1       9.403  50.079  55.074  1.00  0.00     0.209 HD
ENDBRANCH  31  32
ENDBRANCH  27  31
ENDBRANCH   1  19
TORSDOF 8
ENDMDL
MODEL 2
REMARK VINA RESULT: -8.529774044      2.486      4.340
REMARK  8 active torsions:
REMARK  status: ('A' for Active; 'I' for Inactive)
REMARK    1  A    between atoms: C6_7  and  C7_8 
REMARK    2  A    between atoms: C7_8  and  O2_9 
REMARK    3  A    between atoms: C12_15  and  C13_16 
REMARK    4  A    between atoms: C14_17  and  C15_18 
REMARK    5  A    between atoms: C15_18  and  C16_22 
REMARK    6  A    between atoms: C16_22  and  O3_23 
REMARK    7  A    between atoms: O3_23  and  C17_24 
REMARK       I    between atoms: C17_24  and  N2_26 
REMARK    8  A    between atoms: C20_29  and  O5_30 
ROOT
HETATM    1  C13 UNL     1       5.923  45.513  51.179  1.00  0.00    -0.015 C 
HETATM    2  C14 UNL     1       6.405  44.896  50.154  1.00  0.00     0.023 C 
ENDROOT
BRANCH   2   3
HETATM    3  C15 UNL     1       6.972  43.590  49.985  1.00  0.00     0.027 C 
HETATM    4  N1  UNL     1       8.213  43.527  49.525  1.00  0.00    -0.401 N 
ATOM      5  H12 UNL     1       8.649  44.429  49.330  1.00  0.00     0.156 HD
ATOM      6  H11 UNL     1       8.616  42.599  49.405  1.00  0.00     0.156 HD
BRANCH   3   7
HETATM    7  C16 UNL     1       6.342  42.289  50.268  1.00  0.00     0.237 C 
BRANCH   7   8
HETATM    8  O3  UNL     1       5.972  41.623  49.047  1.00  0.00    -0.298 OA
BRANCH   8   9
HETATM    9  C17 UNL     1       4.660  41.199  48.902  1.00  0.00     0.363 C 
HETATM   10  O4  UNL     1       4.081  40.714  49.901  1.00  0.00    -0.238 OA
HETATM   11  N2  UNL     1       3.997  41.318  47.638  1.00  0.00    -0.328 N 
HETATM   12  C18 UNL     1       2.625  40.865  47.521  1.00  0.00     0.130 C 
HETATM   13  C22 UNL     1       4.641  41.872  46.478  1.00  0.00     0.130 C 
HETATM   14  C19 UNL     1       2.524  39.872  46.368  1.00  0.00     0.051 C 
HETATM   15  C20 UNL     1       3.101  40.466  45.112  1.00  0.00     0.121 C 
HETATM   16  C21 UNL     1       4.532  40.866  45.344  1.00  0.00     0.051 C 
BRANCH  15  17
HETATM   17  O5  UNL     1       2.334  41.495  44.588  1.00  0.00    -0.395 OA
ATOM     18  H5  UNL     1       2.617  41.773  43.725  1.00  0.00     0.210 HD
ENDBRANCH  15  17
ENDBRANCH   8   9
ENDBRANCH   7   8
ENDBRANCH   3   7
ENDBRANCH   2   3
BRANCH   1  19
HETATM   19  C12 UNL     1       5.779  45.105  52.557  1.00  0.00     0.047 C 
HETATM   20  C2  UNL     1       6.237  46.189  53.517  1.00  0.00    -0.081 C 
HETATM   21  C1  UNL     1       6.530  47.410  53.125  1.00  0.00     0.015 C 
HETATM   22  C3  UNL     1       6.332  45.777  54.940  1.00  0.00     0.036 C 
HETATM   23  C4  UNL     1       5.632  44.440  55.062  1.00  0.00     0.037 C 
HETATM   24  C5  UNL     1       4.295  44.498  54.401  1.00  0.00     0.131 C 
HETATM   25  O1  UNL     1       3.504  45.402  55.131  1.00  0.00    -0.378 OA
HETATM   26  C10 UNL     1       4.330  44.828  52.947  1.00  0.00    -0.007 C 
HETATM   27  C6  UNL     1       2.178  45.263  54.705  1.00  0.00     0.145 C 
HETATM   28  C8  UNL     1       2.111  45.819  53.304  1.00  0.00     0.035 C 
HETATM   29  C9  UNL     1       3.468  46.044  52.695  1.00  0.00     0.015 C 
HETATM   30  C11 UNL     1       3.809  43.707  52.070  1.00  0.00     0.019 C 
BRANCH  27  31
HETATM   31  C7  UNL     1       1.335  46.119  55.658  1.00  0.00     0.196 C 
BRANCH  31  32
HETATM   32  O2  UNL     1       1.977  46.260  56.894  1.00  0.00    -0.398 OA
ATOM     33  H2  UNL     1       1.341  46.298  57.599  1.00  0.00     0.209 HD
ENDBRANCH  31  32
ENDBRANCH  27  31
ENDBRANCH   1  19
TORSDOF 8
ENDMDL
MODEL 3
REMARK VINA RESULT: -8.182051281      2.501      4.383
REMARK  8 active torsions:
REMARK  status: ('A' for Active; 'I' for Inactive)
REMARK    1  A    between atoms: C6_7  and  C7_8 
REMARK    2  A    between atoms: C7_8  and  O2_9 
REMARK    3  A    between atoms: C12_15  and  C13_16 
REMARK    4  A    between atoms: C14_17  and  C15_18 
REMARK    5  A    between atoms: C15_18  and  C16_22 
REMARK    6  A    between atoms: C16_22  and  O3_23 
REMARK    7  A    between atoms: O3_23  and  C17_24 
REMARK       I    between atoms: C17_24  and  N2_26 
REMARK    8  A    between atoms: C20_29  and  O5_30 
ROOT
HETATM    1  C13 UNL     1       5.907  45.449  51.213  1.00  0.00    -0.015 C 
HETATM    2  C14 UNL     1       6.274  44.785  50.170  1.00  0.00     0.023 C 
ENDROOT
BRANCH   2   3
HETATM    3  C15 UNL     1       6.656  43.417  49.976  1.00  0.00     0.027 C 
HETATM    4  N1  UNL     1       7.840  43.194  49.424  1.00  0.00    -0.401 N 
ATOM      5  H12 UNL     1       8.371  44.032  49.185  1.00  0.00     0.156 HD
ATOM      6  H11 UNL     1       8.111  42.221  49.286  1.00  0.00     0.156 HD
BRANCH   3   7
HETATM    7  C16 UNL     1       5.889  42.208  50.321  1.00  0.00     0.237 C 
BRANCH   7   8
HETATM    8  O3  UNL     1       5.948  41.241  49.257  1.00  0.00    -0.298 OA
BRANCH   8   9
HETATM    9  C17 UNL     1       5.166  41.453  48.132  1.00  0.00     0.363 C 
HETATM   10  O4  UNL     1       5.685  42.035  47.152  1.00  0.00    -0.238 OA
HETATM   11  N2  UNL     1       3.803  41.015  48.106  1.00  0.00    -0.328 N 
HETATM   12  C18 UNL     1       3.013  41.253  46.915  1.00  0.00     0.130 C 
HETATM   13  C22 UNL     1       3.185  40.346  49.219  1.00  0.00     0.130 C 
HETATM   14  C19 UNL     1       1.736  41.992  47.301  1.00  0.00     0.051 C 
HETATM   15  C20 UNL     1       1.016  41.257  48.398  1.00  0.00     0.121 C 
HETATM   16  C21 UNL     1       1.920  41.100  49.589  1.00  0.00     0.051 C 
BRANCH  15  17
HETATM   17  O5  UNL     1       0.462  40.057  47.983  1.00  0.00    -0.395 OA
ATOM     18  H5  UNL     1      -0.488  40.050  48.014  1.00  0.00     0.210 HD
ENDBRANCH  15  17
ENDBRANCH   8   9
ENDBRANCH   7   8
ENDBRANCH   3   7
ENDBRANCH   2   3
BRANCH   1  19
HETATM   19  C12 UNL     1       5.744  45.048  52.590  1.00  0.00     0.047 C 
HETATM   20  C2  UNL     1       6.255  46.109  53.550  1.00  0.00    -0.081 C 
HETATM   21  C1  UNL     1       6.608  47.314  53.159  1.00  0.00     0.015 C 
HETATM   22  C3  UNL     1       6.332  45.693  54.973  1.00  0.00     0.036 C 
HETATM   23  C4  UNL     1       5.568  44.391  55.095  1.00  0.00     0.037 C 
HETATM   24  C5  UNL     1       4.234  44.515  54.436  1.00  0.00     0.131 C 
HETATM   25  O1  UNL     1       3.489  45.456  55.167  1.00  0.00    -0.378 OA
HETATM   26  C10 UNL     1       4.284  44.842  52.982  1.00  0.00    -0.007 C 
HETATM   27  C6  UNL     1       2.158  45.382  54.743  1.00  0.00     0.145 C 
HETATM   28  C8  UNL     1       2.116  45.942  53.341  1.00  0.00     0.035 C 
HETATM   29  C9  UNL     1       3.483  46.100  52.731  1.00  0.00     0.015 C 
HETATM   30  C11 UNL     1       3.708  43.748  52.105  1.00  0.00     0.019 C 
BRANCH  27  31
HETATM   31  C7  UNL     1       1.359  46.279  55.697  1.00  0.00     0.196 C 
BRANCH  31  32
HETATM   32  O2  UNL     1       1.948  46.297  56.966  1.00  0.00    -0.398 OA
ATOM     33  H2  UNL     1       1.691  47.077  57.443  1.00  0.00     0.209 HD
ENDBRANCH  31  32
ENDBRANCH  27  31
ENDBRANCH   1  19
TORSDOF 8
ENDMDL
MODEL 4
REMARK VINA RESULT: -8.033347742      1.428      1.904
REMARK  8 active torsions:
REMARK  status: ('A' for Active; 'I' for Inactive)
REMARK    1  A    between atoms: C6_7  and  C7_8 
REMARK    2  A    between atoms: C7_8  and  O2_9 
REMARK    3  A    between atoms: C12_15  and  C13_16 
REMARK    4  A    between atoms: C14_17  and  C15_18 
REMARK    5  A    between atoms: C15_18  and  C16_22 
REMARK    6  A    between atoms: C16_22  and  O3_23 
REMARK    7  A    between atoms: O3_23  and  C17_24 
REMARK       I    between atoms: C17_24  and  N2_26 
REMARK    8  A    between atoms: C20_29  and  O5_30 
ROOT
HETATM    1  C13 UNL     1       2.698  45.449  54.061  1.00  0.00    -0.015 C 
HETATM    2  C14 UNL     1       1.607  44.774  53.931  1.00  0.00     0.023 C 
ENDROOT
BRANCH   2   3
HETATM    3  C15 UNL     1       1.251  43.652  53.112  1.00  0.00     0.027 C 
HETATM    4  N1  UNL     1       1.467  42.446  53.616  1.00  0.00    -0.401 N 
ATOM      5  H12 UNL     1       1.876  42.433  54.551  1.00  0.00     0.156 HD
ATOM      6  H11 UNL     1       1.215  41.648  53.034  1.00  0.00     0.156 HD
BRANCH   3   7
HETATM    7  C16 UNL     1       0.661  43.670  51.763  1.00  0.00     0.237 C 
BRANCH   7   8
HETATM    8  O3  UNL     1       0.381  42.335  51.308  1.00  0.00    -0.298 OA
BRANCH   8   9
HETATM    9  C17 UNL     1       0.192  42.129  49.949  1.00  0.00     0.363 C 
HETATM   10  O4  UNL     1      -0.904  42.465  49.447  1.00  0.00    -0.238 OA
HETATM   11  N2  UNL     1       1.232  41.546  49.155  1.00  0.00    -0.328 N 
HETATM   12  C18 UNL     1       1.001  41.345  47.738  1.00  0.00     0.130 C 
HETATM   13  C22 UNL     1       2.499  41.153  49.709  1.00  0.00     0.130 C 
HETATM   14  C19 UNL     1       1.270  39.885  47.390  1.00  0.00     0.051 C 
HETATM   15  C20 UNL     1       2.635  39.474  47.872  1.00  0.00     0.121 C 
HETATM   16  C21 UNL     1       2.744  39.696  49.355  1.00  0.00     0.051 C 
BRANCH  15  17
HETATM   17  O5  UNL     1       3.668  40.066  47.163  1.00  0.00    -0.395 OA
ATOM     18  H5  UNL     1       3.997  40.859  47.568  1.00  0.00     0.210 HD
ENDBRANCH  15  17
ENDBRANCH   8   9
ENDBRANCH   7   8
ENDBRANCH   3   7
ENDBRANCH   2   3
BRANCH   1  19
HETATM   19  C12 UNL     1       3.983  45.318  53.415  1.00  0.00     0.047 C 
HETATM   20  C2  UNL     1       4.021  46.049  52.084  1.00  0.00    -0.081 C 
HETATM   21  C1  UNL     1       3.064  46.859  51.688  1.00  0.00     0.015 C 
HETATM   22  C3  UNL     1       5.222  45.787  51.251  1.00  0.00     0.036 C 
HETATM   23  C4  UNL     1       6.229  45.081  52.135  1.00  0.00     0.037 C 
HETATM   24  C5  UNL     1       6.376  45.811  53.429  1.00  0.00     0.131 C 
HETATM   25  O1  UNL     1       6.944  47.065  53.142  1.00  0.00    -0.378 OA
HETATM   26  C10 UNL     1       5.121  45.930  54.226  1.00  0.00    -0.007 C 
HETATM   27  C6  UNL     1       7.346  47.647  54.349  1.00  0.00     0.145 C 
HETATM   28  C8  UNL     1       6.087  48.015  55.096  1.00  0.00     0.035 C 
HETATM   29  C9  UNL     1       4.851  47.391  54.506  1.00  0.00     0.015 C 
HETATM   30  C11 UNL     1       5.193  45.212  55.559  1.00  0.00     0.019 C 
BRANCH  27  31
HETATM   31  C7  UNL     1       8.128  48.911  53.970  1.00  0.00     0.196 C 
BRANCH  31  32
HETATM   32  O2  UNL     1       8.474  49.639  55.113  1.00  0.00    -0.398 OA
ATOM     33  H2  UNL     1       9.173  50.253  54.921  1.00  0.00     0.209 HD
ENDBRANCH  31  32
ENDBRANCH  27  31
ENDBRANCH   1  19
TORSDOF 8
ENDMDL
MODEL 5
REMARK VINA RESULT: -8.020582160      3.446      6.188
REMARK  8 active torsions:
REMARK  status: ('A' for Active; 'I' for Inactive)
REMARK    1  A    between atoms: C6_7  and  C7_8 
REMARK    2  A    between atoms: C7_8  and  O2_9 
REMARK    3  A    between atoms: C12_15  and  C13_16 
REMARK    4  A    between atoms: C14_17  and  C15_18 
REMARK    5  A    between atoms: C15_18  and  C16_22 
REMARK    6  A    between atoms: C16_22  and  O3_23 
REMARK    7  A    between atoms: O3_23  and  C17_24 
REMARK       I    between atoms: C17_24  and  N2_26 
REMARK    8  A    between atoms: C20_29  and  O5_30 
ROOT
HETATM    1  C13 UNL     1       4.961  47.645  54.632  1.00  0.00    -0.015 C 
HETATM    2  C14 UNL     1       6.023  48.349  54.823  1.00  0.00     0.023 C 
ENDROOT
BRANCH   2   3
HETATM    3  C15 UNL     1       7.359  48.250  54.311  1.00  0.00     0.027 C 
HETATM    4  N1  UNL     1       8.207  47.485  54.983  1.00  0.00    -0.401 N 
ATOM      5  H12 UNL     1       7.821  47.037  55.814  1.00  0.00     0.156 HD
ATOM      6  H11 UNL     1       9.157  47.415  54.618  1.00  0.00     0.156 HD
BRANCH   3   7
HETATM    7  C16 UNL     1       7.915  48.897  53.110  1.00  0.00     0.237 C 
BRANCH   7   8
HETATM    8  O3  UNL     1       7.823  48.026  51.969  1.00  0.00    -0.298 OA
BRANCH   8   9
HETATM    9  C17 UNL     1       8.773  47.026  51.828  1.00  0.00     0.363 C 
HETATM   10  O4  UNL     1       9.945  47.266  52.198  1.00  0.00    -0.238 OA
HETATM   11  N2  UNL     1       8.410  45.757  51.270  1.00  0.00    -0.328 N 
HETATM   12  C18 UNL     1       9.428  44.734  51.136  1.00  0.00     0.130 C 
HETATM   13  C22 UNL     1       7.072  45.458  50.838  1.00  0.00     0.130 C 
HETATM   14  C19 UNL     1       9.463  44.250  49.690  1.00  0.00     0.051 C 
HETATM   15  C20 UNL     1       8.088  43.834  49.244  1.00  0.00     0.121 C 
HETATM   16  C21 UNL     1       7.130  44.983  49.396  1.00  0.00     0.051 C 
BRANCH  15  17
HETATM   17  O5  UNL     1       7.639  42.675  49.855  1.00  0.00    -0.395 OA
ATOM     18  H5  UNL     1       7.259  42.052  49.247  1.00  0.00     0.210 HD
ENDBRANCH  15  17
ENDBRANCH   8   9
ENDBRANCH   7   8
ENDBRANCH   3   7
ENDBRANCH   2   3
BRANCH   1  19
HETATM   19  C12 UNL     1       4.724  46.478  53.816  1.00  0.00     0.047 C 
HETATM   20  C2  UNL     1       5.144  45.201  54.524  1.00  0.00    -0.081 C 
HETATM   21  C1  UNL     1       5.486  45.170  55.794  1.00  0.00     0.015 C 
HETATM   22  C3  UNL     1       5.144  43.979  53.681  1.00  0.00     0.036 C 
HETATM   23  C4  UNL     1       4.412  44.323  52.401  1.00  0.00     0.037 C 
HETATM   24  C5  UNL     1       3.118  45.000  52.717  1.00  0.00     0.131 C 
HETATM   25  O1  UNL     1       2.302  44.062  53.374  1.00  0.00    -0.378 OA
HETATM   26  C10 UNL     1       3.248  46.271  53.486  1.00  0.00    -0.007 C 
HETATM   27  C6  UNL     1       1.003  44.578  53.428  1.00  0.00     0.145 C 
HETATM   28  C8  UNL     1       1.032  45.732  54.400  1.00  0.00     0.035 C 
HETATM   29  C9  UNL     1       2.429  46.168  54.753  1.00  0.00     0.015 C 
HETATM   30  C11 UNL     1       2.760  47.483  52.720  1.00  0.00     0.019 C 
BRANCH  27  31
HETATM   31  C7  UNL     1       0.121  43.447  53.972  1.00  0.00     0.196 C 
BRANCH  31  32
HETATM   32  O2  UNL     1       0.868  42.276  54.139  1.00  0.00    -0.398 OA
ATOM     33  H2  UNL     1       1.301  42.036  53.329  1.00  0.00     0.209 HD
ENDBRANCH  31  32
ENDBRANCH  27  31
ENDBRANCH   1  19
TORSDOF 8
ENDMDL
