MODEL 1
REMARK VINA RESULT: -7.235933357      0.000      0.000
REMARK  6 active torsions:
REMARK  status: ('A' for Active; 'I' for Inactive)
REMARK    1  A    between atoms: C2_2  and  C3_3 
REMARK    2  A    between atoms: C3_3  and  N1_4 
REMARK    3  A    between atoms: C6_12  and  N4_13 
REMARK    4  A    between atoms: N5_21  and  O3_23 
REMARK    5  A    between atoms: O3_23  and  C12_24 
REMARK    6  A    between atoms: C12_24  and  C13_25 
ROOT
HETATM    1  N1  UNL     1       7.951  46.365  53.095  1.00  0.00    -0.177 N 
HETATM    2  C4  UNL     1       8.988  46.334  52.195  1.00  0.00     0.679 A 
HETATM    3  N2  UNL     1      10.106  46.957  52.377  1.00  0.00    -0.234 N 
ATOM      4  H21 UNL     1      10.876  46.934  51.709  1.00  0.00     0.174 HD
ATOM      5  H22 UNL     1      10.348  47.516  53.195  1.00  0.00     0.174 HD
HETATM    6  N3  UNL     1       8.673  45.606  51.129  1.00  0.00    -0.187 N 
ATOM      7  H3  UNL     1       9.280  45.433  50.328  1.00  0.00     0.184 HD
HETATM    8  C5  UNL     1       7.448  45.142  51.276  1.00  0.00     0.110 A 
HETATM    9  C6  UNL     1       6.598  44.325  50.557  1.00  0.00     0.133 A 
HETATM   10  C7  UNL     1       5.325  43.970  50.988  1.00  0.00     0.049 A 
HETATM   11  C8  UNL     1       4.911  44.471  52.180  1.00  0.00    -0.014 A 
HETATM   12  C9  UNL     1       5.761  45.313  52.934  1.00  0.00     0.030 A 
HETATM   13  C10 UNL     1       7.001  45.647  52.532  1.00  0.00     0.094 A 
HETATM   14  C11 UNL     1       5.100  46.052  54.029  1.00  0.00     0.072 C 
HETATM   15  N5  UNL     1       5.056  47.294  53.979  1.00  0.00    -0.267 N 
ATOM     16  H5  UNL     1       4.576  47.650  54.806  1.00  0.00     0.194 HD
HETATM   17  C14 UNL     1       4.346  45.189  54.990  1.00  0.00     0.064 C 
HETATM   18  C15 UNL     1       3.311  45.998  55.754  1.00  0.00     0.044 C 
HETATM   19  C16 UNL     1       5.315  44.643  55.983  1.00  0.00     0.044 C 
HETATM   20  N6  UNL     1       3.751  44.070  54.286  1.00  0.00    -0.396 N 
ATOM     21  H6  UNL     1       3.442  43.230  54.776  1.00  0.00     0.155 HD
HETATM   22  C17 UNL     1       3.618  44.207  52.861  1.00  0.00     0.047 C 
HETATM   23  C18 UNL     1       3.153  42.834  52.358  1.00  0.00     0.043 C 
HETATM   24  C19 UNL     1       2.600  45.201  52.419  1.00  0.00     0.043 C 
ENDROOT
BRANCH  15  25
HETATM   25  O3  UNL     1       5.419  48.297  53.221  1.00  0.00    -0.273 OA
BRANCH  25  26
HETATM   26  C12 UNL     1       5.138  49.639  53.649  1.00  0.00     0.270 C 
BRANCH  26  27
HETATM   27  C13 UNL     1       4.752  49.607  55.085  1.00  0.00     0.259 C 
HETATM   28  O4  UNL     1       4.331  50.608  55.626  1.00  0.00    -0.304 OA
ENDBRANCH  26  27
ENDBRANCH  25  26
ENDBRANCH  15  25
BRANCH   1  29
HETATM   29  C3  UNL     1       8.161  46.949  54.381  1.00  0.00     0.174 C 
BRANCH  29  30
HETATM   30  C2  UNL     1       8.517  48.440  54.195  1.00  0.00    -0.016 C 
HETATM   31  C1  UNL     1       8.525  49.284  55.195  1.00  0.00     0.008 C 
ENDBRANCH  29  30
ENDBRANCH   1  29
BRANCH   9  32
HETATM   32  N4  UNL     1       7.077  43.818  49.293  1.00  0.00    -0.113 N 
HETATM   33  O1  UNL     1       6.391  43.011  48.652  1.00  0.00    -0.532 OA
HETATM   34  O2  UNL     1       8.288  44.191  48.767  1.00  0.00    -0.532 OA
ENDBRANCH   9  32
TORSDOF 6
ENDMDL
MODEL 2
REMARK VINA RESULT: -7.041013700      3.119      6.053
REMARK  6 active torsions:
REMARK  status: ('A' for Active; 'I' for Inactive)
REMARK    1  A    between atoms: C2_2  and  C3_3 
REMARK    2  A    between atoms: C3_3  and  N1_4 
REMARK    3  A    between atoms: C6_12  and  N4_13 
REMARK    4  A    between atoms: N5_21  and  O3_23 
REMARK    5  A    between atoms: O3_23  and  C12_24 
REMARK    6  A    between atoms: C12_24  and  C13_25 
ROOT
HETATM    1  N1  UNL     1       0.864  44.076  52.183  1.00  0.00    -0.177 N 
HETATM    2  C4  UNL     1       0.365  42.998  51.493  1.00  0.00     0.679 A 
HETATM    3  N2  UNL     1      -0.899  42.769  51.350  1.00  0.00    -0.234 N 
ATOM      4  H21 UNL     1      -1.269  41.968  50.838  1.00  0.00     0.174 HD
ATOM      5  H22 UNL     1      -1.653  43.353  51.710  1.00  0.00     0.174 HD
HETATM    6  N3  UNL     1       1.348  42.236  51.025  1.00  0.00    -0.187 N 
ATOM      7  H3  UNL     1       1.228  41.383  50.480  1.00  0.00     0.184 HD
HETATM    8  C5  UNL     1       2.502  42.763  51.380  1.00  0.00     0.110 A 
HETATM    9  C6  UNL     1       3.837  42.471  51.175  1.00  0.00     0.133 A 
HETATM   10  C7  UNL     1       4.879  43.251  51.663  1.00  0.00     0.049 A 
HETATM   11  C8  UNL     1       4.545  44.352  52.384  1.00  0.00    -0.014 A 
HETATM   12  C9  UNL     1       3.185  44.671  52.611  1.00  0.00     0.030 A 
HETATM   13  C10 UNL     1       2.172  43.930  52.127  1.00  0.00     0.094 A 
HETATM   14  C11 UNL     1       2.946  45.679  53.664  1.00  0.00     0.072 C 
HETATM   15  N5  UNL     1       2.325  45.347  54.689  1.00  0.00    -0.267 N 
ATOM     16  H5  UNL     1       2.238  46.152  55.309  1.00  0.00     0.194 HD
HETATM   17  C14 UNL     1       3.689  46.963  53.470  1.00  0.00     0.064 C 
HETATM   18  C15 UNL     1       3.809  47.728  54.777  1.00  0.00     0.044 C 
HETATM   19  C16 UNL     1       2.911  47.811  52.521  1.00  0.00     0.044 C 
HETATM   20  N6  UNL     1       4.983  46.699  52.873  1.00  0.00    -0.396 N 
ATOM     21  H6  UNL     1       5.520  47.431  52.407  1.00  0.00     0.155 HD
HETATM   22  C17 UNL     1       5.472  45.351  52.973  1.00  0.00     0.047 C 
HETATM   23  C18 UNL     1       6.738  45.307  52.108  1.00  0.00     0.043 C 
HETATM   24  C19 UNL     1       5.868  44.928  54.346  1.00  0.00     0.043 C 
ENDROOT
BRANCH  15  25
HETATM   25  O3  UNL     1       1.745  44.311  55.238  1.00  0.00    -0.273 OA
BRANCH  25  26
HETATM   26  C12 UNL     1       0.757  44.517  56.260  1.00  0.00     0.270 C 
BRANCH  26  27
HETATM   27  C13 UNL     1       0.823  45.936  56.702  1.00  0.00     0.259 C 
HETATM   28  O4  UNL     1       0.393  46.256  57.789  1.00  0.00    -0.304 OA
ENDBRANCH  26  27
ENDBRANCH  25  26
ENDBRANCH  15  25
BRANCH   1  29
HETATM   29  C3  UNL     1      -0.030  45.104  52.611  1.00  0.00     0.174 C 
BRANCH  29  30
HETATM   30  C2  UNL     1      -1.112  44.475  53.515  1.00  0.00    -0.016 C 
HETATM   31  C1  UNL     1      -2.110  45.172  53.994  1.00  0.00     0.008 C 
ENDBRANCH  29  30
ENDBRANCH   1  29
BRANCH   9  32
HETATM   32  N4  UNL     1       4.147  41.288  50.407  1.00  0.00    -0.113 N 
HETATM   33  O1  UNL     1       5.277  41.145  49.924  1.00  0.00    -0.532 OA
HETATM   34  O2  UNL     1       3.220  40.303  50.174  1.00  0.00    -0.532 OA
ENDBRANCH   9  32
TORSDOF 6
ENDMDL
MODEL 3
REMARK VINA RESULT: -6.521601715      2.308      5.336
REMARK  6 active torsions:
REMARK  status: ('A' for Active; 'I' for Inactive)
REMARK    1  A    between atoms: C2_2  and  C3_3 
REMARK    2  A    between atoms: C3_3  and  N1_4 
REMARK    3  A    between atoms: C6_12  and  N4_13 
REMARK    4  A    between atoms: N5_21  and  O3_23 
REMARK    5  A    between atoms: O3_23  and  C12_24 
REMARK    6  A    between atoms: C12_24  and  C13_25 
ROOT
HETATM    1  N1  UNL     1       7.020  45.270  51.027  1.00  0.00    -0.177 N 
HETATM    2  C4  UNL     1       8.389  45.200  50.933  1.00  0.00     0.679 A 
HETATM    3  N2  UNL     1       9.004  44.540  50.007  1.00  0.00    -0.234 N 
ATOM      4  H21 UNL     1      10.020  44.487  49.937  1.00  0.00     0.174 HD
ATOM      5  H22 UNL     1       8.558  44.019  49.252  1.00  0.00     0.174 HD
HETATM    6  N3  UNL     1       8.970  45.877  51.917  1.00  0.00    -0.187 N 
ATOM      7  H3  UNL     1       9.975  45.974  52.058  1.00  0.00     0.184 HD
HETATM    8  C5  UNL     1       8.036  46.404  52.682  1.00  0.00     0.110 A 
HETATM    9  C6  UNL     1       8.002  47.214  53.800  1.00  0.00     0.133 A 
HETATM   10  C7  UNL     1       6.826  47.652  54.398  1.00  0.00     0.049 A 
HETATM   11  C8  UNL     1       5.656  47.243  53.842  1.00  0.00    -0.014 A 
HETATM   12  C9  UNL     1       5.664  46.409  52.699  1.00  0.00     0.030 A 
HETATM   13  C10 UNL     1       6.799  45.996  52.105  1.00  0.00     0.094 A 
HETATM   14  C11 UNL     1       4.372  45.767  52.383  1.00  0.00     0.072 C 
HETATM   15  N5  UNL     1       4.283  44.528  52.436  1.00  0.00    -0.267 N 
ATOM     16  H5  UNL     1       3.336  44.244  52.186  1.00  0.00     0.194 HD
HETATM   17  C14 UNL     1       3.227  46.720  52.244  1.00  0.00     0.064 C 
HETATM   18  C15 UNL     1       1.898  46.006  52.426  1.00  0.00     0.044 C 
HETATM   19  C16 UNL     1       3.253  47.280  50.862  1.00  0.00     0.044 C 
HETATM   20  N6  UNL     1       3.385  47.821  53.174  1.00  0.00    -0.396 N 
ATOM     21  H6  UNL     1       2.884  48.701  53.054  1.00  0.00     0.155 HD
HETATM   22  C17 UNL     1       4.284  47.605  54.275  1.00  0.00     0.047 C 
HETATM   23  C18 UNL     1       4.411  48.965  54.974  1.00  0.00     0.043 C 
HETATM   24  C19 UNL     1       3.801  46.633  55.296  1.00  0.00     0.043 C 
ENDROOT
BRANCH  15  25
HETATM   25  O3  UNL     1       4.999  43.466  52.707  1.00  0.00    -0.273 OA
BRANCH  25  26
HETATM   26  C12 UNL     1       4.452  42.165  52.442  1.00  0.00     0.270 C 
BRANCH  26  27
HETATM   27  C13 UNL     1       3.439  42.287  51.361  1.00  0.00     0.259 C 
HETATM   28  O4  UNL     1       2.305  42.630  51.622  1.00  0.00    -0.304 OA
ENDBRANCH  26  27
ENDBRANCH  25  26
ENDBRANCH  15  25
BRANCH   1  29
HETATM   29  C3  UNL     1       6.220  44.755  49.963  1.00  0.00     0.174 C 
BRANCH  29  30
HETATM   30  C2  UNL     1       6.596  43.275  49.733  1.00  0.00    -0.016 C 
HETATM   31  C1  UNL     1       5.985  42.532  48.846  1.00  0.00     0.008 C 
ENDBRANCH  29  30
ENDBRANCH   1  29
BRANCH   9  32
HETATM   32  N4  UNL     1       9.268  47.622  54.363  1.00  0.00    -0.113 N 
HETATM   33  O1  UNL     1      10.315  47.425  53.732  1.00  0.00    -0.532 OA
HETATM   34  O2  UNL     1       9.363  48.219  55.595  1.00  0.00    -0.532 OA
ENDBRANCH   9  32
TORSDOF 6
ENDMDL
MODEL 4
REMARK VINA RESULT: -6.104975426      2.471      4.969
REMARK  6 active torsions:
REMARK  status: ('A' for Active; 'I' for Inactive)
REMARK    1  A    between atoms: C2_2  and  C3_3 
REMARK    2  A    between atoms: C3_3  and  N1_4 
REMARK    3  A    between atoms: C6_12  and  N4_13 
REMARK    4  A    between atoms: N5_21  and  O3_23 
REMARK    5  A    between atoms: O3_23  and  C12_24 
REMARK    6  A    between atoms: C12_24  and  C13_25 
ROOT
HETATM    1  N1  UNL     1       7.864  47.479  54.232  1.00  0.00    -0.177 N 
HETATM    2  C4  UNL     1       8.146  48.590  54.990  1.00  0.00     0.679 A 
HETATM    3  N2  UNL     1       9.305  48.816  55.514  1.00  0.00    -0.234 N 
ATOM      4  H21 UNL     1       9.515  49.640  56.077  1.00  0.00     0.174 HD
ATOM      5  H22 UNL     1      10.128  48.221  55.418  1.00  0.00     0.174 HD
HETATM    6  N3  UNL     1       7.074  49.365  55.116  1.00  0.00    -0.187 N 
ATOM      7  H3  UNL     1       7.036  50.245  55.630  1.00  0.00     0.184 HD
HETATM    8  C5  UNL     1       6.069  48.812  54.468  1.00  0.00     0.110 A 
HETATM    9  C6  UNL     1       4.752  49.136  54.206  1.00  0.00     0.133 A 
HETATM   10  C7  UNL     1       3.903  48.347  53.440  1.00  0.00     0.049 A 
HETATM   11  C8  UNL     1       4.413  47.193  52.937  1.00  0.00    -0.014 A 
HETATM   12  C9  UNL     1       5.758  46.835  53.195  1.00  0.00     0.030 A 
HETATM   13  C10 UNL     1       6.590  47.604  53.921  1.00  0.00     0.094 A 
HETATM   14  C11 UNL     1       6.103  45.433  52.887  1.00  0.00     0.072 C 
HETATM   15  N5  UNL     1       6.448  44.678  53.814  1.00  0.00    -0.267 N 
ATOM     16  H5  UNL     1       6.657  43.753  53.438  1.00  0.00     0.194 HD
HETATM   17  C14 UNL     1       5.779  45.009  51.490  1.00  0.00     0.064 C 
HETATM   18  C15 UNL     1       5.677  43.496  51.387  1.00  0.00     0.044 C 
HETATM   19  C16 UNL     1       6.893  45.447  50.601  1.00  0.00     0.044 C 
HETATM   20  N6  UNL     1       4.567  45.667  51.042  1.00  0.00    -0.396 N 
ATOM     21  H6  UNL     1       4.329  45.740  50.053  1.00  0.00     0.155 HD
HETATM   22  C17 UNL     1       3.718  46.211  52.068  1.00  0.00     0.047 C 
HETATM   23  C18 UNL     1       2.634  47.003  51.326  1.00  0.00     0.043 C 
HETATM   24  C19 UNL     1       3.019  45.196  52.906  1.00  0.00     0.043 C 
ENDROOT
BRANCH  15  25
HETATM   25  O3  UNL     1       6.631  44.673  55.109  1.00  0.00    -0.273 OA
BRANCH  25  26
HETATM   26  C12 UNL     1       5.518  44.403  55.975  1.00  0.00     0.270 C 
BRANCH  26  27
HETATM   27  C13 UNL     1       4.765  45.668  56.188  1.00  0.00     0.259 C 
HETATM   28  O4  UNL     1       3.578  45.719  55.946  1.00  0.00    -0.304 OA
ENDBRANCH  26  27
ENDBRANCH  25  26
ENDBRANCH  15  25
BRANCH   1  29
HETATM   29  C3  UNL     1       8.931  46.616  53.836  1.00  0.00     0.174 C 
BRANCH  29  30
HETATM   30  C2  UNL     1       9.459  47.079  52.461  1.00  0.00    -0.016 C 
HETATM   31  C1  UNL     1      10.130  46.283  51.669  1.00  0.00     0.008 C 
ENDBRANCH  29  30
ENDBRANCH   1  29
BRANCH   9  32
HETATM   32  N4  UNL     1       4.249  50.370  54.764  1.00  0.00    -0.113 N 
HETATM   33  O1  UNL     1       3.599  51.148  54.054  1.00  0.00    -0.532 OA
HETATM   34  O2  UNL     1       4.477  50.729  56.069  1.00  0.00    -0.532 OA
ENDBRANCH   9  32
TORSDOF 6
ENDMDL
MODEL 5
REMARK VINA RESULT: -6.083014318      3.118      5.958
REMARK  6 active torsions:
REMARK  status: ('A' for Active; 'I' for Inactive)
REMARK    1  A    between atoms: C2_2  and  C3_3 
REMARK    2  A    between atoms: C3_3  and  N1_4 
REMARK    3  A    between atoms: C6_12  and  N4_13 
REMARK    4  A    between atoms: N5_21  and  O3_23 
REMARK    5  A    between atoms: O3_23  and  C12_24 
REMARK    6  A    between atoms: C12_24  and  C13_25 
ROOT
HETATM    1  N1  UNL     1       3.722  42.508  51.529  1.00  0.00    -0.177 N 
HETATM    2  C4  UNL     1       2.788  41.851  50.766  1.00  0.00     0.679 A 
HETATM    3  N2  UNL     1       3.067  40.828  50.027  1.00  0.00    -0.234 N 
ATOM      4  H21 UNL     1       2.373  40.341  49.460  1.00  0.00     0.174 HD
ATOM      5  H22 UNL     1       3.984  40.392  49.937  1.00  0.00     0.174 HD
HETATM    6  N3  UNL     1       1.593  42.420  50.882  1.00  0.00    -0.187 N 
ATOM      7  H3  UNL     1       0.741  42.111  50.414  1.00  0.00     0.184 HD
HETATM    8  C5  UNL     1       1.687  43.448  51.700  1.00  0.00     0.110 A 
HETATM    9  C6  UNL     1       0.820  44.383  52.231  1.00  0.00     0.133 A 
HETATM   10  C7  UNL     1       1.209  45.372  53.127  1.00  0.00     0.049 A 
HETATM   11  C8  UNL     1       2.520  45.410  53.480  1.00  0.00    -0.014 A 
HETATM   12  C9  UNL     1       3.429  44.466  52.947  1.00  0.00     0.030 A 
HETATM   13  C10 UNL     1       3.056  43.495  52.094  1.00  0.00     0.094 A 
HETATM   14  C11 UNL     1       4.856  44.796  53.135  1.00  0.00     0.072 C 
HETATM   15  N5  UNL     1       5.563  45.012  52.135  1.00  0.00    -0.267 N 
ATOM     16  H5  UNL     1       6.517  45.218  52.432  1.00  0.00     0.194 HD
HETATM   17  C14 UNL     1       5.249  45.054  54.555  1.00  0.00     0.064 C 
HETATM   18  C15 UNL     1       6.538  45.855  54.628  1.00  0.00     0.044 C 
HETATM   19  C16 UNL     1       5.496  43.740  55.216  1.00  0.00     0.044 C 
HETATM   20  N6  UNL     1       4.162  45.708  55.257  1.00  0.00    -0.396 N 
ATOM     21  H6  UNL     1       4.109  45.719  56.275  1.00  0.00     0.155 HD
HETATM   22  C17 UNL     1       3.162  46.342  54.440  1.00  0.00     0.047 C 
HETATM   23  C18 UNL     1       2.053  46.773  55.409  1.00  0.00     0.043 C 
HETATM   24  C19 UNL     1       3.620  47.568  53.728  1.00  0.00     0.043 C 
ENDROOT
BRANCH  15  25
HETATM   25  O3  UNL     1       5.493  45.065  50.830  1.00  0.00    -0.273 OA
BRANCH  25  26
HETATM   26  C12 UNL     1       6.704  45.169  50.064  1.00  0.00     0.270 C 
BRANCH  26  27
HETATM   27  C13 UNL     1       7.817  45.525  50.984  1.00  0.00     0.259 C 
HETATM   28  O4  UNL     1       7.925  46.659  51.400  1.00  0.00    -0.304 OA
ENDBRANCH  26  27
ENDBRANCH  25  26
ENDBRANCH  15  25
BRANCH   1  29
HETATM   29  C3  UNL     1       5.025  41.943  51.676  1.00  0.00     0.174 C 
BRANCH  29  30
HETATM   30  C2  UNL     1       5.653  41.776  50.275  1.00  0.00    -0.016 C 
HETATM   31  C1  UNL     1       6.856  41.290  50.105  1.00  0.00     0.008 C 
ENDBRANCH  29  30
ENDBRANCH   1  29
BRANCH   9  32
HETATM   32  N4  UNL     1      -0.564  44.311  51.824  1.00  0.00    -0.113 N 
HETATM   33  O1  UNL     1      -1.350  45.210  52.150  1.00  0.00    -0.532 OA
HETATM   34  O2  UNL     1      -1.056  43.262  51.090  1.00  0.00    -0.532 OA
ENDBRANCH   9  32
TORSDOF 6
ENDMDL
