MODEL 1
REMARK VINA RESULT: -8.232400490      0.000      0.000
REMARK  11 active torsions:
REMARK  status: ('A' for Active; 'I' for Inactive)
REMARK    1  A    between atoms: O1_2  and  C2_3 
REMARK    2  A    between atoms: C2_3  and  C3_5 
REMARK    3  A    between atoms: C4_6  and  C5_7 
REMARK    4  A    between atoms: C7_10  and  O4_11 
REMARK    5  A    between atoms: C8_13  and  C9_14 
REMARK    6  A    between atoms: C9_14  and  C10_15 
REMARK    7  A    between atoms: C14_19  and  C15_20 
REMARK    8  A    between atoms: C15_20  and  O5_21 
REMARK    9  A    between atoms: C15_20  and  C16_23 
REMARK   10  A    between atoms: C16_23  and  O6_26 
REMARK   11  A    between atoms: C19_28  and  O7_29 
ROOT
HETATM    1  C5  UNL     1       7.110  48.870  54.667  1.00  0.00     0.227 C 
HETATM    2  O3  UNL     1       7.160  47.483  55.120  1.00  0.00    -0.330 OA
HETATM    3  C6  UNL     1       6.096  46.841  54.480  1.00  0.00     0.120 A 
HETATM    4  C7  UNL     1       5.881  45.541  54.087  1.00  0.00     0.107 A 
HETATM    5  C8  UNL     1       4.684  45.175  53.447  1.00  0.00    -0.003 A 
HETATM    6  C14 UNL     1       3.682  46.088  53.191  1.00  0.00     0.040 A 
HETATM    7  C19 UNL     1       3.929  47.415  53.601  1.00  0.00     0.096 A 
HETATM    8  C20 UNL     1       5.097  47.748  54.217  1.00  0.00     0.083 A 
HETATM    9  C21 UNL     1       5.616  49.032  54.748  1.00  0.00     0.198 C 
HETATM   10  O8  UNL     1       4.901  49.955  55.139  1.00  0.00    -0.289 OA
ENDROOT
BRANCH   6  11
HETATM   11  C15 UNL     1       2.456  45.892  52.497  1.00  0.00     0.090 C 
BRANCH  11  12
HETATM   12  O5  UNL     1       2.513  46.327  51.232  1.00  0.00    -0.361 OA
ATOM     13  H5  UNL     1       1.652  46.525  50.879  1.00  0.00     0.217 HD
ENDBRANCH  11  12
BRANCH  11  14
HETATM   14  C16 UNL     1       1.144  45.348  52.816  1.00  0.00     0.100 C 
HETATM   15  C17 UNL     1       1.226  44.338  53.965  1.00  0.00     0.053 C 
HETATM   16  C18 UNL     1       0.657  44.458  51.625  1.00  0.00     0.053 C 
BRANCH  14  17
HETATM   17  O6  UNL     1       0.104  46.222  53.004  1.00  0.00    -0.384 OA
ATOM     18  H6  UNL     1       0.112  46.777  53.775  1.00  0.00     0.211 HD
ENDBRANCH  14  17
ENDBRANCH  11  14
ENDBRANCH   6  11
BRANCH   5  19
HETATM   19  C9  UNL     1       4.635  43.793  52.960  1.00  0.00     0.070 C 
BRANCH  19  20
HETATM   20  C10 UNL     1       5.320  43.664  51.633  1.00  0.00    -0.020 C 
HETATM   21  C11 UNL     1       5.094  42.696  50.783  1.00  0.00    -0.091 C 
HETATM   22  C12 UNL     1       4.130  41.595  51.007  1.00  0.00     0.042 C 
HETATM   23  C13 UNL     1       5.850  42.669  49.483  1.00  0.00     0.042 C 
ENDBRANCH  19  20
ENDBRANCH   5  19
BRANCH   7  24
HETATM   24  O7  UNL     1       2.941  48.398  53.363  1.00  0.00    -0.359 OA
ATOM     25  H7  UNL     1       3.075  49.275  53.702  1.00  0.00     0.217 HD
ENDBRANCH   7  24
BRANCH   4  26
HETATM   26  O4  UNL     1       6.852  44.583  54.326  1.00  0.00    -0.357 OA
ATOM     27  H4  UNL     1       6.743  43.972  55.044  1.00  0.00     0.217 HD
ENDBRANCH   4  26
BRANCH   1  28
HETATM   28  C4  UNL     1       7.488  48.865  53.265  1.00  0.00     0.019 C 
HETATM   29  C3  UNL     1       8.490  48.238  52.735  1.00  0.00     0.081 C 
BRANCH  29  30
HETATM   30  C2  UNL     1       9.417  47.424  53.467  1.00  0.00     0.282 C 
HETATM   31  O2  UNL     1      10.112  47.846  54.390  1.00  0.00    -0.260 OA
BRANCH  30  32
HETATM   32  O1  UNL     1       9.546  46.080  53.128  1.00  0.00    -0.323 OA
HETATM   33  C1  UNL     1       9.785  45.691  51.786  1.00  0.00     0.213 C 
ENDBRANCH  30  32
ENDBRANCH  29  30
ENDBRANCH   1  28
TORSDOF 11
ENDMDL
MODEL 2
REMARK VINA RESULT: -8.054929949      2.406      5.103
REMARK  11 active torsions:
REMARK  status: ('A' for Active; 'I' for Inactive)
REMARK    1  A    between atoms: O1_2  and  C2_3 
REMARK    2  A    between atoms: C2_3  and  C3_5 
REMARK    3  A    between atoms: C4_6  and  C5_7 
REMARK    4  A    between atoms: C7_10  and  O4_11 
REMARK    5  A    between atoms: C8_13  and  C9_14 
REMARK    6  A    between atoms: C9_14  and  C10_15 
REMARK    7  A    between atoms: C14_19  and  C15_20 
REMARK    8  A    between atoms: C15_20  and  O5_21 
REMARK    9  A    between atoms: C15_20  and  C16_23 
REMARK   10  A    between atoms: C16_23  and  O6_26 
REMARK   11  A    between atoms: C19_28  and  O7_29 
ROOT
HETATM    1  C5  UNL     1       6.105  45.614  52.321  1.00  0.00     0.227 C 
HETATM    2  O3  UNL     1       5.049  46.573  52.011  1.00  0.00    -0.330 OA
HETATM    3  C6  UNL     1       3.848  45.901  52.256  1.00  0.00     0.120 A 
HETATM    4  C7  UNL     1       2.593  46.323  52.626  1.00  0.00     0.107 A 
HETATM    5  C8  UNL     1       1.550  45.396  52.805  1.00  0.00    -0.003 A 
HETATM    6  C14 UNL     1       1.733  44.043  52.616  1.00  0.00     0.040 A 
HETATM    7  C19 UNL     1       3.030  43.637  52.239  1.00  0.00     0.096 A 
HETATM    8  C20 UNL     1       4.026  44.550  52.074  1.00  0.00     0.083 A 
HETATM    9  C21 UNL     1       5.452  44.415  51.688  1.00  0.00     0.198 C 
HETATM   10  O8  UNL     1       5.896  43.494  51.003  1.00  0.00    -0.289 OA
ENDROOT
BRANCH   6  11
HETATM   11  C15 UNL     1       0.808  42.983  52.823  1.00  0.00     0.090 C 
BRANCH  11  12
HETATM   12  O5  UNL     1       1.030  42.330  53.971  1.00  0.00    -0.361 OA
ATOM     13  H5  UNL     1       1.565  41.554  53.847  1.00  0.00     0.217 HD
ENDBRANCH  11  12
BRANCH  11  14
HETATM   14  C16 UNL     1      -0.318  42.414  52.095  1.00  0.00     0.100 C 
HETATM   15  C17 UNL     1      -1.118  43.502  51.372  1.00  0.00     0.053 C 
HETATM   16  C18 UNL     1      -1.362  41.860  53.122  1.00  0.00     0.053 C 
BRANCH  14  17
HETATM   17  O6  UNL     1      -0.088  41.343  51.270  1.00  0.00    -0.384 OA
ATOM     18  H6  UNL     1      -0.727  41.147  50.594  1.00  0.00     0.211 HD
ENDBRANCH  14  17
ENDBRANCH  11  14
ENDBRANCH   6  11
BRANCH   5  19
HETATM   19  C9  UNL     1       0.301  45.958  53.328  1.00  0.00     0.070 C 
BRANCH  19  20
HETATM   20  C10 UNL     1       0.111  45.598  54.772  1.00  0.00    -0.020 C 
HETATM   21  C11 UNL     1      -1.032  45.227  55.289  1.00  0.00    -0.091 C 
HETATM   22  C12 UNL     1      -2.296  45.109  54.528  1.00  0.00     0.042 C 
HETATM   23  C13 UNL     1      -1.100  44.896  56.756  1.00  0.00     0.042 C 
ENDBRANCH  19  20
ENDBRANCH   5  19
BRANCH   7  24
HETATM   24  O7  UNL     1       3.282  42.260  52.034  1.00  0.00    -0.359 OA
ATOM     25  H7  UNL     1       3.887  41.813  52.613  1.00  0.00     0.217 HD
ENDBRANCH   7  24
BRANCH   4  26
HETATM   26  O4  UNL     1       2.353  47.672  52.823  1.00  0.00    -0.357 OA
ATOM     27  H4  UNL     1       1.621  47.946  53.362  1.00  0.00     0.217 HD
ENDBRANCH   4  26
BRANCH   1  28
HETATM   28  C4  UNL     1       6.088  45.429  53.762  1.00  0.00     0.019 C 
HETATM   29  C3  UNL     1       6.676  46.171  54.646  1.00  0.00     0.081 C 
BRANCH  29  30
HETATM   30  C2  UNL     1       7.463  47.330  54.337  1.00  0.00     0.282 C 
HETATM   31  O2  UNL     1       8.692  47.326  54.294  1.00  0.00    -0.260 OA
BRANCH  30  32
HETATM   32  O1  UNL     1       6.814  48.532  54.069  1.00  0.00    -0.323 OA
HETATM   33  C1  UNL     1       5.705  48.948  54.848  1.00  0.00     0.213 C 
ENDBRANCH  30  32
ENDBRANCH  29  30
ENDBRANCH   1  28
TORSDOF 11
ENDMDL
MODEL 3
REMARK VINA RESULT: -8.029283998      3.368      6.082
REMARK  11 active torsions:
REMARK  status: ('A' for Active; 'I' for Inactive)
REMARK    1  A    between atoms: O1_2  and  C2_3 
REMARK    2  A    between atoms: C2_3  and  C3_5 
REMARK    3  A    between atoms: C4_6  and  C5_7 
REMARK    4  A    between atoms: C7_10  and  O4_11 
REMARK    5  A    between atoms: C8_13  and  C9_14 
REMARK    6  A    between atoms: C9_14  and  C10_15 
REMARK    7  A    between atoms: C14_19  and  C15_20 
REMARK    8  A    between atoms: C15_20  and  O5_21 
REMARK    9  A    between atoms: C15_20  and  C16_23 
REMARK   10  A    between atoms: C16_23  and  O6_26 
REMARK   11  A    between atoms: C19_28  and  O7_29 
ROOT
HETATM    1  C5  UNL     1       4.951  45.137  52.453  1.00  0.00     0.227 C 
HETATM    2  O3  UNL     1       6.035  44.339  51.888  1.00  0.00    -0.330 OA
HETATM    3  C6  UNL     1       5.412  43.362  51.107  1.00  0.00     0.120 A 
HETATM    4  C7  UNL     1       5.803  42.659  49.991  1.00  0.00     0.107 A 
HETATM    5  C8  UNL     1       4.944  41.713  49.404  1.00  0.00    -0.003 A 
HETATM    6  C14 UNL     1       3.692  41.445  49.914  1.00  0.00     0.040 A 
HETATM    7  C19 UNL     1       3.314  42.181  51.056  1.00  0.00     0.096 A 
HETATM    8  C20 UNL     1       4.160  43.094  51.608  1.00  0.00     0.083 A 
HETATM    9  C21 UNL     1       4.035  43.990  52.784  1.00  0.00     0.198 C 
HETATM   10  O8  UNL     1       3.318  43.755  53.755  1.00  0.00    -0.289 OA
ENDROOT
BRANCH   6  11
HETATM   11  C15 UNL     1       2.688  40.578  49.400  1.00  0.00     0.090 C 
BRANCH  11  12
HETATM   12  O5  UNL     1       2.637  39.413  50.058  1.00  0.00    -0.361 OA
ATOM     13  H5  UNL     1       2.305  38.706  49.516  1.00  0.00     0.217 HD
ENDBRANCH  11  12
BRANCH  11  14
HETATM   14  C16 UNL     1       1.707  40.628  48.326  1.00  0.00     0.100 C 
HETATM   15  C17 UNL     1       1.587  42.042  47.748  1.00  0.00     0.053 C 
HETATM   16  C18 UNL     1       0.281  40.392  48.927  1.00  0.00     0.053 C 
BRANCH  14  17
HETATM   17  O6  UNL     1       1.786  39.693  47.325  1.00  0.00    -0.384 OA
ATOM     18  H6  UNL     1       2.585  39.645  46.813  1.00  0.00     0.211 HD
ENDBRANCH  14  17
ENDBRANCH  11  14
ENDBRANCH   6  11
BRANCH   5  19
HETATM   19  C9  UNL     1       5.424  41.132  48.146  1.00  0.00     0.070 C 
BRANCH  19  20
HETATM   20  C10 UNL     1       5.183  42.064  46.996  1.00  0.00    -0.020 C 
HETATM   21  C11 UNL     1       4.789  41.675  45.810  1.00  0.00    -0.091 C 
HETATM   22  C12 UNL     1       4.524  40.269  45.436  1.00  0.00     0.042 C 
HETATM   23  C13 UNL     1       4.586  42.705  44.732  1.00  0.00     0.042 C 
ENDBRANCH  19  20
ENDBRANCH   5  19
BRANCH   7  24
HETATM   24  O7  UNL     1       2.039  41.954  51.624  1.00  0.00    -0.359 OA
ATOM     25  H7  UNL     1       1.858  42.289  52.494  1.00  0.00     0.217 HD
ENDBRANCH   7  24
BRANCH   4  26
HETATM   26  O4  UNL     1       7.054  42.885  49.442  1.00  0.00    -0.357 OA
ATOM     27  H4  UNL     1       7.289  43.757  49.150  1.00  0.00     0.217 HD
ENDBRANCH   4  26
BRANCH   1  28
HETATM   28  C4  UNL     1       4.364  45.881  51.352  1.00  0.00     0.019 C 
HETATM   29  C3  UNL     1       3.390  46.732  51.424  1.00  0.00     0.081 C 
BRANCH  29  30
HETATM   30  C2  UNL     1       2.712  47.088  52.637  1.00  0.00     0.282 C 
HETATM   31  O2  UNL     1       3.179  47.854  53.478  1.00  0.00    -0.260 OA
BRANCH  30  32
HETATM   32  O1  UNL     1       1.455  46.544  52.890  1.00  0.00    -0.323 OA
HETATM   33  C1  UNL     1       1.096  46.121  54.195  1.00  0.00     0.213 C 
ENDBRANCH  30  32
ENDBRANCH  29  30
ENDBRANCH   1  28
TORSDOF 11
ENDMDL
MODEL 4
REMARK VINA RESULT: -7.959121097      2.238      7.338
REMARK  11 active torsions:
REMARK  status: ('A' for Active; 'I' for Inactive)
REMARK    1  A    between atoms: O1_2  and  C2_3 
REMARK    2  A    between atoms: C2_3  and  C3_5 
REMARK    3  A    between atoms: C4_6  and  C5_7 
REMARK    4  A    between atoms: C7_10  and  O4_11 
REMARK    5  A    between atoms: C8_13  and  C9_14 
REMARK    6  A    between atoms: C9_14  and  C10_15 
REMARK    7  A    between atoms: C14_19  and  C15_20 
REMARK    8  A    between atoms: C15_20  and  O5_21 
REMARK    9  A    between atoms: C15_20  and  C16_23 
REMARK   10  A    between atoms: C16_23  and  O6_26 
REMARK   11  A    between atoms: C19_28  and  O7_29 
ROOT
HETATM    1  C5  UNL     1       2.708  42.581  51.745  1.00  0.00     0.227 C 
HETATM    2  O3  UNL     1       3.160  42.633  53.132  1.00  0.00    -0.330 OA
HETATM    3  C6  UNL     1       4.168  43.601  53.161  1.00  0.00     0.120 A 
HETATM    4  C7  UNL     1       4.633  44.445  54.143  1.00  0.00     0.107 A 
HETATM    5  C8  UNL     1       5.688  45.337  53.879  1.00  0.00    -0.003 A 
HETATM    6  C14 UNL     1       6.298  45.403  52.644  1.00  0.00     0.040 A 
HETATM    7  C19 UNL     1       5.800  44.530  51.655  1.00  0.00     0.096 A 
HETATM    8  C20 UNL     1       4.777  43.675  51.931  1.00  0.00     0.083 A 
HETATM    9  C21 UNL     1       4.068  42.665  51.108  1.00  0.00     0.198 C 
HETATM   10  O8  UNL     1       4.571  42.087  50.144  1.00  0.00    -0.289 OA
ENDROOT
BRANCH   6  11
HETATM   11  C15 UNL     1       7.318  46.291  52.203  1.00  0.00     0.090 C 
BRANCH  11  12
HETATM   12  O5  UNL     1       6.822  47.442  51.731  1.00  0.00    -0.361 OA
ATOM     13  H5  UNL     1       7.442  48.159  51.802  1.00  0.00     0.217 HD
ENDBRANCH  11  12
BRANCH  11  14
HETATM   14  C16 UNL     1       8.772  46.263  52.122  1.00  0.00     0.100 C 
HETATM   15  C17 UNL     1       9.404  46.167  53.515  1.00  0.00     0.053 C 
HETATM   16  C18 UNL     1       9.281  47.656  51.621  1.00  0.00     0.053 C 
BRANCH  14  17
HETATM   17  O6  UNL     1       9.360  45.380  51.254  1.00  0.00    -0.384 OA
ATOM     18  H6  UNL     1      10.041  44.806  51.585  1.00  0.00     0.211 HD
ENDBRANCH  14  17
ENDBRANCH  11  14
ENDBRANCH   6  11
BRANCH   5  19
HETATM   19  C9  UNL     1       5.998  46.272  54.964  1.00  0.00     0.070 C 
BRANCH  19  20
HETATM   20  C10 UNL     1       5.153  47.507  54.870  1.00  0.00    -0.020 C 
HETATM   21  C11 UNL     1       5.637  48.722  54.814  1.00  0.00    -0.091 C 
HETATM   22  C12 UNL     1       7.080  49.050  54.834  1.00  0.00     0.042 C 
HETATM   23  C13 UNL     1       4.686  49.886  54.728  1.00  0.00     0.042 C 
ENDBRANCH  19  20
ENDBRANCH   5  19
BRANCH   7  24
HETATM   24  O7  UNL     1       6.383  44.554  50.367  1.00  0.00    -0.359 OA
ATOM     25  H7  UNL     1       5.973  44.058  49.669  1.00  0.00     0.217 HD
ENDBRANCH   7  24
BRANCH   4  26
HETATM   26  O4  UNL     1       4.059  44.414  55.402  1.00  0.00    -0.357 OA
ATOM     27  H4  UNL     1       4.136  45.169  55.973  1.00  0.00     0.217 HD
ENDBRANCH   4  26
BRANCH   1  28
HETATM   28  C4  UNL     1       2.011  43.829  51.487  1.00  0.00     0.019 C 
HETATM   29  C3  UNL     1       0.793  44.119  51.820  1.00  0.00     0.081 C 
BRANCH  29  30
HETATM   30  C2  UNL     1      -0.092  43.230  52.516  1.00  0.00     0.282 C 
HETATM   31  O2  UNL     1      -0.890  42.485  51.952  1.00  0.00    -0.260 OA
BRANCH  30  32
HETATM   32  O1  UNL     1      -0.055  43.197  53.907  1.00  0.00    -0.323 OA
HETATM   33  C1  UNL     1       0.391  44.321  54.648  1.00  0.00     0.213 C 
ENDBRANCH  30  32
ENDBRANCH  29  30
ENDBRANCH   1  28
TORSDOF 11
ENDMDL
MODEL 5
REMARK VINA RESULT: -7.674367229      3.512      5.923
REMARK  11 active torsions:
REMARK  status: ('A' for Active; 'I' for Inactive)
REMARK    1  A    between atoms: O1_2  and  C2_3 
REMARK    2  A    between atoms: C2_3  and  C3_5 
REMARK    3  A    between atoms: C4_6  and  C5_7 
REMARK    4  A    between atoms: C7_10  and  O4_11 
REMARK    5  A    between atoms: C8_13  and  C9_14 
REMARK    6  A    between atoms: C9_14  and  C10_15 
REMARK    7  A    between atoms: C14_19  and  C15_20 
REMARK    8  A    between atoms: C15_20  and  O5_21 
REMARK    9  A    between atoms: C15_20  and  C16_23 
REMARK   10  A    between atoms: C16_23  and  O6_26 
REMARK   11  A    between atoms: C19_28  and  O7_29 
ROOT
HETATM    1  C5  UNL     1       3.645  44.250  53.119  1.00  0.00     0.227 C 
HETATM    2  O3  UNL     1       4.185  42.918  52.861  1.00  0.00    -0.330 OA
HETATM    3  C6  UNL     1       3.502  42.449  51.736  1.00  0.00     0.120 A 
HETATM    4  C7  UNL     1       3.833  41.563  50.737  1.00  0.00     0.107 A 
HETATM    5  C8  UNL     1       2.922  41.275  49.705  1.00  0.00    -0.003 A 
HETATM    6  C14 UNL     1       1.672  41.856  49.649  1.00  0.00     0.040 A 
HETATM    7  C19 UNL     1       1.360  42.762  50.683  1.00  0.00     0.096 A 
HETATM    8  C20 UNL     1       2.257  43.028  51.672  1.00  0.00     0.083 A 
HETATM    9  C21 UNL     1       2.201  43.913  52.861  1.00  0.00     0.198 C 
HETATM   10  O8  UNL     1       1.159  44.236  53.430  1.00  0.00    -0.289 OA
ENDROOT
BRANCH   6  11
HETATM   11  C15 UNL     1       0.675  41.724  48.644  1.00  0.00     0.090 C 
BRANCH  11  12
HETATM   12  O5  UNL     1       0.855  42.583  47.632  1.00  0.00    -0.361 OA
ATOM     13  H5  UNL     1       1.157  42.150  46.841  1.00  0.00     0.217 HD
ENDBRANCH  11  12
BRANCH  11  14
HETATM   14  C16 UNL     1      -0.506  40.898  48.438  1.00  0.00     0.100 C 
HETATM   15  C17 UNL     1      -0.675  39.878  49.569  1.00  0.00     0.053 C 
HETATM   16  C18 UNL     1      -0.275  39.978  47.193  1.00  0.00     0.053 C 
BRANCH  14  17
HETATM   17  O6  UNL     1      -1.696  41.519  48.156  1.00  0.00    -0.384 OA
ATOM     18  H6  UNL     1      -1.993  41.539  47.254  1.00  0.00     0.211 HD
ENDBRANCH  14  17
ENDBRANCH  11  14
ENDBRANCH   6  11
BRANCH   5  19
HETATM   19  C9  UNL     1       3.444  40.422  48.633  1.00  0.00     0.070 C 
BRANCH  19  20
HETATM   20  C10 UNL     1       4.148  41.236  47.589  1.00  0.00    -0.020 C 
HETATM   21  C11 UNL     1       3.933  41.122  46.304  1.00  0.00    -0.091 C 
HETATM   22  C12 UNL     1       2.967  40.177  45.698  1.00  0.00     0.042 C 
HETATM   23  C13 UNL     1       4.706  41.992  45.351  1.00  0.00     0.042 C 
ENDBRANCH  19  20
ENDBRANCH   5  19
BRANCH   7  24
HETATM   24  O7  UNL     1       0.094  43.392  50.679  1.00  0.00    -0.359 OA
ATOM     25  H7  UNL     1      -0.678  42.871  50.863  1.00  0.00     0.217 HD
ENDBRANCH   7  24
BRANCH   4  26
HETATM   26  O4  UNL     1       5.073  40.948  50.749  1.00  0.00    -0.357 OA
ATOM     27  H4  UNL     1       5.251  40.236  50.146  1.00  0.00     0.217 HD
ENDBRANCH   4  26
BRANCH   1  28
HETATM   28  C4  UNL     1       4.109  45.104  52.039  1.00  0.00     0.019 C 
HETATM   29  C3  UNL     1       4.121  46.399  52.024  1.00  0.00     0.081 C 
BRANCH  29  30
HETATM   30  C2  UNL     1       3.662  47.226  53.103  1.00  0.00     0.282 C 
HETATM   31  O2  UNL     1       2.568  47.786  53.114  1.00  0.00    -0.260 OA
BRANCH  30  32
HETATM   32  O1  UNL     1       4.491  47.413  54.206  1.00  0.00    -0.323 OA
HETATM   33  C1  UNL     1       4.814  48.717  54.659  1.00  0.00     0.213 C 
ENDBRANCH  30  32
ENDBRANCH  29  30
ENDBRANCH   1  28
TORSDOF 11
ENDMDL
