MODEL 1
REMARK VINA RESULT: -10.370703150      0.000      0.000
REMARK  16 active torsions:
REMARK  status: ('A' for Active; 'I' for Inactive)
REMARK    1  A    between atoms: C2_2  and  C3_3 
REMARK    2  A    between atoms: C3_3  and  C4_4 
REMARK    3  A    between atoms: C3_3  and  C15_15 
REMARK    4  A    between atoms: C4_4  and  C5_5 
REMARK    5  A    between atoms: C15_15  and  N2_19 
REMARK    6  A    between atoms: N2_19  and  C16_21 
REMARK    7  A    between atoms: C16_21  and  C19_29 
REMARK    8  A    between atoms: C17_22  and  C18_23 
REMARK    9  A    between atoms: C18_23  and  N3_24 
REMARK   10  A    between atoms: N3_24  and  N4_26 
REMARK       I    between atoms: C19_29  and  N5_31 
REMARK   11  A    between atoms: N5_31  and  C20_32 
REMARK   12  A    between atoms: C20_32  and  C21_33 
REMARK   13  A    between atoms: C21_33  and  C22_34 
REMARK   14  A    between atoms: C22_34  and  N6_35 
REMARK   15  A    between atoms: N6_35  and  C24_37 
REMARK   16  A    between atoms: N6_35  and  C26_39 
ROOT
HETATM    1  N2  UNL     1       0.562  66.083  68.419  1.00  0.00    -0.341 N 
ATOM      2  H2  UNL     1      -0.135  65.543  68.932  1.00  0.00     0.167 HD
ENDROOT
BRANCH   1   3
HETATM    3  C15 UNL     1       1.833  66.299  69.016  1.00  0.00     0.079 C 
HETATM    4  N1  UNL     1       2.087  67.510  69.323  1.00  0.00    -0.389 N 
ATOM      5  H12 UNL     1       2.999  67.665  69.752  1.00  0.00     0.157 HD
ATOM      6  H11 UNL     1       1.383  68.225  69.137  1.00  0.00     0.157 HD
BRANCH   3   7
HETATM    7  C3  UNL     1       2.858  65.258  69.288  1.00  0.00     0.053 C 
BRANCH   7   8
HETATM    8  C2  UNL     1       3.536  64.855  68.028  1.00  0.00     0.008 C 
HETATM    9  C1  UNL     1       4.900  65.498  67.793  1.00  0.00     0.006 C 
ENDBRANCH   7   8
BRANCH   7  10
HETATM   10  C4  UNL     1       2.268  64.231  70.137  1.00  0.00     0.021 C 
BRANCH  10  11
HETATM   11  C5  UNL     1       2.845  62.912  70.431  1.00  0.00    -0.039 C 
HETATM   12  C6  UNL     1       2.272  62.556  71.850  1.00  0.00     0.014 C 
HETATM   13  C7  UNL     1       2.709  61.228  72.321  1.00  0.00    -0.013 C 
HETATM   14  C8  UNL     1       2.159  60.174  71.368  1.00  0.00     0.009 C 
HETATM   15  C12 UNL     1       4.191  61.094  72.356  1.00  0.00     0.009 C 
HETATM   16  C9  UNL     1       2.759  60.421  70.037  1.00  0.00    -0.013 C 
HETATM   17  C10 UNL     1       4.277  60.447  70.023  1.00  0.00     0.009 C 
HETATM   18  C14 UNL     1       2.339  61.818  69.550  1.00  0.00     0.014 C 
HETATM   19  C11 UNL     1       4.741  61.483  71.006  1.00  0.00    -0.013 C 
HETATM   20  C13 UNL     1       4.332  62.892  70.625  1.00  0.00     0.014 C 
ENDBRANCH  10  11
ENDBRANCH   7  10
ENDBRANCH   3   7
ENDBRANCH   1   3
BRANCH   1  21
HETATM   21  C16 UNL     1       0.227  66.583  67.149  1.00  0.00     0.118 C 
HETATM   22  C17 UNL     1      -0.899  67.126  66.852  1.00  0.00     0.055 C 
BRANCH  22  23
HETATM   23  C18 UNL     1      -2.078  67.389  67.635  1.00  0.00     0.109 C 
BRANCH  23  24
HETATM   24  N3  UNL     1      -3.280  67.735  67.003  1.00  0.00    -0.318 N 
ATOM     25  H3  UNL     1      -4.171  67.444  67.406  1.00  0.00     0.185 HD
BRANCH  24  26
HETATM   26  N4  UNL     1      -3.259  68.408  65.931  1.00  0.00    -0.345 N 
ATOM     27  H42 UNL     1      -2.922  69.370  65.956  1.00  0.00     0.176 HD
ATOM     28  H41 UNL     1      -3.577  67.985  65.059  1.00  0.00     0.176 HD
ENDBRANCH  24  26
ENDBRANCH  23  24
ENDBRANCH  22  23
BRANCH  21  29
HETATM   29  C19 UNL     1       1.315  66.546  66.069  1.00  0.00     0.342 C 
HETATM   30  O1  UNL     1       1.143  65.582  65.260  1.00  0.00    -0.249 OA
HETATM   31  N5  UNL     1       2.299  67.444  66.050  1.00  0.00    -0.382 NA
BRANCH  31  32
HETATM   32  C20 UNL     1       3.337  68.375  66.015  1.00  0.00     0.161 C 
BRANCH  32  33
HETATM   33  C21 UNL     1       4.069  68.587  64.726  1.00  0.00     0.087 C 
BRANCH  33  34
HETATM   34  C22 UNL     1       3.360  68.087  63.502  1.00  0.00     0.243 C 
BRANCH  34  35
HETATM   35  N6  UNL     1       4.215  67.831  62.379  1.00  0.00    -0.071 N 
HETATM   36  C23 UNL     1       5.326  68.791  62.489  1.00  0.00     0.272 C 
BRANCH  35  37
HETATM   37  C24 UNL     1       4.774  66.525  62.298  1.00  0.00     0.232 C 
HETATM   38  C25 UNL     1       4.245  65.543  63.294  1.00  0.00     0.035 C 
ENDBRANCH  35  37
BRANCH  35  39
HETATM   39  C26 UNL     1       3.579  68.136  61.111  1.00  0.00     0.232 C 
HETATM   40  C27 UNL     1       2.101  68.372  61.265  1.00  0.00     0.035 C 
ENDBRANCH  35  39
ENDBRANCH  34  35
ENDBRANCH  33  34
ENDBRANCH  32  33
ENDBRANCH  31  32
ENDBRANCH  21  29
ENDBRANCH   1  21
TORSDOF 16
ENDMDL
MODEL 2
REMARK VINA RESULT: -10.357246336      1.114      1.735
REMARK  16 active torsions:
REMARK  status: ('A' for Active; 'I' for Inactive)
REMARK    1  A    between atoms: C2_2  and  C3_3 
REMARK    2  A    between atoms: C3_3  and  C4_4 
REMARK    3  A    between atoms: C3_3  and  C15_15 
REMARK    4  A    between atoms: C4_4  and  C5_5 
REMARK    5  A    between atoms: C15_15  and  N2_19 
REMARK    6  A    between atoms: N2_19  and  C16_21 
REMARK    7  A    between atoms: C16_21  and  C19_29 
REMARK    8  A    between atoms: C17_22  and  C18_23 
REMARK    9  A    between atoms: C18_23  and  N3_24 
REMARK   10  A    between atoms: N3_24  and  N4_26 
REMARK       I    between atoms: C19_29  and  N5_31 
REMARK   11  A    between atoms: N5_31  and  C20_32 
REMARK   12  A    between atoms: C20_32  and  C21_33 
REMARK   13  A    between atoms: C21_33  and  C22_34 
REMARK   14  A    between atoms: C22_34  and  N6_35 
REMARK   15  A    between atoms: N6_35  and  C24_37 
REMARK   16  A    between atoms: N6_35  and  C26_39 
ROOT
HETATM    1  N2  UNL     1       0.865  66.042  68.202  1.00  0.00    -0.341 N 
ATOM      2  H2  UNL     1       0.765  65.230  67.594  1.00  0.00     0.167 HD
ENDROOT
BRANCH   1   3
HETATM    3  C15 UNL     1       1.343  65.848  69.526  1.00  0.00     0.079 C 
HETATM    4  N1  UNL     1       0.605  66.336  70.444  1.00  0.00    -0.389 N 
ATOM      5  H12 UNL     1       0.947  66.196  71.395  1.00  0.00     0.157 HD
ATOM      6  H11 UNL     1      -0.259  66.811  70.182  1.00  0.00     0.157 HD
BRANCH   3   7
HETATM    7  C3  UNL     1       2.601  65.155  69.908  1.00  0.00     0.053 C 
BRANCH   7   8
HETATM    8  C2  UNL     1       3.782  65.942  69.467  1.00  0.00     0.008 C 
HETATM    9  C1  UNL     1       4.677  65.246  68.444  1.00  0.00     0.006 C 
ENDBRANCH   7   8
BRANCH   7  10
HETATM   10  C4  UNL     1       2.498  63.753  69.522  1.00  0.00     0.021 C 
BRANCH  10  11
HETATM   11  C5  UNL     1       2.899  62.598  70.336  1.00  0.00    -0.039 C 
HETATM   12  C6  UNL     1       2.630  61.364  69.402  1.00  0.00     0.014 C 
HETATM   13  C7  UNL     1       3.011  60.084  70.028  1.00  0.00    -0.013 C 
HETATM   14  C8  UNL     1       4.512  60.099  70.283  1.00  0.00     0.009 C 
HETATM   15  C12 UNL     1       2.322  59.859  71.329  1.00  0.00     0.009 C 
HETATM   16  C9  UNL     1       4.790  61.193  71.242  1.00  0.00    -0.013 C 
HETATM   17  C10 UNL     1       4.006  61.110  72.539  1.00  0.00     0.009 C 
HETATM   18  C14 UNL     1       4.365  62.531  70.613  1.00  0.00     0.014 C 
HETATM   19  C11 UNL     1       2.543  61.066  72.206  1.00  0.00    -0.013 C 
HETATM   20  C13 UNL     1       2.045  62.334  71.540  1.00  0.00     0.014 C 
ENDBRANCH  10  11
ENDBRANCH   7  10
ENDBRANCH   3   7
ENDBRANCH   1   3
BRANCH   1  21
HETATM   21  C16 UNL     1       0.526  67.308  67.698  1.00  0.00     0.118 C 
HETATM   22  C17 UNL     1      -0.668  67.680  67.399  1.00  0.00     0.055 C 
BRANCH  22  23
HETATM   23  C18 UNL     1      -1.935  67.002  67.475  1.00  0.00     0.109 C 
BRANCH  23  24
HETATM   24  N3  UNL     1      -3.099  67.631  67.014  1.00  0.00    -0.318 N 
ATOM     25  H3  UNL     1      -3.987  67.476  67.492  1.00  0.00     0.185 HD
BRANCH  24  26
HETATM   26  N4  UNL     1      -3.048  68.392  66.004  1.00  0.00    -0.345 N 
ATOM     27  H42 UNL     1      -2.642  68.039  65.137  1.00  0.00     0.176 HD
ATOM     28  H41 UNL     1      -3.409  69.344  66.065  1.00  0.00     0.176 HD
ENDBRANCH  24  26
ENDBRANCH  23  24
ENDBRANCH  22  23
BRANCH  21  29
HETATM   29  C19 UNL     1       1.652  68.342  67.573  1.00  0.00     0.342 C 
HETATM   30  O1  UNL     1       1.405  69.391  68.243  1.00  0.00    -0.249 OA
HETATM   31  N5  UNL     1       2.728  68.102  66.824  1.00  0.00    -0.382 NA
BRANCH  31  32
HETATM   32  C20 UNL     1       3.860  67.869  66.044  1.00  0.00     0.161 C 
BRANCH  32  33
HETATM   33  C21 UNL     1       3.984  68.573  64.728  1.00  0.00     0.087 C 
BRANCH  33  34
HETATM   34  C22 UNL     1       3.280  67.908  63.581  1.00  0.00     0.243 C 
BRANCH  34  35
HETATM   35  N6  UNL     1       4.080  67.750  62.401  1.00  0.00    -0.071 N 
HETATM   36  C23 UNL     1       5.149  68.758  62.499  1.00  0.00     0.272 C 
BRANCH  35  37
HETATM   37  C24 UNL     1       4.694  66.479  62.220  1.00  0.00     0.232 C 
HETATM   38  C25 UNL     1       4.305  65.436  63.219  1.00  0.00     0.035 C 
ENDBRANCH  35  37
BRANCH  35  39
HETATM   39  C26 UNL     1       3.358  68.085  61.188  1.00  0.00     0.232 C 
HETATM   40  C27 UNL     1       1.906  68.378  61.459  1.00  0.00     0.035 C 
ENDBRANCH  35  39
ENDBRANCH  34  35
ENDBRANCH  33  34
ENDBRANCH  32  33
ENDBRANCH  31  32
ENDBRANCH  21  29
ENDBRANCH   1  21
TORSDOF 16
ENDMDL
MODEL 3
REMARK VINA RESULT: -10.135392048      1.114      2.267
REMARK  16 active torsions:
REMARK  status: ('A' for Active; 'I' for Inactive)
REMARK    1  A    between atoms: C2_2  and  C3_3 
REMARK    2  A    between atoms: C3_3  and  C4_4 
REMARK    3  A    between atoms: C3_3  and  C15_15 
REMARK    4  A    between atoms: C4_4  and  C5_5 
REMARK    5  A    between atoms: C15_15  and  N2_19 
REMARK    6  A    between atoms: N2_19  and  C16_21 
REMARK    7  A    between atoms: C16_21  and  C19_29 
REMARK    8  A    between atoms: C17_22  and  C18_23 
REMARK    9  A    between atoms: C18_23  and  N3_24 
REMARK   10  A    between atoms: N3_24  and  N4_26 
REMARK       I    between atoms: C19_29  and  N5_31 
REMARK   11  A    between atoms: N5_31  and  C20_32 
REMARK   12  A    between atoms: C20_32  and  C21_33 
REMARK   13  A    between atoms: C21_33  and  C22_34 
REMARK   14  A    between atoms: C22_34  and  N6_35 
REMARK   15  A    between atoms: N6_35  and  C24_37 
REMARK   16  A    between atoms: N6_35  and  C26_39 
ROOT
HETATM    1  N2  UNL     1       0.839  66.734  69.069  1.00  0.00    -0.341 N 
ATOM      2  H2  UNL     1       0.802  67.556  69.672  1.00  0.00     0.167 HD
ENDROOT
BRANCH   1   3
HETATM    3  C15 UNL     1       1.156  65.476  69.650  1.00  0.00     0.079 C 
HETATM    4  N1  UNL     1       0.152  64.739  69.924  1.00  0.00    -0.389 N 
ATOM      5  H12 UNL     1       0.380  63.836  70.340  1.00  0.00     0.157 HD
ATOM      6  H11 UNL     1      -0.785  65.080  69.708  1.00  0.00     0.157 HD
BRANCH   3   7
HETATM    7  C3  UNL     1       2.520  64.978  69.963  1.00  0.00     0.053 C 
BRANCH   7   8
HETATM    8  C2  UNL     1       3.546  65.959  69.523  1.00  0.00     0.008 C 
HETATM    9  C1  UNL     1       4.631  65.394  68.610  1.00  0.00     0.006 C 
ENDBRANCH   7   8
BRANCH   7  10
HETATM   10  C4  UNL     1       2.626  63.594  69.519  1.00  0.00     0.021 C 
BRANCH  10  11
HETATM   11  C5  UNL     1       3.017  62.444  70.347  1.00  0.00    -0.039 C 
HETATM   12  C6  UNL     1       2.765  61.204  69.417  1.00  0.00     0.014 C 
HETATM   13  C7  UNL     1       3.139  59.929  70.058  1.00  0.00    -0.013 C 
HETATM   14  C8  UNL     1       4.636  59.950  70.335  1.00  0.00     0.009 C 
HETATM   15  C12 UNL     1       2.431  59.710  71.349  1.00  0.00     0.009 C 
HETATM   16  C9  UNL     1       4.896  61.051  71.292  1.00  0.00    -0.013 C 
HETATM   17  C10 UNL     1       4.092  60.974  72.577  1.00  0.00     0.009 C 
HETATM   18  C14 UNL     1       4.478  62.383  70.647  1.00  0.00     0.014 C 
HETATM   19  C11 UNL     1       2.635  60.924  72.221  1.00  0.00    -0.013 C 
HETATM   20  C13 UNL     1       2.144  62.186  71.539  1.00  0.00     0.014 C 
ENDBRANCH  10  11
ENDBRANCH   7  10
ENDBRANCH   3   7
ENDBRANCH   1   3
BRANCH   1  21
HETATM   21  C16 UNL     1       0.575  66.890  67.698  1.00  0.00     0.118 C 
HETATM   22  C17 UNL     1      -0.600  66.933  67.181  1.00  0.00     0.055 C 
BRANCH  22  23
HETATM   23  C18 UNL     1      -1.913  66.852  67.764  1.00  0.00     0.109 C 
BRANCH  23  24
HETATM   24  N3  UNL     1      -3.015  67.408  67.100  1.00  0.00    -0.318 N 
ATOM     25  H3  UNL     1      -3.955  67.064  67.295  1.00  0.00     0.185 HD
BRANCH  24  26
HETATM   26  N4  UNL     1      -2.841  68.338  66.259  1.00  0.00    -0.345 N 
ATOM     27  H42 UNL     1      -2.251  68.165  65.444  1.00  0.00     0.176 HD
ATOM     28  H41 UNL     1      -3.289  69.243  66.402  1.00  0.00     0.176 HD
ENDBRANCH  24  26
ENDBRANCH  23  24
ENDBRANCH  22  23
BRANCH  21  29
HETATM   29  C19 UNL     1       1.778  67.102  66.770  1.00  0.00     0.342 C 
HETATM   30  O1  UNL     1       2.182  68.306  66.791  1.00  0.00    -0.249 OA
HETATM   31  N5  UNL     1       2.278  66.100  66.048  1.00  0.00    -0.382 NA
BRANCH  31  32
HETATM   32  C20 UNL     1       2.814  65.063  65.286  1.00  0.00     0.161 C 
BRANCH  32  33
HETATM   33  C21 UNL     1       4.006  65.346  64.425  1.00  0.00     0.087 C 
BRANCH  33  34
HETATM   34  C22 UNL     1       4.413  66.789  64.356  1.00  0.00     0.243 C 
BRANCH  34  35
HETATM   35  N6  UNL     1       4.149  67.424  63.097  1.00  0.00    -0.071 N 
HETATM   36  C23 UNL     1       4.471  66.425  62.065  1.00  0.00     0.272 C 
BRANCH  35  37
HETATM   37  C24 UNL     1       2.813  67.862  62.880  1.00  0.00     0.232 C 
HETATM   38  C25 UNL     1       2.501  68.286  61.481  1.00  0.00     0.035 C 
ENDBRANCH  35  37
BRANCH  35  39
HETATM   39  C26 UNL     1       5.043  68.537  62.835  1.00  0.00     0.232 C 
HETATM   40  C27 UNL     1       5.631  69.098  64.102  1.00  0.00     0.035 C 
ENDBRANCH  35  39
ENDBRANCH  34  35
ENDBRANCH  33  34
ENDBRANCH  32  33
ENDBRANCH  31  32
ENDBRANCH  21  29
ENDBRANCH   1  21
TORSDOF 16
ENDMDL
MODEL 4
REMARK VINA RESULT: -10.110850583      1.180      1.935
REMARK  16 active torsions:
REMARK  status: ('A' for Active; 'I' for Inactive)
REMARK    1  A    between atoms: C2_2  and  C3_3 
REMARK    2  A    between atoms: C3_3  and  C4_4 
REMARK    3  A    between atoms: C3_3  and  C15_15 
REMARK    4  A    between atoms: C4_4  and  C5_5 
REMARK    5  A    between atoms: C15_15  and  N2_19 
REMARK    6  A    between atoms: N2_19  and  C16_21 
REMARK    7  A    between atoms: C16_21  and  C19_29 
REMARK    8  A    between atoms: C17_22  and  C18_23 
REMARK    9  A    between atoms: C18_23  and  N3_24 
REMARK   10  A    between atoms: N3_24  and  N4_26 
REMARK       I    between atoms: C19_29  and  N5_31 
REMARK   11  A    between atoms: N5_31  and  C20_32 
REMARK   12  A    between atoms: C20_32  and  C21_33 
REMARK   13  A    between atoms: C21_33  and  C22_34 
REMARK   14  A    between atoms: C22_34  and  N6_35 
REMARK   15  A    between atoms: N6_35  and  C24_37 
REMARK   16  A    between atoms: N6_35  and  C26_39 
ROOT
HETATM    1  N2  UNL     1       0.981  66.662  69.078  1.00  0.00    -0.341 N 
ATOM      2  H2  UNL     1       0.987  67.497  69.662  1.00  0.00     0.167 HD
ENDROOT
BRANCH   1   3
HETATM    3  C15 UNL     1       1.259  65.405  69.680  1.00  0.00     0.079 C 
HETATM    4  N1  UNL     1       0.231  64.715  69.988  1.00  0.00    -0.389 N 
ATOM      5  H12 UNL     1       0.430  63.813  70.420  1.00  0.00     0.157 HD
ATOM      6  H11 UNL     1      -0.695  65.089  69.781  1.00  0.00     0.157 HD
BRANCH   3   7
HETATM    7  C3  UNL     1       2.607  64.860  69.982  1.00  0.00     0.053 C 
BRANCH   7   8
HETATM    8  C2  UNL     1       3.658  65.857  69.648  1.00  0.00     0.008 C 
HETATM    9  C1  UNL     1       4.798  65.329  68.780  1.00  0.00     0.006 C 
ENDBRANCH   7   8
BRANCH   7  10
HETATM   10  C4  UNL     1       2.703  63.516  69.426  1.00  0.00     0.021 C 
BRANCH  10  11
HETATM   11  C5  UNL     1       3.202  62.322  70.123  1.00  0.00    -0.039 C 
HETATM   12  C6  UNL     1       2.232  62.164  71.347  1.00  0.00     0.014 C 
HETATM   13  C7  UNL     1       2.543  60.980  72.170  1.00  0.00    -0.013 C 
HETATM   14  C8  UNL     1       2.347  59.735  71.314  1.00  0.00     0.009 C 
HETATM   15  C12 UNL     1       3.946  60.984  72.668  1.00  0.00     0.009 C 
HETATM   16  C9  UNL     1       3.321  59.803  70.200  1.00  0.00    -0.013 C 
HETATM   17  C10 UNL     1       4.766  59.959  70.633  1.00  0.00     0.009 C 
HETATM   18  C14 UNL     1       3.027  61.054  69.355  1.00  0.00     0.014 C 
HETATM   19  C11 UNL     1       4.873  61.184  71.494  1.00  0.00    -0.013 C 
HETATM   20  C13 UNL     1       4.556  62.466  70.750  1.00  0.00     0.014 C 
ENDBRANCH  10  11
ENDBRANCH   7  10
ENDBRANCH   3   7
ENDBRANCH   1   3
BRANCH   1  21
HETATM   21  C16 UNL     1       0.700  66.799  67.708  1.00  0.00     0.118 C 
HETATM   22  C17 UNL     1      -0.482  66.870  67.209  1.00  0.00     0.055 C 
BRANCH  22  23
HETATM   23  C18 UNL     1      -1.787  66.844  67.815  1.00  0.00     0.109 C 
BRANCH  23  24
HETATM   24  N3  UNL     1      -2.871  67.464  67.181  1.00  0.00    -0.318 N 
ATOM     25  H3  UNL     1      -3.826  67.197  67.422  1.00  0.00     0.185 HD
BRANCH  24  26
HETATM   26  N4  UNL     1      -2.665  68.357  66.308  1.00  0.00    -0.345 N 
ATOM     27  H42 UNL     1      -3.371  68.522  65.590  1.00  0.00     0.176 HD
ATOM     28  H41 UNL     1      -1.801  68.900  66.329  1.00  0.00     0.176 HD
ENDBRANCH  24  26
ENDBRANCH  23  24
ENDBRANCH  22  23
BRANCH  21  29
HETATM   29  C19 UNL     1       1.893  66.953  66.756  1.00  0.00     0.342 C 
HETATM   30  O1  UNL     1       2.227  68.170  66.614  1.00  0.00    -0.249 OA
HETATM   31  N5  UNL     1       2.454  65.894  66.175  1.00  0.00    -0.382 NA
BRANCH  31  32
HETATM   32  C20 UNL     1       3.052  64.796  65.558  1.00  0.00     0.161 C 
BRANCH  32  33
HETATM   33  C21 UNL     1       4.307  65.011  64.771  1.00  0.00     0.087 C 
BRANCH  33  34
HETATM   34  C22 UNL     1       4.106  65.559  63.388  1.00  0.00     0.243 C 
BRANCH  34  35
HETATM   35  N6  UNL     1       4.276  66.979  63.278  1.00  0.00    -0.071 N 
HETATM   36  C23 UNL     1       5.076  67.198  62.063  1.00  0.00     0.272 C 
BRANCH  35  37
HETATM   37  C24 UNL     1       3.086  67.750  63.163  1.00  0.00     0.232 C 
HETATM   38  C25 UNL     1       2.690  68.106  61.766  1.00  0.00     0.035 C 
ENDBRANCH  35  37
BRANCH  35  39
HETATM   39  C26 UNL     1       5.074  67.530  64.358  1.00  0.00     0.232 C 
HETATM   40  C27 UNL     1       5.460  68.962  64.100  1.00  0.00     0.035 C 
ENDBRANCH  35  39
ENDBRANCH  34  35
ENDBRANCH  33  34
ENDBRANCH  32  33
ENDBRANCH  31  32
ENDBRANCH  21  29
ENDBRANCH   1  21
TORSDOF 16
ENDMDL
MODEL 5
REMARK VINA RESULT: -10.085263774      1.184      2.162
REMARK  16 active torsions:
REMARK  status: ('A' for Active; 'I' for Inactive)
REMARK    1  A    between atoms: C2_2  and  C3_3 
REMARK    2  A    between atoms: C3_3  and  C4_4 
REMARK    3  A    between atoms: C3_3  and  C15_15 
REMARK    4  A    between atoms: C4_4  and  C5_5 
REMARK    5  A    between atoms: C15_15  and  N2_19 
REMARK    6  A    between atoms: N2_19  and  C16_21 
REMARK    7  A    between atoms: C16_21  and  C19_29 
REMARK    8  A    between atoms: C17_22  and  C18_23 
REMARK    9  A    between atoms: C18_23  and  N3_24 
REMARK   10  A    between atoms: N3_24  and  N4_26 
REMARK       I    between atoms: C19_29  and  N5_31 
REMARK   11  A    between atoms: N5_31  and  C20_32 
REMARK   12  A    between atoms: C20_32  and  C21_33 
REMARK   13  A    between atoms: C21_33  and  C22_34 
REMARK   14  A    between atoms: C22_34  and  N6_35 
REMARK   15  A    between atoms: N6_35  and  C24_37 
REMARK   16  A    between atoms: N6_35  and  C26_39 
ROOT
HETATM    1  N2  UNL     1       0.838  66.752  69.273  1.00  0.00    -0.341 N 
ATOM      2  H2  UNL     1       0.768  67.540  69.917  1.00  0.00     0.167 HD
ENDROOT
BRANCH   1   3
HETATM    3  C15 UNL     1       1.134  65.466  69.799  1.00  0.00     0.079 C 
HETATM    4  N1  UNL     1       0.121  64.719  70.003  1.00  0.00    -0.389 N 
ATOM      5  H12 UNL     1       0.333  63.795  70.380  1.00  0.00     0.157 HD
ATOM      6  H11 UNL     1      -0.808  65.074  69.776  1.00  0.00     0.157 HD
BRANCH   3   7
HETATM    7  C3  UNL     1       2.487  64.948  70.130  1.00  0.00     0.053 C 
BRANCH   7   8
HETATM    8  C2  UNL     1       3.529  65.936  69.749  1.00  0.00     0.008 C 
HETATM    9  C1  UNL     1       4.756  65.347  69.056  1.00  0.00     0.006 C 
ENDBRANCH   7   8
BRANCH   7  10
HETATM   10  C4  UNL     1       2.595  63.579  69.642  1.00  0.00     0.021 C 
BRANCH  10  11
HETATM   11  C5  UNL     1       2.983  62.404  70.434  1.00  0.00    -0.039 C 
HETATM   12  C6  UNL     1       2.735  61.193  69.464  1.00  0.00     0.014 C 
HETATM   13  C7  UNL     1       3.107  59.898  70.066  1.00  0.00    -0.013 C 
HETATM   14  C8  UNL     1       4.603  59.911  70.350  1.00  0.00     0.009 C 
HETATM   15  C12 UNL     1       2.394  59.639  71.346  1.00  0.00     0.009 C 
HETATM   16  C9  UNL     1       4.859  60.981  71.342  1.00  0.00    -0.013 C 
HETATM   17  C10 UNL     1       4.050  60.863  72.620  1.00  0.00     0.009 C 
HETATM   18  C14 UNL     1       4.443  62.333  70.738  1.00  0.00     0.014 C 
HETATM   19  C11 UNL     1       2.594  60.825  72.257  1.00  0.00    -0.013 C 
HETATM   20  C13 UNL     1       2.106  62.108  71.614  1.00  0.00     0.014 C 
ENDBRANCH  10  11
ENDBRANCH   7  10
ENDBRANCH   3   7
ENDBRANCH   1   3
BRANCH   1  21
HETATM   21  C16 UNL     1       0.638  66.982  67.901  1.00  0.00     0.118 C 
HETATM   22  C17 UNL     1      -0.509  67.002  67.324  1.00  0.00     0.055 C 
BRANCH  22  23
HETATM   23  C18 UNL     1      -1.845  66.822  67.828  1.00  0.00     0.109 C 
BRANCH  23  24
HETATM   24  N3  UNL     1      -2.930  67.431  67.183  1.00  0.00    -0.318 N 
ATOM     25  H3  UNL     1      -3.883  67.147  67.408  1.00  0.00     0.185 HD
BRANCH  24  26
HETATM   26  N4  UNL     1      -2.725  68.333  66.319  1.00  0.00    -0.345 N 
ATOM     27  H42 UNL     1      -1.766  68.550  66.046  1.00  0.00     0.176 HD
ATOM     28  H41 UNL     1      -3.514  68.831  65.907  1.00  0.00     0.176 HD
ENDBRANCH  24  26
ENDBRANCH  23  24
ENDBRANCH  22  23
BRANCH  21  29
HETATM   29  C19 UNL     1       1.875  67.310  67.055  1.00  0.00     0.342 C 
HETATM   30  O1  UNL     1       2.145  68.550  67.077  1.00  0.00    -0.249 OA
HETATM   31  N5  UNL     1       2.531  66.357  66.394  1.00  0.00    -0.382 NA
BRANCH  31  32
HETATM   32  C20 UNL     1       3.229  65.372  65.696  1.00  0.00     0.161 C 
BRANCH  32  33
HETATM   33  C21 UNL     1       4.293  65.794  64.730  1.00  0.00     0.087 C 
BRANCH  33  34
HETATM   34  C22 UNL     1       3.792  66.258  63.394  1.00  0.00     0.243 C 
BRANCH  34  35
HETATM   35  N6  UNL     1       3.746  67.683  63.235  1.00  0.00    -0.071 N 
HETATM   36  C23 UNL     1       2.320  68.047  63.258  1.00  0.00     0.272 C 
BRANCH  35  37
HETATM   37  C24 UNL     1       4.408  68.450  64.234  1.00  0.00     0.232 C 
HETATM   38  C25 UNL     1       5.704  69.064  63.812  1.00  0.00     0.035 C 
ENDBRANCH  35  37
BRANCH  35  39
HETATM   39  C26 UNL     1       4.224  68.116  61.935  1.00  0.00     0.232 C 
HETATM   40  C27 UNL     1       3.114  68.184  60.921  1.00  0.00     0.035 C 
ENDBRANCH  35  39
ENDBRANCH  34  35
ENDBRANCH  33  34
ENDBRANCH  32  33
ENDBRANCH  31  32
ENDBRANCH  21  29
ENDBRANCH   1  21
TORSDOF 16
ENDMDL
