MODEL 1
REMARK VINA RESULT: -9.663145065      0.000      0.000
REMARK  14 active torsions:
REMARK  status: ('A' for Active; 'I' for Inactive)
REMARK    1  A    between atoms: C2_2  and  C3_3 
REMARK       I    between atoms: C3_3  and  N1_5 
REMARK    2  A    between atoms: N1_5  and  C4_7 
REMARK    3  A    between atoms: C4_7  and  C5_8 
REMARK    4  A    between atoms: C4_7  and  C22_33 
REMARK    5  A    between atoms: C5_8  and  C6_9 
REMARK    6  A    between atoms: C6_9  and  N2_10 
REMARK    7  A    between atoms: C6_9  and  C21_30 
REMARK    8  A    between atoms: N2_10  and  C7_12 
REMARK    9  A    between atoms: C7_12  and  C8_16 
REMARK   10  A    between atoms: C8_16  and  N4_17 
REMARK   11  A    between atoms: N4_17  and  C10_19 
REMARK   12  A    between atoms: N4_17  and  C18_27 
REMARK   13  A    between atoms: C10_19  and  C11_20 
REMARK   14  A    between atoms: C11_20  and  C12_21 
ROOT
HETATM    1  N2  UNL     1       2.459  64.214  69.574  1.00  0.00    -0.344 N 
ATOM      2  H2  UNL     1       2.228  63.474  68.910  1.00  0.00     0.167 HD
ENDROOT
BRANCH   1   3
HETATM    3  C6  UNL     1       1.719  64.287  70.823  1.00  0.00     0.078 C 
BRANCH   3   4
HETATM    4  C5  UNL     1       1.822  63.071  71.658  1.00  0.00     0.092 C 
BRANCH   4   5
HETATM    5  C4  UNL     1       1.169  61.832  71.186  1.00  0.00     0.123 C 
BRANCH   5   6
HETATM    6  N1  UNL     1       2.271  60.876  70.905  1.00  0.00    -0.349 N 
HETATM    7  C3  UNL     1       2.810  60.746  69.620  1.00  0.00     0.240 C 
HETATM    8  O1  UNL     1       2.324  61.477  68.702  1.00  0.00    -0.269 OA
ATOM      9  H1  UNL     1       2.641  60.303  71.664  1.00  0.00     0.163 HD
BRANCH   7  10
HETATM   10  C2  UNL     1       3.882  59.817  69.349  1.00  0.00     0.064 C 
HETATM   11  C1  UNL     1       3.872  58.608  69.828  1.00  0.00     0.017 C 
ENDBRANCH   7  10
ENDBRANCH   5   6
BRANCH   5  12
HETATM   12  C22 UNL     1       0.280  61.127  72.106  1.00  0.00    -0.035 A 
HETATM   13  C23 UNL     1      -0.897  61.675  72.520  1.00  0.00     0.009 A 
HETATM   14  C24 UNL     1      -1.733  61.003  73.405  1.00  0.00     0.001 A 
HETATM   15  C25 UNL     1      -1.377  59.764  73.877  1.00  0.00     0.000 A 
HETATM   16  C26 UNL     1      -0.198  59.199  73.472  1.00  0.00     0.001 A 
HETATM   17  C27 UNL     1       0.634  59.889  72.580  1.00  0.00     0.009 A 
ENDBRANCH   5  12
ENDBRANCH   4   5
ENDBRANCH   3   4
BRANCH   3  18
HETATM   18  C21 UNL     1       0.389  64.901  70.687  1.00  0.00     0.277 C 
HETATM   19  N5  UNL     1      -0.186  65.150  69.415  1.00  0.00    -0.056 NA
HETATM   20  O2  UNL     1      -0.319  65.239  71.691  1.00  0.00    -0.270 OA
ENDBRANCH   3  18
ENDBRANCH   1   3
BRANCH   1  21
HETATM   21  C7  UNL     1       3.483  65.127  69.241  1.00  0.00     0.101 C 
HETATM   22  N3  UNL     1       4.701  64.773  69.580  1.00  0.00    -0.387 N 
ATOM     23  H32 UNL     1       4.843  63.879  70.049  1.00  0.00     0.157 HD
ATOM     24  H31 UNL     1       5.441  65.433  69.340  1.00  0.00     0.157 HD
BRANCH  21  25
HETATM   25  C8  UNL     1       3.279  66.416  68.564  1.00  0.00     0.312 C 
BRANCH  25  26
HETATM   26  N4  UNL     1       3.338  66.421  67.146  1.00  0.00    -0.060 N 
HETATM   27  C9  UNL     1       1.962  66.183  66.652  1.00  0.00     0.273 C 
BRANCH  26  28
HETATM   28  C10 UNL     1       3.703  67.676  66.528  1.00  0.00     0.242 C 
BRANCH  28  29
HETATM   29  C11 UNL     1       2.829  68.213  65.471  1.00  0.00     0.066 C 
BRANCH  29  30
HETATM   30  C12 UNL     1       3.574  68.366  64.162  1.00  0.00    -0.057 A 
HETATM   31  C13 UNL     1       4.892  68.768  64.143  1.00  0.00     0.007 A 
HETATM   32  C14 UNL     1       5.592  68.914  62.944  1.00  0.00     0.001 A 
HETATM   33  C15 UNL     1       4.934  68.646  61.764  1.00  0.00     0.000 A 
HETATM   34  C16 UNL     1       3.617  68.242  61.751  1.00  0.00     0.001 A 
HETATM   35  C17 UNL     1       2.944  68.105  62.962  1.00  0.00     0.007 A 
ENDBRANCH  29  30
ENDBRANCH  28  29
ENDBRANCH  26  28
BRANCH  26  36
HETATM   36  C18 UNL     1       4.172  65.400  66.555  1.00  0.00     0.182 C 
HETATM   37  C19 UNL     1       3.593  64.682  65.387  1.00  0.00     0.040 C 
HETATM   38  C20 UNL     1       5.549  65.874  66.155  1.00  0.00     0.040 C 
ENDBRANCH  26  36
ENDBRANCH  25  26
ENDBRANCH  21  25
ENDBRANCH   1  21
TORSDOF 14
ENDMDL
MODEL 2
REMARK VINA RESULT: -9.538083607      2.168      9.194
REMARK  14 active torsions:
REMARK  status: ('A' for Active; 'I' for Inactive)
REMARK    1  A    between atoms: C2_2  and  C3_3 
REMARK       I    between atoms: C3_3  and  N1_5 
REMARK    2  A    between atoms: N1_5  and  C4_7 
REMARK    3  A    between atoms: C4_7  and  C5_8 
REMARK    4  A    between atoms: C4_7  and  C22_33 
REMARK    5  A    between atoms: C5_8  and  C6_9 
REMARK    6  A    between atoms: C6_9  and  N2_10 
REMARK    7  A    between atoms: C6_9  and  C21_30 
REMARK    8  A    between atoms: N2_10  and  C7_12 
REMARK    9  A    between atoms: C7_12  and  C8_16 
REMARK   10  A    between atoms: C8_16  and  N4_17 
REMARK   11  A    between atoms: N4_17  and  C10_19 
REMARK   12  A    between atoms: N4_17  and  C18_27 
REMARK   13  A    between atoms: C10_19  and  C11_20 
REMARK   14  A    between atoms: C11_20  and  C12_21 
ROOT
HETATM    1  N2  UNL     1       1.564  65.453  68.905  1.00  0.00    -0.344 N 
ATOM      2  H2  UNL     1       1.474  64.785  68.139  1.00  0.00     0.167 HD
ENDROOT
BRANCH   1   3
HETATM    3  C6  UNL     1       2.722  66.330  68.934  1.00  0.00     0.078 C 
BRANCH   3   4
HETATM    4  C5  UNL     1       2.637  67.475  68.001  1.00  0.00     0.092 C 
BRANCH   4   5
HETATM    5  C4  UNL     1       1.987  67.272  66.690  1.00  0.00     0.123 C 
BRANCH   5   6
HETATM    6  N1  UNL     1       0.759  68.108  66.713  1.00  0.00    -0.349 N 
HETATM    7  C3  UNL     1      -0.514  67.530  66.654  1.00  0.00     0.240 C 
HETATM    8  O1  UNL     1      -0.582  66.264  66.581  1.00  0.00    -0.269 OA
ATOM      9  H1  UNL     1       0.846  69.122  66.773  1.00  0.00     0.163 HD
BRANCH   7  10
HETATM   10  C2  UNL     1      -1.706  68.344  66.677  1.00  0.00     0.064 C 
HETATM   11  C1  UNL     1      -2.780  67.997  66.032  1.00  0.00     0.017 C 
ENDBRANCH   7  10
ENDBRANCH   5   6
BRANCH   5  12
HETATM   12  C22 UNL     1       2.709  67.689  65.490  1.00  0.00    -0.035 A 
HETATM   13  C23 UNL     1       3.977  68.182  65.557  1.00  0.00     0.009 A 
HETATM   14  C24 UNL     1       4.654  68.588  64.412  1.00  0.00     0.001 A 
HETATM   15  C25 UNL     1       4.042  68.495  63.186  1.00  0.00     0.000 A 
HETATM   16  C26 UNL     1       2.768  68.003  63.101  1.00  0.00     0.001 A 
HETATM   17  C27 UNL     1       2.100  67.598  64.264  1.00  0.00     0.009 A 
ENDBRANCH   5  12
ENDBRANCH   4   5
ENDBRANCH   3   4
BRANCH   3  18
HETATM   18  C21 UNL     1       4.005  65.612  69.005  1.00  0.00     0.277 C 
HETATM   19  N5  UNL     1       4.813  65.424  67.855  1.00  0.00    -0.056 NA
HETATM   20  O2  UNL     1       4.462  65.126  70.090  1.00  0.00    -0.270 OA
ENDBRANCH   3  18
ENDBRANCH   1   3
BRANCH   1  21
HETATM   21  C7  UNL     1       0.558  65.488  69.895  1.00  0.00     0.101 C 
HETATM   22  N3  UNL     1      -0.578  66.043  69.542  1.00  0.00    -0.387 N 
ATOM     23  H32 UNL     1      -0.676  66.408  68.594  1.00  0.00     0.157 HD
ATOM     24  H31 UNL     1      -1.305  66.068  70.257  1.00  0.00     0.157 HD
BRANCH  21  25
HETATM   25  C8  UNL     1       0.698  64.962  71.261  1.00  0.00     0.312 C 
BRANCH  25  26
HETATM   26  N4  UNL     1       0.689  63.552  71.418  1.00  0.00    -0.060 N 
HETATM   27  C9  UNL     1      -0.084  62.992  70.284  1.00  0.00     0.273 C 
BRANCH  26  28
HETATM   28  C10 UNL     1       1.969  62.889  71.309  1.00  0.00     0.242 C 
BRANCH  28  29
HETATM   29  C11 UNL     1       2.255  62.119  70.086  1.00  0.00     0.066 C 
BRANCH  29  30
HETATM   30  C12 UNL     1       2.603  60.681  70.407  1.00  0.00    -0.057 A 
HETATM   31  C13 UNL     1       3.377  59.933  69.547  1.00  0.00     0.007 A 
HETATM   32  C14 UNL     1       3.706  58.606  69.829  1.00  0.00     0.001 A 
HETATM   33  C15 UNL     1       3.237  58.049  70.998  1.00  0.00     0.000 A 
HETATM   34  C16 UNL     1       2.460  58.771  71.878  1.00  0.00     0.001 A 
HETATM   35  C17 UNL     1       2.148  60.093  71.571  1.00  0.00     0.007 A 
ENDBRANCH  29  30
ENDBRANCH  28  29
ENDBRANCH  26  28
BRANCH  26  36
HETATM   36  C18 UNL     1       0.063  63.065  72.625  1.00  0.00     0.182 C 
HETATM   37  C19 UNL     1      -0.762  61.834  72.481  1.00  0.00     0.040 C 
HETATM   38  C20 UNL     1       1.017  62.836  73.774  1.00  0.00     0.040 C 
ENDBRANCH  26  36
ENDBRANCH  25  26
ENDBRANCH  21  25
ENDBRANCH   1  21
TORSDOF 14
ENDMDL
MODEL 3
REMARK VINA RESULT: -9.520032549      3.109      9.160
REMARK  14 active torsions:
REMARK  status: ('A' for Active; 'I' for Inactive)
REMARK    1  A    between atoms: C2_2  and  C3_3 
REMARK       I    between atoms: C3_3  and  N1_5 
REMARK    2  A    between atoms: N1_5  and  C4_7 
REMARK    3  A    between atoms: C4_7  and  C5_8 
REMARK    4  A    between atoms: C4_7  and  C22_33 
REMARK    5  A    between atoms: C5_8  and  C6_9 
REMARK    6  A    between atoms: C6_9  and  N2_10 
REMARK    7  A    between atoms: C6_9  and  C21_30 
REMARK    8  A    between atoms: N2_10  and  C7_12 
REMARK    9  A    between atoms: C7_12  and  C8_16 
REMARK   10  A    between atoms: C8_16  and  N4_17 
REMARK   11  A    between atoms: N4_17  and  C10_19 
REMARK   12  A    between atoms: N4_17  and  C18_27 
REMARK   13  A    between atoms: C10_19  and  C11_20 
REMARK   14  A    between atoms: C11_20  and  C12_21 
ROOT
HETATM    1  N2  UNL     1       1.099  66.432  67.839  1.00  0.00    -0.344 N 
ATOM      2  H2  UNL     1       0.597  65.572  68.060  1.00  0.00     0.167 HD
ENDROOT
BRANCH   1   3
HETATM    3  C6  UNL     1       0.747  67.155  66.628  1.00  0.00     0.078 C 
BRANCH   3   4
HETATM    4  C5  UNL     1       1.897  67.782  65.942  1.00  0.00     0.092 C 
BRANCH   4   5
HETATM    5  C4  UNL     1       2.051  67.573  64.486  1.00  0.00     0.123 C 
BRANCH   5   6
HETATM    6  N1  UNL     1       1.217  68.617  63.838  1.00  0.00    -0.349 N 
HETATM    7  C3  UNL     1       0.303  68.294  62.829  1.00  0.00     0.240 C 
HETATM    8  O1  UNL     1       0.211  67.074  62.488  1.00  0.00    -0.269 OA
ATOM      9  H1  UNL     1       1.312  69.589  64.134  1.00  0.00     0.163 HD
BRANCH   7  10
HETATM   10  C2  UNL     1      -0.508  69.310  62.200  1.00  0.00     0.064 C 
HETATM   11  C1  UNL     1      -0.332  69.648  60.957  1.00  0.00     0.017 C 
ENDBRANCH   7  10
ENDBRANCH   5   6
BRANCH   5  12
HETATM   12  C22 UNL     1       3.381  67.733  63.904  1.00  0.00    -0.035 A 
HETATM   13  C23 UNL     1       3.805  66.953  62.870  1.00  0.00     0.009 A 
HETATM   14  C24 UNL     1       5.077  67.103  62.329  1.00  0.00     0.001 A 
HETATM   15  C25 UNL     1       5.930  68.052  62.836  1.00  0.00     0.000 A 
HETATM   16  C26 UNL     1       5.521  68.844  63.874  1.00  0.00     0.001 A 
HETATM   17  C27 UNL     1       4.236  68.680  64.409  1.00  0.00     0.009 A 
ENDBRANCH   5  12
ENDBRANCH   4   5
ENDBRANCH   3   4
BRANCH   3  18
HETATM   18  C21 UNL     1      -0.481  67.956  66.756  1.00  0.00     0.277 C 
HETATM   19  N5  UNL     1      -1.531  67.860  65.809  1.00  0.00    -0.056 NA
HETATM   20  O2  UNL     1      -0.673  68.772  67.716  1.00  0.00    -0.270 OA
ENDBRANCH   3  18
ENDBRANCH   1   3
BRANCH   1  21
HETATM   21  C7  UNL     1       2.109  66.873  68.722  1.00  0.00     0.101 C 
HETATM   22  N3  UNL     1       2.126  68.160  68.980  1.00  0.00    -0.387 N 
ATOM     23  H32 UNL     1       1.425  68.760  68.544  1.00  0.00     0.157 HD
ATOM     24  H31 UNL     1       2.855  68.479  69.618  1.00  0.00     0.157 HD
BRANCH  21  25
HETATM   25  C8  UNL     1       3.118  66.008  69.350  1.00  0.00     0.312 C 
BRANCH  25  26
HETATM   26  N4  UNL     1       3.806  65.096  68.509  1.00  0.00    -0.060 N 
HETATM   27  C9  UNL     1       5.190  64.985  69.027  1.00  0.00     0.273 C 
BRANCH  26  28
HETATM   28  C10 UNL     1       3.332  63.730  68.528  1.00  0.00     0.242 C 
BRANCH  28  29
HETATM   29  C11 UNL     1       2.802  63.192  69.792  1.00  0.00     0.066 C 
BRANCH  29  30
HETATM   30  C12 UNL     1       3.474  61.887  70.162  1.00  0.00    -0.057 A 
HETATM   31  C13 UNL     1       4.583  61.871  70.979  1.00  0.00     0.007 A 
HETATM   32  C14 UNL     1       5.214  60.675  71.329  1.00  0.00     0.001 A 
HETATM   33  C15 UNL     1       4.703  59.496  70.836  1.00  0.00     0.000 A 
HETATM   34  C16 UNL     1       3.594  59.479  70.016  1.00  0.00     0.001 A 
HETATM   35  C17 UNL     1       2.986  60.687  69.685  1.00  0.00     0.007 A 
ENDBRANCH  29  30
ENDBRANCH  28  29
ENDBRANCH  26  28
BRANCH  26  36
HETATM   36  C18 UNL     1       3.913  65.487  67.123  1.00  0.00     0.182 C 
HETATM   37  C19 UNL     1       5.238  66.013  66.695  1.00  0.00     0.040 C 
HETATM   38  C20 UNL     1       3.515  64.412  66.139  1.00  0.00     0.040 C 
ENDBRANCH  26  36
ENDBRANCH  25  26
ENDBRANCH  21  25
ENDBRANCH   1  21
TORSDOF 14
ENDMDL
MODEL 4
REMARK VINA RESULT: -9.435778243      2.029      3.591
REMARK  14 active torsions:
REMARK  status: ('A' for Active; 'I' for Inactive)
REMARK    1  A    between atoms: C2_2  and  C3_3 
REMARK       I    between atoms: C3_3  and  N1_5 
REMARK    2  A    between atoms: N1_5  and  C4_7 
REMARK    3  A    between atoms: C4_7  and  C5_8 
REMARK    4  A    between atoms: C4_7  and  C22_33 
REMARK    5  A    between atoms: C5_8  and  C6_9 
REMARK    6  A    between atoms: C6_9  and  N2_10 
REMARK    7  A    between atoms: C6_9  and  C21_30 
REMARK    8  A    between atoms: N2_10  and  C7_12 
REMARK    9  A    between atoms: C7_12  and  C8_16 
REMARK   10  A    between atoms: C8_16  and  N4_17 
REMARK   11  A    between atoms: N4_17  and  C10_19 
REMARK   12  A    between atoms: N4_17  and  C18_27 
REMARK   13  A    between atoms: C10_19  and  C11_20 
REMARK   14  A    between atoms: C11_20  and  C12_21 
ROOT
HETATM    1  N2  UNL     1       0.290  64.511  69.855  1.00  0.00    -0.344 N 
ATOM      2  H2  UNL     1      -0.271  64.046  69.140  1.00  0.00     0.167 HD
ENDROOT
BRANCH   1   3
HETATM    3  C6  UNL     1       0.653  63.767  71.050  1.00  0.00     0.078 C 
BRANCH   3   4
HETATM    4  C5  UNL     1       0.710  62.302  70.856  1.00  0.00     0.092 C 
BRANCH   4   5
HETATM    5  C4  UNL     1       1.893  61.722  70.186  1.00  0.00     0.123 C 
BRANCH   5   6
HETATM    6  N1  UNL     1       3.024  62.630  70.506  1.00  0.00    -0.349 N 
HETATM    7  C3  UNL     1       3.724  63.301  69.497  1.00  0.00     0.240 C 
HETATM    8  O1  UNL     1       3.357  63.106  68.297  1.00  0.00    -0.269 OA
ATOM      9  H1  UNL     1       3.295  62.767  71.479  1.00  0.00     0.163 HD
BRANCH   7  10
HETATM   10  C2  UNL     1       4.824  64.184  69.810  1.00  0.00     0.064 C 
HETATM   11  C1  UNL     1       5.265  65.052  68.950  1.00  0.00     0.017 C 
ENDBRANCH   7  10
ENDBRANCH   5   6
BRANCH   5  12
HETATM   12  C22 UNL     1       2.341  60.396  70.603  1.00  0.00    -0.035 A 
HETATM   13  C23 UNL     1       3.198  59.660  69.841  1.00  0.00     0.009 A 
HETATM   14  C24 UNL     1       3.610  58.393  70.239  1.00  0.00     0.001 A 
HETATM   15  C25 UNL     1       3.153  57.864  71.420  1.00  0.00     0.000 A 
HETATM   16  C26 UNL     1       2.291  58.588  72.198  1.00  0.00     0.001 A 
HETATM   17  C27 UNL     1       1.885  59.864  71.783  1.00  0.00     0.009 A 
ENDBRANCH   5  12
ENDBRANCH   4   5
ENDBRANCH   3   4
BRANCH   3  18
HETATM   18  C21 UNL     1       0.002  64.261  72.273  1.00  0.00     0.277 C 
HETATM   19  N5  UNL     1      -0.131  63.444  73.424  1.00  0.00    -0.056 NA
HETATM   20  O2  UNL     1      -0.473  65.440  72.372  1.00  0.00    -0.270 OA
ENDBRANCH   3  18
ENDBRANCH   1   3
BRANCH   1  21
HETATM   21  C7  UNL     1       0.684  65.850  69.643  1.00  0.00     0.101 C 
HETATM   22  N3  UNL     1       1.924  66.142  69.959  1.00  0.00    -0.387 N 
ATOM     23  H32 UNL     1       2.526  65.405  70.327  1.00  0.00     0.157 HD
ATOM     24  H31 UNL     1       2.209  67.109  69.806  1.00  0.00     0.157 HD
BRANCH  21  25
HETATM   25  C8  UNL     1      -0.184  66.911  69.112  1.00  0.00     0.312 C 
BRANCH  25  26
HETATM   26  N4  UNL     1       0.057  67.341  67.781  1.00  0.00    -0.060 N 
HETATM   27  C9  UNL     1       0.145  68.820  67.811  1.00  0.00     0.273 C 
BRANCH  26  28
HETATM   28  C10 UNL     1       1.319  66.942  67.200  1.00  0.00     0.242 C 
BRANCH  28  29
HETATM   29  C11 UNL     1       2.366  67.965  67.035  1.00  0.00     0.066 C 
BRANCH  29  30
HETATM   30  C12 UNL     1       2.814  68.070  65.593  1.00  0.00    -0.057 A 
HETATM   31  C13 UNL     1       4.099  68.453  65.279  1.00  0.00     0.007 A 
HETATM   32  C14 UNL     1       4.527  68.555  63.954  1.00  0.00     0.001 A 
HETATM   33  C15 UNL     1       3.629  68.263  62.952  1.00  0.00     0.000 A 
HETATM   34  C16 UNL     1       2.336  67.877  63.234  1.00  0.00     0.001 A 
HETATM   35  C17 UNL     1       1.938  67.784  64.565  1.00  0.00     0.007 A 
ENDBRANCH  29  30
ENDBRANCH  28  29
ENDBRANCH  26  28
BRANCH  26  36
HETATM   36  C18 UNL     1      -0.973  67.008  66.824  1.00  0.00     0.182 C 
HETATM   37  C19 UNL     1      -2.191  66.355  67.378  1.00  0.00     0.040 C 
HETATM   38  C20 UNL     1      -1.433  68.169  65.973  1.00  0.00     0.040 C 
ENDBRANCH  26  36
ENDBRANCH  25  26
ENDBRANCH  21  25
ENDBRANCH   1  21
TORSDOF 14
ENDMDL
MODEL 5
REMARK VINA RESULT: -9.354813028      1.942      9.398
REMARK  14 active torsions:
REMARK  status: ('A' for Active; 'I' for Inactive)
REMARK    1  A    between atoms: C2_2  and  C3_3 
REMARK       I    between atoms: C3_3  and  N1_5 
REMARK    2  A    between atoms: N1_5  and  C4_7 
REMARK    3  A    between atoms: C4_7  and  C5_8 
REMARK    4  A    between atoms: C4_7  and  C22_33 
REMARK    5  A    between atoms: C5_8  and  C6_9 
REMARK    6  A    between atoms: C6_9  and  N2_10 
REMARK    7  A    between atoms: C6_9  and  C21_30 
REMARK    8  A    between atoms: N2_10  and  C7_12 
REMARK    9  A    between atoms: C7_12  and  C8_16 
REMARK   10  A    between atoms: C8_16  and  N4_17 
REMARK   11  A    between atoms: N4_17  and  C10_19 
REMARK   12  A    between atoms: N4_17  and  C18_27 
REMARK   13  A    between atoms: C10_19  and  C11_20 
REMARK   14  A    between atoms: C11_20  and  C12_21 
ROOT
HETATM    1  N2  UNL     1       3.130  64.318  70.081  1.00  0.00    -0.344 N 
ATOM      2  H2  UNL     1       3.609  64.706  70.894  1.00  0.00     0.167 HD
ENDROOT
BRANCH   1   3
HETATM    3  C6  UNL     1       2.150  65.139  69.390  1.00  0.00     0.078 C 
BRANCH   3   4
HETATM    4  C5  UNL     1       2.728  66.294  68.670  1.00  0.00     0.092 C 
BRANCH   4   5
HETATM    5  C4  UNL     1       2.364  66.498  67.252  1.00  0.00     0.123 C 
BRANCH   5   6
HETATM    6  N1  UNL     1       1.336  67.570  67.248  1.00  0.00    -0.349 N 
HETATM    7  C3  UNL     1       0.031  67.323  66.810  1.00  0.00     0.240 C 
HETATM    8  O1  UNL     1      -0.245  66.147  66.415  1.00  0.00    -0.269 OA
ATOM      9  H1  UNL     1       1.588  68.504  67.571  1.00  0.00     0.163 HD
BRANCH   7  10
HETATM   10  C2  UNL     1      -0.967  68.366  66.807  1.00  0.00     0.064 C 
HETATM   11  C1  UNL     1      -2.171  68.157  66.363  1.00  0.00     0.017 C 
ENDBRANCH   7  10
ENDBRANCH   5   6
BRANCH   5  12
HETATM   12  C22 UNL     1       3.401  66.961  66.333  1.00  0.00    -0.035 A 
HETATM   13  C23 UNL     1       4.563  66.271  66.162  1.00  0.00     0.009 A 
HETATM   14  C24 UNL     1       5.550  66.725  65.295  1.00  0.00     0.001 A 
HETATM   15  C25 UNL     1       5.362  67.889  64.592  1.00  0.00     0.000 A 
HETATM   16  C26 UNL     1       4.201  68.596  64.752  1.00  0.00     0.001 A 
HETATM   17  C27 UNL     1       3.216  68.125  65.630  1.00  0.00     0.009 A 
ENDBRANCH   5  12
ENDBRANCH   4   5
ENDBRANCH   3   4
BRANCH   3  18
HETATM   18  C21 UNL     1       0.924  65.376  70.170  1.00  0.00     0.277 C 
HETATM   19  N5  UNL     1       0.575  64.552  71.270  1.00  0.00    -0.056 NA
HETATM   20  O2  UNL     1       0.114  66.324  69.909  1.00  0.00    -0.270 OA
ENDBRANCH   3  18
ENDBRANCH   1   3
BRANCH   1  21
HETATM   21  C7  UNL     1       3.446  63.004  69.671  1.00  0.00     0.101 C 
HETATM   22  N3  UNL     1       2.911  62.611  68.538  1.00  0.00    -0.387 N 
ATOM     23  H32 UNL     1       2.314  63.257  68.024  1.00  0.00     0.157 HD
ATOM     24  H31 UNL     1       3.140  61.662  68.242  1.00  0.00     0.157 HD
BRANCH  21  25
HETATM   25  C8  UNL     1       4.308  62.073  70.413  1.00  0.00     0.312 C 
BRANCH  25  26
HETATM   26  N4  UNL     1       3.671  61.160  71.294  1.00  0.00    -0.060 N 
HETATM   27  C9  UNL     1       4.564  60.990  72.464  1.00  0.00     0.273 C 
BRANCH  26  28
HETATM   28  C10 UNL     1       2.428  61.604  71.883  1.00  0.00     0.242 C 
BRANCH  28  29
HETATM   29  C11 UNL     1       1.166  61.156  71.269  1.00  0.00     0.066 C 
BRANCH  29  30
HETATM   30  C12 UNL     1       0.192  60.653  72.313  1.00  0.00    -0.057 A 
HETATM   31  C13 UNL     1       0.411  59.460  72.967  1.00  0.00     0.007 A 
HETATM   32  C14 UNL     1      -0.479  58.983  73.931  1.00  0.00     0.001 A 
HETATM   33  C15 UNL     1      -1.595  59.735  74.222  1.00  0.00     0.000 A 
HETATM   34  C16 UNL     1      -1.842  60.933  73.586  1.00  0.00     0.001 A 
HETATM   35  C17 UNL     1      -0.936  61.384  72.628  1.00  0.00     0.007 A 
ENDBRANCH  29  30
ENDBRANCH  28  29
ENDBRANCH  26  28
BRANCH  26  36
HETATM   36  C18 UNL     1       3.438  59.839  70.757  1.00  0.00     0.182 C 
HETATM   37  C19 UNL     1       4.069  59.550  69.440  1.00  0.00     0.040 C 
HETATM   38  C20 UNL     1       3.809  58.712  71.692  1.00  0.00     0.040 C 
ENDBRANCH  26  36
ENDBRANCH  25  26
ENDBRANCH  21  25
ENDBRANCH   1  21
TORSDOF 14
ENDMDL
