MODEL 1
REMARK VINA RESULT: -8.967142300      0.000      0.000
REMARK  17 active torsions:
REMARK  status: ('A' for Active; 'I' for Inactive)
REMARK    1  A    between atoms: C3_3  and  C4_4 
REMARK    2  A    between atoms: C5_5  and  C6_6 
REMARK    3  A    between atoms: C6_6  and  N1_7 
REMARK    4  A    between atoms: C11_12  and  C12_13 
REMARK    5  A    between atoms: C12_13  and  N2_14 
REMARK    6  A    between atoms: C12_13  and  C27_39 
REMARK       I    between atoms: N2_14  and  C13_16 
REMARK    7  A    between atoms: C13_16  and  C14_18 
REMARK    8  A    between atoms: C14_18  and  C15_19 
REMARK    9  A    between atoms: C15_19  and  C16_20 
REMARK   10  A    between atoms: C16_20  and  C17_21 
REMARK   11  A    between atoms: C17_21  and  C18_22 
REMARK   12  A    between atoms: C18_22  and  N3_23 
REMARK       I    between atoms: N3_23  and  C19_25 
REMARK       I    between atoms: C19_25  and  N5_29 
REMARK   13  A    between atoms: N5_29  and  C20_31 
REMARK   14  A    between atoms: C20_31  and  C21_32 
REMARK   15  A    between atoms: C21_32  and  N6_33 
REMARK   16  A    between atoms: N6_33  and  C23_35 
REMARK   17  A    between atoms: N6_33  and  C25_37 
ROOT
HETATM    1  C14 UNL     1       5.131  64.919  69.611  1.00  0.00     0.103 C 
ENDROOT
BRANCH   1   2
HETATM    2  C13 UNL     1       4.686  63.783  70.406  1.00  0.00     0.218 C 
HETATM    3  N2  UNL     1       3.396  63.275  70.470  1.00  0.00    -0.351 N 
ATOM      4  H2  UNL     1       2.670  63.728  69.916  1.00  0.00     0.163 HD
HETATM    5  O1  UNL     1       5.563  63.183  71.122  1.00  0.00    -0.274 OA
BRANCH   3   6
HETATM    6  C12 UNL     1       3.019  62.105  71.305  1.00  0.00     0.138 C 
BRANCH   6   7
HETATM    7  C11 UNL     1       1.985  62.451  72.256  1.00  0.00     0.035 A 
HETATM    8  N1  UNL     1       1.918  61.752  73.416  1.00  0.00    -0.347 N 
HETATM    9  C7  UNL     1       0.934  62.013  74.336  1.00  0.00     0.092 A 
HETATM   10  C8  UNL     1      -0.016  62.973  74.142  1.00  0.00     0.017 A 
HETATM   11  C9  UNL     1       0.049  63.685  72.971  1.00  0.00     0.003 A 
HETATM   12  C10 UNL     1       1.025  63.428  72.056  1.00  0.00     0.027 A 
BRANCH   8  13
HETATM   13  C6  UNL     1       2.866  60.739  73.843  1.00  0.00     0.222 C 
BRANCH  13  14
HETATM   14  C5  UNL     1       2.426  59.385  73.563  1.00  0.00    -0.082 C 
HETATM   15  C4  UNL     1       2.084  58.248  73.341  1.00  0.00    -0.077 C 
BRANCH  15  16
HETATM   16  C3  UNL     1       1.711  56.889  73.084  1.00  0.00     0.060 C 
HETATM   17  C2  UNL     1       0.578  56.345  73.487  1.00  0.00    -0.022 C 
HETATM   18  C1  UNL     1      -0.377  57.189  74.259  1.00  0.00     0.036 C 
ENDBRANCH  15  16
ENDBRANCH  13  14
ENDBRANCH   8  13
ENDBRANCH   6   7
BRANCH   6  19
HETATM   19  C27 UNL     1       2.779  61.047  70.281  1.00  0.00     0.006 C 
HETATM   20  C28 UNL     1       3.776  59.940  70.188  1.00  0.00     0.012 C 
HETATM   21  C29 UNL     1       2.379  61.558  68.910  1.00  0.00     0.012 C 
ENDBRANCH   6  19
ENDBRANCH   3   6
ENDBRANCH   1   2
BRANCH   1  22
HETATM   22  C15 UNL     1       4.106  65.642  68.824  1.00  0.00     0.009 C 
BRANCH  22  23
HETATM   23  C16 UNL     1       3.364  66.703  69.554  1.00  0.00     0.002 C 
BRANCH  23  24
HETATM   24  C17 UNL     1       1.881  66.411  69.647  1.00  0.00     0.020 C 
BRANCH  24  25
HETATM   25  C18 UNL     1       1.033  67.383  68.867  1.00  0.00     0.138 C 
BRANCH  25  26
HETATM   26  N3  UNL     1       1.802  67.797  67.703  1.00  0.00    -0.227 N 
HETATM   27  C19 UNL     1       1.350  67.520  66.385  1.00  0.00     0.667 C 
HETATM   28  N4  UNL     1       0.628  66.480  66.153  1.00  0.00    -0.235 N 
HETATM   29  N5  UNL     1       1.672  68.365  65.277  1.00  0.00    -0.225 N 
ATOM     30  H42 UNL     1       0.398  65.877  66.943  1.00  0.00     0.174 HD
ATOM     31  H41 UNL     1       0.304  66.281  65.207  1.00  0.00     0.174 HD
ATOM     32  H5  UNL     1       1.867  69.348  65.467  1.00  0.00     0.177 HD
ATOM     33  H3  UNL     1       2.681  68.297  67.837  1.00  0.00     0.177 HD
BRANCH  29  34
HETATM   34  C20 UNL     1       1.740  67.914  63.908  1.00  0.00     0.166 C 
BRANCH  34  35
HETATM   35  C21 UNL     1       3.067  68.048  63.281  1.00  0.00     0.257 C 
BRANCH  35  36
HETATM   36  N6  UNL     1       4.081  67.119  63.560  1.00  0.00    -0.070 N 
HETATM   37  C22 UNL     1       4.861  66.893  62.328  1.00  0.00     0.272 C 
BRANCH  36  38
HETATM   38  C23 UNL     1       5.076  67.731  64.467  1.00  0.00     0.232 C 
HETATM   39  C24 UNL     1       5.340  69.165  64.142  1.00  0.00     0.035 C 
ENDBRANCH  36  38
BRANCH  36  40
HETATM   40  C25 UNL     1       3.732  65.854  64.086  1.00  0.00     0.232 C 
HETATM   41  C26 UNL     1       4.548  65.362  65.245  1.00  0.00     0.035 C 
ENDBRANCH  36  40
ENDBRANCH  35  36
ENDBRANCH  34  35
ENDBRANCH  29  34
ENDBRANCH  25  26
ENDBRANCH  24  25
ENDBRANCH  23  24
ENDBRANCH  22  23
ENDBRANCH   1  22
TORSDOF 17
ENDMDL
MODEL 2
REMARK VINA RESULT: -8.966076291      1.224      1.623
REMARK  17 active torsions:
REMARK  status: ('A' for Active; 'I' for Inactive)
REMARK    1  A    between atoms: C3_3  and  C4_4 
REMARK    2  A    between atoms: C5_5  and  C6_6 
REMARK    3  A    between atoms: C6_6  and  N1_7 
REMARK    4  A    between atoms: C11_12  and  C12_13 
REMARK    5  A    between atoms: C12_13  and  N2_14 
REMARK    6  A    between atoms: C12_13  and  C27_39 
REMARK       I    between atoms: N2_14  and  C13_16 
REMARK    7  A    between atoms: C13_16  and  C14_18 
REMARK    8  A    between atoms: C14_18  and  C15_19 
REMARK    9  A    between atoms: C15_19  and  C16_20 
REMARK   10  A    between atoms: C16_20  and  C17_21 
REMARK   11  A    between atoms: C17_21  and  C18_22 
REMARK   12  A    between atoms: C18_22  and  N3_23 
REMARK       I    between atoms: N3_23  and  C19_25 
REMARK       I    between atoms: C19_25  and  N5_29 
REMARK   13  A    between atoms: N5_29  and  C20_31 
REMARK   14  A    between atoms: C20_31  and  C21_32 
REMARK   15  A    between atoms: C21_32  and  N6_33 
REMARK   16  A    between atoms: N6_33  and  C23_35 
REMARK   17  A    between atoms: N6_33  and  C25_37 
ROOT
HETATM    1  C14 UNL     1       5.052  64.150  70.475  1.00  0.00     0.103 C 
ENDROOT
BRANCH   1   2
HETATM    2  C13 UNL     1       4.463  62.869  70.837  1.00  0.00     0.218 C 
HETATM    3  N2  UNL     1       3.130  62.505  70.703  1.00  0.00    -0.351 N 
ATOM      4  H2  UNL     1       2.479  63.188  70.318  1.00  0.00     0.163 HD
HETATM    5  O1  UNL     1       5.242  61.978  71.329  1.00  0.00    -0.274 OA
BRANCH   3   6
HETATM    6  C12 UNL     1       2.604  61.172  71.093  1.00  0.00     0.138 C 
BRANCH   6   7
HETATM    7  C11 UNL     1       1.326  61.287  71.761  1.00  0.00     0.035 A 
HETATM    8  N1  UNL     1       0.985  60.336  72.666  1.00  0.00    -0.347 N 
HETATM    9  C7  UNL     1      -0.232  60.377  73.300  1.00  0.00     0.092 A 
HETATM   10  C8  UNL     1      -1.151  61.357  73.064  1.00  0.00     0.017 A 
HETATM   11  C9  UNL     1      -0.810  62.323  72.151  1.00  0.00     0.003 A 
HETATM   12  C10 UNL     1       0.397  62.285  71.519  1.00  0.00     0.027 A 
BRANCH   8  13
HETATM   13  C6  UNL     1       1.840  59.250  73.108  1.00  0.00     0.222 C 
BRANCH  13  14
HETATM   14  C5  UNL     1       1.124  58.008  73.332  1.00  0.00    -0.082 C 
HETATM   15  C4  UNL     1       0.514  56.987  73.541  1.00  0.00    -0.077 C 
BRANCH  15  16
HETATM   16  C3  UNL     1      -0.218  55.788  73.819  1.00  0.00     0.060 C 
HETATM   17  C2  UNL     1       0.343  54.624  74.085  1.00  0.00    -0.022 C 
HETATM   18  C1  UNL     1       1.831  54.543  74.099  1.00  0.00     0.036 C 
ENDBRANCH  15  16
ENDBRANCH  13  14
ENDBRANCH   8  13
ENDBRANCH   6   7
BRANCH   6  19
HETATM   19  C27 UNL     1       2.724  60.397  69.823  1.00  0.00     0.006 C 
HETATM   20  C28 UNL     1       3.683  59.254  69.802  1.00  0.00     0.012 C 
HETATM   21  C29 UNL     1       2.826  61.238  68.565  1.00  0.00     0.012 C 
ENDBRANCH   6  19
ENDBRANCH   3   6
ENDBRANCH   1   2
BRANCH   1  22
HETATM   22  C15 UNL     1       4.368  64.941  69.426  1.00  0.00     0.009 C 
BRANCH  22  23
HETATM   23  C16 UNL     1       3.523  66.062  69.914  1.00  0.00     0.002 C 
BRANCH  23  24
HETATM   24  C17 UNL     1       2.045  65.739  69.857  1.00  0.00     0.020 C 
BRANCH  24  25
HETATM   25  C18 UNL     1       1.184  66.940  69.558  1.00  0.00     0.138 C 
BRANCH  25  26
HETATM   26  N3  UNL     1       0.891  66.925  68.133  1.00  0.00    -0.227 N 
HETATM   27  C19 UNL     1       1.733  67.588  67.200  1.00  0.00     0.667 C 
HETATM   28  N4  UNL     1       2.398  68.632  67.554  1.00  0.00    -0.235 N 
HETATM   29  N5  UNL     1       1.877  67.135  65.851  1.00  0.00    -0.225 N 
ATOM     30  H42 UNL     1       2.295  68.955  68.517  1.00  0.00     0.174 HD
ATOM     31  H41 UNL     1       3.002  69.108  66.885  1.00  0.00     0.174 HD
ATOM     32  H5  UNL     1       1.718  66.147  65.659  1.00  0.00     0.177 HD
ATOM     33  H3  UNL     1       0.065  66.429  67.798  1.00  0.00     0.177 HD
BRANCH  29  34
HETATM   34  C20 UNL     1       2.234  67.991  64.745  1.00  0.00     0.166 C 
BRANCH  34  35
HETATM   35  C21 UNL     1       2.984  67.322  63.667  1.00  0.00     0.257 C 
BRANCH  35  36
HETATM   36  N6  UNL     1       4.349  67.035  63.825  1.00  0.00    -0.070 N 
HETATM   37  C22 UNL     1       4.542  65.580  63.666  1.00  0.00     0.272 C 
BRANCH  36  38
HETATM   38  C23 UNL     1       5.107  67.590  62.683  1.00  0.00     0.232 C 
HETATM   39  C24 UNL     1       5.654  68.951  62.966  1.00  0.00     0.035 C 
ENDBRANCH  36  38
BRANCH  36  40
HETATM   40  C25 UNL     1       5.004  67.428  65.014  1.00  0.00     0.232 C 
HETATM   41  C26 UNL     1       5.374  66.333  65.970  1.00  0.00     0.035 C 
ENDBRANCH  36  40
ENDBRANCH  35  36
ENDBRANCH  34  35
ENDBRANCH  29  34
ENDBRANCH  25  26
ENDBRANCH  24  25
ENDBRANCH  23  24
ENDBRANCH  22  23
ENDBRANCH   1  22
TORSDOF 17
ENDMDL
MODEL 3
REMARK VINA RESULT: -8.909867188      2.343      9.835
REMARK  17 active torsions:
REMARK  status: ('A' for Active; 'I' for Inactive)
REMARK    1  A    between atoms: C3_3  and  C4_4 
REMARK    2  A    between atoms: C5_5  and  C6_6 
REMARK    3  A    between atoms: C6_6  and  N1_7 
REMARK    4  A    between atoms: C11_12  and  C12_13 
REMARK    5  A    between atoms: C12_13  and  N2_14 
REMARK    6  A    between atoms: C12_13  and  C27_39 
REMARK       I    between atoms: N2_14  and  C13_16 
REMARK    7  A    between atoms: C13_16  and  C14_18 
REMARK    8  A    between atoms: C14_18  and  C15_19 
REMARK    9  A    between atoms: C15_19  and  C16_20 
REMARK   10  A    between atoms: C16_20  and  C17_21 
REMARK   11  A    between atoms: C17_21  and  C18_22 
REMARK   12  A    between atoms: C18_22  and  N3_23 
REMARK       I    between atoms: N3_23  and  C19_25 
REMARK       I    between atoms: C19_25  and  N5_29 
REMARK   13  A    between atoms: N5_29  and  C20_31 
REMARK   14  A    between atoms: C20_31  and  C21_32 
REMARK   15  A    between atoms: C21_32  and  N6_33 
REMARK   16  A    between atoms: N6_33  and  C23_35 
REMARK   17  A    between atoms: N6_33  and  C25_37 
ROOT
HETATM    1  C14 UNL     1       4.186  64.316  65.182  1.00  0.00     0.103 C 
ENDROOT
BRANCH   1   2
HETATM    2  C13 UNL     1       4.138  65.242  64.059  1.00  0.00     0.218 C 
HETATM    3  N2  UNL     1       3.835  66.595  64.117  1.00  0.00    -0.351 N 
ATOM      4  H2  UNL     1       3.619  67.004  65.026  1.00  0.00     0.163 HD
HETATM    5  O1  UNL     1       4.400  64.773  62.896  1.00  0.00    -0.274 OA
BRANCH   3   6
HETATM    6  C12 UNL     1       3.811  67.479  62.923  1.00  0.00     0.138 C 
BRANCH   6   7
HETATM    7  C11 UNL     1       2.501  68.062  62.729  1.00  0.00     0.035 A 
HETATM    8  N1  UNL     1       1.702  68.224  63.813  1.00  0.00    -0.347 N 
HETATM    9  C7  UNL     1       0.436  68.737  63.679  1.00  0.00     0.092 A 
HETATM   10  C8  UNL     1      -0.082  69.109  62.473  1.00  0.00     0.017 A 
HETATM   11  C9  UNL     1       0.723  68.950  61.374  1.00  0.00     0.003 A 
HETATM   12  C10 UNL     1       1.980  68.440  61.503  1.00  0.00     0.027 A 
BRANCH   8  13
HETATM   13  C6  UNL     1       2.083  67.954  65.187  1.00  0.00     0.222 C 
BRANCH  13  14
HETATM   14  C5  UNL     1       0.963  67.588  66.033  1.00  0.00    -0.082 C 
HETATM   15  C4  UNL     1       0.027  67.259  66.721  1.00  0.00    -0.077 C 
BRANCH  15  16
HETATM   16  C3  UNL     1      -1.093  66.848  67.514  1.00  0.00     0.060 C 
HETATM   17  C2  UNL     1      -2.319  67.312  67.360  1.00  0.00    -0.022 C 
HETATM   18  C1  UNL     1      -2.561  68.330  66.299  1.00  0.00     0.036 C 
ENDBRANCH  15  16
ENDBRANCH  13  14
ENDBRANCH   8  13
ENDBRANCH   6   7
BRANCH   6  19
HETATM   19  C27 UNL     1       5.000  68.353  63.148  1.00  0.00     0.006 C 
HETATM   20  C28 UNL     1       5.105  69.046  64.465  1.00  0.00     0.012 C 
HETATM   21  C29 UNL     1       5.342  69.280  61.998  1.00  0.00     0.012 C 
ENDBRANCH   6  19
ENDBRANCH   3   6
ENDBRANCH   1   2
BRANCH   1  22
HETATM   22  C15 UNL     1       3.590  64.766  66.461  1.00  0.00     0.009 C 
BRANCH  22  23
HETATM   23  C16 UNL     1       4.540  65.351  67.443  1.00  0.00     0.002 C 
BRANCH  23  24
HETATM   24  C17 UNL     1       4.172  66.768  67.830  1.00  0.00     0.020 C 
BRANCH  24  25
HETATM   25  C18 UNL     1       3.086  66.837  68.873  1.00  0.00     0.138 C 
BRANCH  25  26
HETATM   26  N3  UNL     1       3.411  65.867  69.908  1.00  0.00    -0.227 N 
HETATM   27  C19 UNL     1       2.493  64.846  70.276  1.00  0.00     0.667 C 
HETATM   28  N4  UNL     1       1.226  65.045  70.168  1.00  0.00    -0.235 N 
HETATM   29  N5  UNL     1       2.927  63.578  70.774  1.00  0.00    -0.225 N 
ATOM     30  H42 UNL     1       0.917  65.950  69.813  1.00  0.00     0.174 HD
ATOM     31  H41 UNL     1       0.568  64.313  70.433  1.00  0.00     0.174 HD
ATOM     32  H5  UNL     1       3.850  63.246  70.497  1.00  0.00     0.177 HD
ATOM     33  H3  UNL     1       4.315  65.920  70.377  1.00  0.00     0.177 HD
BRANCH  29  34
HETATM   34  C20 UNL     1       2.139  62.739  71.645  1.00  0.00     0.166 C 
BRANCH  34  35
HETATM   35  C21 UNL     1       2.104  61.316  71.263  1.00  0.00     0.257 C 
BRANCH  35  36
HETATM   36  N6  UNL     1       2.917  60.384  71.926  1.00  0.00    -0.070 N 
HETATM   37  C22 UNL     1       3.310  60.950  73.231  1.00  0.00     0.272 C 
BRANCH  36  38
HETATM   38  C23 UNL     1       2.106  59.209  72.314  1.00  0.00     0.232 C 
HETATM   39  C24 UNL     1       0.806  59.593  72.943  1.00  0.00     0.035 C 
ENDBRANCH  36  38
BRANCH  36  40
HETATM   40  C25 UNL     1       4.088  59.914  71.290  1.00  0.00     0.232 C 
HETATM   41  C26 UNL     1       5.280  60.822  71.324  1.00  0.00     0.035 C 
ENDBRANCH  36  40
ENDBRANCH  35  36
ENDBRANCH  34  35
ENDBRANCH  29  34
ENDBRANCH  25  26
ENDBRANCH  24  25
ENDBRANCH  23  24
ENDBRANCH  22  23
ENDBRANCH   1  22
TORSDOF 17
ENDMDL
MODEL 4
REMARK VINA RESULT: -8.734272755      2.339     10.114
REMARK  17 active torsions:
REMARK  status: ('A' for Active; 'I' for Inactive)
REMARK    1  A    between atoms: C3_3  and  C4_4 
REMARK    2  A    between atoms: C5_5  and  C6_6 
REMARK    3  A    between atoms: C6_6  and  N1_7 
REMARK    4  A    between atoms: C11_12  and  C12_13 
REMARK    5  A    between atoms: C12_13  and  N2_14 
REMARK    6  A    between atoms: C12_13  and  C27_39 
REMARK       I    between atoms: N2_14  and  C13_16 
REMARK    7  A    between atoms: C13_16  and  C14_18 
REMARK    8  A    between atoms: C14_18  and  C15_19 
REMARK    9  A    between atoms: C15_19  and  C16_20 
REMARK   10  A    between atoms: C16_20  and  C17_21 
REMARK   11  A    between atoms: C17_21  and  C18_22 
REMARK   12  A    between atoms: C18_22  and  N3_23 
REMARK       I    between atoms: N3_23  and  C19_25 
REMARK       I    between atoms: C19_25  and  N5_29 
REMARK   13  A    between atoms: N5_29  and  C20_31 
REMARK   14  A    between atoms: C20_31  and  C21_32 
REMARK   15  A    between atoms: C21_32  and  N6_33 
REMARK   16  A    between atoms: N6_33  and  C23_35 
REMARK   17  A    between atoms: N6_33  and  C25_37 
ROOT
HETATM    1  C14 UNL     1       4.079  64.397  65.499  1.00  0.00     0.103 C 
ENDROOT
BRANCH   1   2
HETATM    2  C13 UNL     1       4.061  65.271  64.335  1.00  0.00     0.218 C 
HETATM    3  N2  UNL     1       3.825  66.639  64.333  1.00  0.00    -0.351 N 
ATOM      4  H2  UNL     1       3.642  67.099  65.224  1.00  0.00     0.163 HD
HETATM    5  O1  UNL     1       4.283  64.737  63.192  1.00  0.00    -0.274 OA
BRANCH   3   6
HETATM    6  C12 UNL     1       3.827  67.467  63.100  1.00  0.00     0.138 C 
BRANCH   6   7
HETATM    7  C11 UNL     1       2.525  68.047  62.856  1.00  0.00     0.035 A 
HETATM    8  N1  UNL     1       1.693  68.229  63.911  1.00  0.00    -0.347 N 
HETATM    9  C7  UNL     1       0.433  68.741  63.730  1.00  0.00     0.092 A 
HETATM   10  C8  UNL     1      -0.048  69.091  62.503  1.00  0.00     0.017 A 
HETATM   11  C9  UNL     1       0.790  68.912  61.432  1.00  0.00     0.003 A 
HETATM   12  C10 UNL     1       2.042  68.403  61.607  1.00  0.00     0.027 A 
BRANCH   8  13
HETATM   13  C6  UNL     1       2.033  67.984  65.301  1.00  0.00     0.222 C 
BRANCH  13  14
HETATM   14  C5  UNL     1       0.902  67.549  66.101  1.00  0.00    -0.082 C 
HETATM   15  C4  UNL     1      -0.040  67.213  66.777  1.00  0.00    -0.077 C 
BRANCH  15  16
HETATM   16  C3  UNL     1      -1.154  66.843  67.598  1.00  0.00     0.060 C 
HETATM   17  C2  UNL     1      -2.378  67.311  67.438  1.00  0.00    -0.022 C 
HETATM   18  C1  UNL     1      -2.624  68.286  66.338  1.00  0.00     0.036 C 
ENDBRANCH  15  16
ENDBRANCH  13  14
ENDBRANCH   8  13
ENDBRANCH   6   7
BRANCH   6  19
HETATM   19  C27 UNL     1       5.017  68.344  63.305  1.00  0.00     0.006 C 
HETATM   20  C28 UNL     1       5.116  69.077  64.601  1.00  0.00     0.012 C 
HETATM   21  C29 UNL     1       5.370  69.234  62.129  1.00  0.00     0.012 C 
ENDBRANCH   6  19
ENDBRANCH   3   6
ENDBRANCH   1   2
BRANCH   1  22
HETATM   22  C15 UNL     1       3.805  65.013  66.817  1.00  0.00     0.009 C 
BRANCH  22  23
HETATM   23  C16 UNL     1       4.923  65.793  67.409  1.00  0.00     0.002 C 
BRANCH  23  24
HETATM   24  C17 UNL     1       5.380  65.232  68.739  1.00  0.00     0.020 C 
BRANCH  24  25
HETATM   25  C18 UNL     1       4.251  65.024  69.716  1.00  0.00     0.138 C 
BRANCH  25  26
HETATM   26  N3  UNL     1       4.387  63.682  70.262  1.00  0.00    -0.227 N 
HETATM   27  C19 UNL     1       3.498  62.639  69.886  1.00  0.00     0.667 C 
HETATM   28  N4  UNL     1       2.287  62.912  69.546  1.00  0.00    -0.235 N 
HETATM   29  N5  UNL     1       3.900  61.267  69.869  1.00  0.00    -0.225 N 
ATOM     30  H42 UNL     1       2.000  63.891  69.558  1.00  0.00     0.174 HD
ATOM     31  H41 UNL     1       1.649  62.164  69.277  1.00  0.00     0.174 HD
ATOM     32  H5  UNL     1       4.889  61.060  69.728  1.00  0.00     0.177 HD
ATOM     33  H3  UNL     1       5.136  63.487  70.927  1.00  0.00     0.177 HD
BRANCH  29  34
HETATM   34  C20 UNL     1       2.994  60.157  70.038  1.00  0.00     0.166 C 
BRANCH  34  35
HETATM   35  C21 UNL     1       2.307  60.116  71.341  1.00  0.00     0.257 C 
BRANCH  35  36
HETATM   36  N6  UNL     1       2.707  59.200  72.326  1.00  0.00    -0.070 N 
HETATM   37  C22 UNL     1       3.772  58.346  71.765  1.00  0.00     0.272 C 
BRANCH  36  38
HETATM   38  C23 UNL     1       3.405  59.918  73.414  1.00  0.00     0.232 C 
HETATM   39  C24 UNL     1       2.896  61.310  73.601  1.00  0.00     0.035 C 
ENDBRANCH  36  38
BRANCH  36  40
HETATM   40  C25 UNL     1       1.741  58.352  72.913  1.00  0.00     0.232 C 
HETATM   41  C26 UNL     1       1.865  56.887  72.618  1.00  0.00     0.035 C 
ENDBRANCH  36  40
ENDBRANCH  35  36
ENDBRANCH  34  35
ENDBRANCH  29  34
ENDBRANCH  25  26
ENDBRANCH  24  25
ENDBRANCH  23  24
ENDBRANCH  22  23
ENDBRANCH   1  22
TORSDOF 17
ENDMDL
MODEL 5
REMARK VINA RESULT: -8.669003084      1.903     10.025
REMARK  17 active torsions:
REMARK  status: ('A' for Active; 'I' for Inactive)
REMARK    1  A    between atoms: C3_3  and  C4_4 
REMARK    2  A    between atoms: C5_5  and  C6_6 
REMARK    3  A    between atoms: C6_6  and  N1_7 
REMARK    4  A    between atoms: C11_12  and  C12_13 
REMARK    5  A    between atoms: C12_13  and  N2_14 
REMARK    6  A    between atoms: C12_13  and  C27_39 
REMARK       I    between atoms: N2_14  and  C13_16 
REMARK    7  A    between atoms: C13_16  and  C14_18 
REMARK    8  A    between atoms: C14_18  and  C15_19 
REMARK    9  A    between atoms: C15_19  and  C16_20 
REMARK   10  A    between atoms: C16_20  and  C17_21 
REMARK   11  A    between atoms: C17_21  and  C18_22 
REMARK   12  A    between atoms: C18_22  and  N3_23 
REMARK       I    between atoms: N3_23  and  C19_25 
REMARK       I    between atoms: C19_25  and  N5_29 
REMARK   13  A    between atoms: N5_29  and  C20_31 
REMARK   14  A    between atoms: C20_31  and  C21_32 
REMARK   15  A    between atoms: C21_32  and  N6_33 
REMARK   16  A    between atoms: N6_33  and  C23_35 
REMARK   17  A    between atoms: N6_33  and  C25_37 
ROOT
HETATM    1  C14 UNL     1       3.106  62.460  69.937  1.00  0.00     0.103 C 
ENDROOT
BRANCH   1   2
HETATM    2  C13 UNL     1       3.215  63.375  68.811  1.00  0.00     0.218 C 
HETATM    3  N2  UNL     1       3.241  64.762  68.872  1.00  0.00    -0.351 N 
ATOM      4  H2  UNL     1       3.175  65.206  69.787  1.00  0.00     0.163 HD
HETATM    5  O1  UNL     1       3.297  62.863  67.639  1.00  0.00    -0.274 OA
BRANCH   3   6
HETATM    6  C12 UNL     1       3.358  65.631  67.673  1.00  0.00     0.138 C 
BRANCH   6   7
HETATM    7  C11 UNL     1       2.349  66.667  67.676  1.00  0.00     0.035 A 
HETATM    8  N1  UNL     1       1.750  66.985  66.502  1.00  0.00    -0.347 N 
HETATM    9  C7  UNL     1       0.813  67.986  66.440  1.00  0.00     0.092 A 
HETATM   10  C8  UNL     1       0.437  68.707  67.536  1.00  0.00     0.017 A 
HETATM   11  C9  UNL     1       1.038  68.388  68.727  1.00  0.00     0.003 A 
HETATM   12  C10 UNL     1       1.968  67.395  68.791  1.00  0.00     0.027 A 
BRANCH   8  13
HETATM   13  C6  UNL     1       1.958  66.300  65.239  1.00  0.00     0.222 C 
BRANCH  13  14
HETATM   14  C5  UNL     1       2.694  67.091  64.269  1.00  0.00    -0.082 C 
HETATM   15  C4  UNL     1       3.302  67.728  63.444  1.00  0.00    -0.077 C 
BRANCH  15  16
HETATM   16  C3  UNL     1       4.025  68.457  62.445  1.00  0.00     0.060 C 
HETATM   17  C2  UNL     1       5.145  69.117  62.676  1.00  0.00    -0.022 C 
HETATM   18  C1  UNL     1       5.697  69.108  64.060  1.00  0.00     0.036 C 
ENDBRANCH  15  16
ENDBRANCH  13  14
ENDBRANCH   8  13
ENDBRANCH   6   7
BRANCH   6  19
HETATM   19  C27 UNL     1       4.807  65.989  67.679  1.00  0.00     0.006 C 
HETATM   20  C28 UNL     1       5.512  66.028  66.365  1.00  0.00     0.012 C 
HETATM   21  C29 UNL     1       5.637  65.290  68.740  1.00  0.00     0.012 C 
ENDBRANCH   6  19
ENDBRANCH   3   6
ENDBRANCH   1   2
BRANCH   1  22
HETATM   22  C15 UNL     1       2.830  61.037  69.635  1.00  0.00     0.009 C 
BRANCH  22  23
HETATM   23  C16 UNL     1       3.958  60.098  69.872  1.00  0.00     0.002 C 
BRANCH  23  24
HETATM   24  C17 UNL     1       3.485  58.699  70.205  1.00  0.00     0.020 C 
BRANCH  24  25
HETATM   25  C18 UNL     1       3.786  58.291  71.625  1.00  0.00     0.138 C 
BRANCH  25  26
HETATM   26  N3  UNL     1       3.766  59.497  72.439  1.00  0.00    -0.227 N 
HETATM   27  C19 UNL     1       2.684  59.775  73.318  1.00  0.00     0.667 C 
HETATM   28  N4  UNL     1       1.502  59.345  73.046  1.00  0.00    -0.235 N 
HETATM   29  N5  UNL     1       2.857  60.531  74.520  1.00  0.00    -0.225 N 
ATOM     30  H42 UNL     1       1.380  58.805  72.189  1.00  0.00     0.174 HD
ATOM     31  H41 UNL     1       0.726  59.545  73.676  1.00  0.00     0.174 HD
ATOM     32  H5  UNL     1       3.777  60.528  74.959  1.00  0.00     0.177 HD
ATOM     33  H3  UNL     1       4.544  60.154  72.379  1.00  0.00     0.177 HD
BRANCH  29  34
HETATM   34  C20 UNL     1       1.809  61.298  75.149  1.00  0.00     0.166 C 
BRANCH  34  35
HETATM   35  C21 UNL     1       1.511  62.585  74.497  1.00  0.00     0.257 C 
BRANCH  35  36
HETATM   36  N6  UNL     1       0.238  62.832  73.962  1.00  0.00    -0.070 N 
HETATM   37  C22 UNL     1      -0.107  64.246  74.208  1.00  0.00     0.272 C 
BRANCH  36  38
HETATM   38  C23 UNL     1       0.300  62.765  72.486  1.00  0.00     0.232 C 
HETATM   39  C24 UNL     1       0.300  64.118  71.851  1.00  0.00     0.035 C 
ENDBRANCH  36  38
BRANCH  36  40
HETATM   40  C25 UNL     1      -0.855  62.043  74.388  1.00  0.00     0.232 C 
HETATM   41  C26 UNL     1      -1.590  61.285  73.324  1.00  0.00     0.035 C 
ENDBRANCH  36  40
ENDBRANCH  35  36
ENDBRANCH  34  35
ENDBRANCH  29  34
ENDBRANCH  25  26
ENDBRANCH  24  25
ENDBRANCH  23  24
ENDBRANCH  22  23
ENDBRANCH   1  22
TORSDOF 17
ENDMDL
