MODEL 1
REMARK VINA RESULT: -9.553640488      0.000      0.000
REMARK  16 active torsions:
REMARK  status: ('A' for Active; 'I' for Inactive)
REMARK    1  A    between atoms: C2_2  and  C3_3 
REMARK    2  A    between atoms: C3_3  and  C4_4 
REMARK    3  A    between atoms: C4_4  and  N1_6 
REMARK    4  A    between atoms: N1_6  and  C11_19 
REMARK    5  A    between atoms: C6_7  and  C7_8 
REMARK    6  A    between atoms: C7_8  and  C8_9 
REMARK    7  A    between atoms: C10_11  and  N2_12 
REMARK    8  A    between atoms: C11_19  and  C12_20 
REMARK    9  A    between atoms: C12_20  and  C13_21 
REMARK   10  A    between atoms: C13_21  and  C14_22 
REMARK   11  A    between atoms: C13_21  and  C21_33 
REMARK   12  A    between atoms: C14_22  and  N5_23 
REMARK       I    between atoms: N5_23  and  C15_25 
REMARK   13  A    between atoms: C15_25  and  C16_27 
REMARK   14  A    between atoms: C16_27  and  N6_28 
REMARK   15  A    between atoms: N6_28  and  C19_31 
REMARK   16  A    between atoms: C21_33  and  C22_34 
ROOT
HETATM    1  C13 UNL     1       3.642  65.740  69.156  1.00  0.00     0.009 C 
ENDROOT
BRANCH   1   2
HETATM    2  C12 UNL     1       4.223  64.894  70.333  1.00  0.00     0.027 C 
BRANCH   2   3
HETATM    3  C11 UNL     1       4.613  63.536  69.914  1.00  0.00     0.128 C 
BRANCH   3   4
HETATM    4  N1  UNL     1       3.949  62.451  70.621  1.00  0.00    -0.367 N 
HETATM    5  C6  UNL     1       4.721  61.748  71.455  1.00  0.00     0.069 C 
BRANCH   4   6
HETATM    6  C4  UNL     1       2.845  62.014  69.880  1.00  0.00    -0.016 C 
HETATM    7  C5  UNL     1       2.933  62.152  68.399  1.00  0.00     0.063 C 
BRANCH   6   8
HETATM    8  C3  UNL     1       1.484  62.298  70.421  1.00  0.00     0.052 C 
BRANCH   8   9
HETATM    9  C2  UNL     1       1.282  63.258  71.503  1.00  0.00     0.001 C 
HETATM   10  C1  UNL     1       0.440  64.459  71.189  1.00  0.00     0.005 C 
ENDBRANCH   8   9
ENDBRANCH   6   8
ENDBRANCH   4   6
BRANCH   5  11
HETATM   11  C7  UNL     1       4.163  61.209  72.755  1.00  0.00     0.103 C 
BRANCH  11  12
HETATM   12  C8  UNL     1       3.840  59.764  72.480  1.00  0.00     0.034 A 
HETATM   13  C9  UNL     1       4.050  59.020  71.346  1.00  0.00     0.076 A 
HETATM   14  C10 UNL     1       3.589  57.726  71.551  1.00  0.00     0.115 A 
HETATM   15  N3  UNL     1       3.108  57.717  72.806  1.00  0.00    -0.286 N 
HETATM   16  N4  UNL     1       3.250  58.906  73.362  1.00  0.00    -0.303 N 
ATOM     17  H3  UNL     1       2.692  56.906  73.264  1.00  0.00     0.188 HD
ATOM     18  H4  UNL     1       2.961  59.147  74.310  1.00  0.00     0.186 HD
BRANCH  14  19
HETATM   19  N2  UNL     1       3.621  56.745  70.699  1.00  0.00    -0.384 N 
ATOM     20  H22 UNL     1       4.381  56.086  70.528  1.00  0.00     0.157 HD
ATOM     21  H21 UNL     1       2.879  56.471  70.055  1.00  0.00     0.157 HD
ENDBRANCH  14  19
ENDBRANCH  11  12
ENDBRANCH   5  11
ENDBRANCH   3   4
ENDBRANCH   2   3
ENDBRANCH   1   2
BRANCH   1  22
HETATM   22  C14 UNL     1       2.962  66.895  69.801  1.00  0.00     0.127 C 
BRANCH  22  23
HETATM   23  N5  UNL     1       1.681  67.282  69.309  1.00  0.00    -0.359 N 
HETATM   24  C15 UNL     1       1.488  68.400  68.459  1.00  0.00     0.243 C 
HETATM   25  O1  UNL     1       2.480  69.075  68.124  1.00  0.00    -0.272 OA
ATOM     26  H5  UNL     1       0.868  66.730  69.581  1.00  0.00     0.162 HD
BRANCH  24  27
HETATM   27  C16 UNL     1       0.148  68.751  67.985  1.00  0.00     0.338 C 
BRANCH  27  28
HETATM   28  N6  UNL     1      -0.389  67.813  67.020  1.00  0.00    -0.067 N 
HETATM   29  C17 UNL     1       0.627  67.219  66.176  1.00  0.00     0.272 C 
HETATM   30  C18 UNL     1      -1.302  68.539  66.165  1.00  0.00     0.272 C 
BRANCH  28  31
HETATM   31  C19 UNL     1      -1.051  66.776  67.779  1.00  0.00     0.232 C 
HETATM   32  C20 UNL     1      -2.537  66.832  67.713  1.00  0.00     0.035 C 
ENDBRANCH  28  31
ENDBRANCH  27  28
ENDBRANCH  24  27
ENDBRANCH  22  23
ENDBRANCH   1  22
BRANCH   1  33
HETATM   33  C21 UNL     1       4.759  66.065  68.242  1.00  0.00     0.045 C 
BRANCH  33  34
HETATM   34  C22 UNL     1       4.519  66.108  66.792  1.00  0.00    -0.057 A 
HETATM   35  C23 UNL     1       4.462  64.941  66.034  1.00  0.00     0.013 A 
HETATM   36  C24 UNL     1       4.298  64.936  64.668  1.00  0.00    -0.061 A 
HETATM   37  C25 UNL     1       4.244  63.634  63.921  1.00  0.00     0.048 C 
HETATM   38  C26 UNL     1       4.188  66.147  64.046  1.00  0.00     0.013 A 
HETATM   39  C27 UNL     1       4.237  67.352  64.733  1.00  0.00    -0.061 A 
HETATM   40  C28 UNL     1       4.114  68.646  63.998  1.00  0.00     0.048 C 
HETATM   41  C29 UNL     1       4.402  67.330  66.100  1.00  0.00     0.013 A 
ENDBRANCH  33  34
ENDBRANCH   1  33
TORSDOF 16
ENDMDL
MODEL 2
REMARK VINA RESULT: -9.484473032      1.198      1.711
REMARK  16 active torsions:
REMARK  status: ('A' for Active; 'I' for Inactive)
REMARK    1  A    between atoms: C2_2  and  C3_3 
REMARK    2  A    between atoms: C3_3  and  C4_4 
REMARK    3  A    between atoms: C4_4  and  N1_6 
REMARK    4  A    between atoms: N1_6  and  C11_19 
REMARK    5  A    between atoms: C6_7  and  C7_8 
REMARK    6  A    between atoms: C7_8  and  C8_9 
REMARK    7  A    between atoms: C10_11  and  N2_12 
REMARK    8  A    between atoms: C11_19  and  C12_20 
REMARK    9  A    between atoms: C12_20  and  C13_21 
REMARK   10  A    between atoms: C13_21  and  C14_22 
REMARK   11  A    between atoms: C13_21  and  C21_33 
REMARK   12  A    between atoms: C14_22  and  N5_23 
REMARK       I    between atoms: N5_23  and  C15_25 
REMARK   13  A    between atoms: C15_25  and  C16_27 
REMARK   14  A    between atoms: C16_27  and  N6_28 
REMARK   15  A    between atoms: N6_28  and  C19_31 
REMARK   16  A    between atoms: C21_33  and  C22_34 
ROOT
HETATM    1  C13 UNL     1       3.263  65.998  68.876  1.00  0.00     0.009 C 
ENDROOT
BRANCH   1   2
HETATM    2  C12 UNL     1       3.716  64.978  69.969  1.00  0.00     0.027 C 
BRANCH   2   3
HETATM    3  C11 UNL     1       2.576  64.331  70.645  1.00  0.00     0.128 C 
BRANCH   3   4
HETATM    4  N1  UNL     1       2.777  62.937  71.008  1.00  0.00    -0.367 N 
HETATM    5  C6  UNL     1       3.939  62.401  70.621  1.00  0.00     0.069 C 
BRANCH   4   6
HETATM    6  C4  UNL     1       1.537  62.308  71.161  1.00  0.00    -0.016 C 
HETATM    7  C5  UNL     1       0.348  63.028  70.626  1.00  0.00     0.063 C 
BRANCH   6   8
HETATM    8  C3  UNL     1       1.269  61.594  72.444  1.00  0.00     0.052 C 
BRANCH   8   9
HETATM    9  C2  UNL     1       0.310  60.494  72.515  1.00  0.00     0.001 C 
HETATM   10  C1  UNL     1       0.754  59.262  73.247  1.00  0.00     0.005 C 
ENDBRANCH   8   9
ENDBRANCH   6   8
ENDBRANCH   4   6
BRANCH   5  11
HETATM   11  C7  UNL     1       4.651  61.386  71.490  1.00  0.00     0.103 C 
BRANCH  11  12
HETATM   12  C8  UNL     1       4.169  60.043  71.009  1.00  0.00     0.034 A 
HETATM   13  C9  UNL     1       4.079  58.851  71.682  1.00  0.00     0.076 A 
HETATM   14  C10 UNL     1       3.576  57.876  70.832  1.00  0.00     0.115 A 
HETATM   15  N3  UNL     1       3.375  58.501  69.659  1.00  0.00    -0.286 N 
HETATM   16  N4  UNL     1       3.718  59.772  69.749  1.00  0.00    -0.303 N 
ATOM     17  H3  UNL     1       3.008  58.056  68.817  1.00  0.00     0.188 HD
ATOM     18  H4  UNL     1       3.655  60.451  68.991  1.00  0.00     0.186 HD
BRANCH  14  19
HETATM   19  N2  UNL     1       3.355  56.629  71.122  1.00  0.00    -0.384 N 
ATOM     20  H22 UNL     1       2.460  56.140  71.156  1.00  0.00     0.157 HD
ATOM     21  H21 UNL     1       4.053  55.926  71.368  1.00  0.00     0.157 HD
ENDBRANCH  14  19
ENDBRANCH  11  12
ENDBRANCH   5  11
ENDBRANCH   3   4
ENDBRANCH   2   3
ENDBRANCH   1   2
BRANCH   1  22
HETATM   22  C14 UNL     1       2.562  67.080  69.615  1.00  0.00     0.127 C 
BRANCH  22  23
HETATM   23  N5  UNL     1       1.284  67.500  69.141  1.00  0.00    -0.359 N 
HETATM   24  C15 UNL     1       1.115  68.573  68.229  1.00  0.00     0.243 C 
HETATM   25  O1  UNL     1       2.125  69.176  67.822  1.00  0.00    -0.272 OA
ATOM     26  H5  UNL     1       0.455  67.006  69.472  1.00  0.00     0.162 HD
BRANCH  24  27
HETATM   27  C16 UNL     1      -0.223  68.960  67.777  1.00  0.00     0.338 C 
BRANCH  27  28
HETATM   28  N6  UNL     1      -0.755  68.101  66.739  1.00  0.00    -0.067 N 
HETATM   29  C17 UNL     1       0.133  67.961  65.603  1.00  0.00     0.272 C 
HETATM   30  C18 UNL     1      -1.984  68.697  66.265  1.00  0.00     0.272 C 
BRANCH  28  31
HETATM   31  C19 UNL     1      -0.967  66.806  67.346  1.00  0.00     0.232 C 
HETATM   32  C20 UNL     1      -2.284  66.663  68.025  1.00  0.00     0.035 C 
ENDBRANCH  28  31
ENDBRANCH  27  28
ENDBRANCH  24  27
ENDBRANCH  22  23
ENDBRANCH   1  22
BRANCH   1  33
HETATM   33  C21 UNL     1       4.465  66.398  68.111  1.00  0.00     0.045 C 
BRANCH  33  34
HETATM   34  C22 UNL     1       4.426  66.386  66.641  1.00  0.00    -0.057 A 
HETATM   35  C23 UNL     1       4.414  65.189  65.930  1.00  0.00     0.013 A 
HETATM   36  C24 UNL     1       4.437  65.128  64.555  1.00  0.00    -0.061 A 
HETATM   37  C25 UNL     1       4.421  63.797  63.860  1.00  0.00     0.048 C 
HETATM   38  C26 UNL     1       4.471  66.313  63.876  1.00  0.00     0.013 A 
HETATM   39  C27 UNL     1       4.485  67.545  64.516  1.00  0.00    -0.061 A 
HETATM   40  C28 UNL     1       4.526  68.809  63.720  1.00  0.00     0.048 C 
HETATM   41  C29 UNL     1       4.463  67.579  65.893  1.00  0.00     0.013 A 
ENDBRANCH  33  34
ENDBRANCH   1  33
TORSDOF 16
ENDMDL
MODEL 3
REMARK VINA RESULT: -9.423039223      1.200      2.220
REMARK  16 active torsions:
REMARK  status: ('A' for Active; 'I' for Inactive)
REMARK    1  A    between atoms: C2_2  and  C3_3 
REMARK    2  A    between atoms: C3_3  and  C4_4 
REMARK    3  A    between atoms: C4_4  and  N1_6 
REMARK    4  A    between atoms: N1_6  and  C11_19 
REMARK    5  A    between atoms: C6_7  and  C7_8 
REMARK    6  A    between atoms: C7_8  and  C8_9 
REMARK    7  A    between atoms: C10_11  and  N2_12 
REMARK    8  A    between atoms: C11_19  and  C12_20 
REMARK    9  A    between atoms: C12_20  and  C13_21 
REMARK   10  A    between atoms: C13_21  and  C14_22 
REMARK   11  A    between atoms: C13_21  and  C21_33 
REMARK   12  A    between atoms: C14_22  and  N5_23 
REMARK       I    between atoms: N5_23  and  C15_25 
REMARK   13  A    between atoms: C15_25  and  C16_27 
REMARK   14  A    between atoms: C16_27  and  N6_28 
REMARK   15  A    between atoms: N6_28  and  C19_31 
REMARK   16  A    between atoms: C21_33  and  C22_34 
ROOT
HETATM    1  C13 UNL     1       3.270  65.991  68.936  1.00  0.00     0.009 C 
ENDROOT
BRANCH   1   2
HETATM    2  C12 UNL     1       3.674  64.971  70.049  1.00  0.00     0.027 C 
BRANCH   2   3
HETATM    3  C11 UNL     1       2.508  64.293  70.643  1.00  0.00     0.128 C 
BRANCH   3   4
HETATM    4  N1  UNL     1       2.721  62.904  71.021  1.00  0.00    -0.367 N 
HETATM    5  C6  UNL     1       3.869  62.362  70.602  1.00  0.00     0.069 C 
BRANCH   4   6
HETATM    6  C4  UNL     1       1.486  62.278  71.225  1.00  0.00    -0.016 C 
HETATM    7  C5  UNL     1       0.299  62.910  70.586  1.00  0.00     0.063 C 
BRANCH   6   8
HETATM    8  C3  UNL     1       1.203  61.718  72.579  1.00  0.00     0.052 C 
BRANCH   8   9
HETATM    9  C2  UNL     1       0.189  60.687  72.777  1.00  0.00     0.001 C 
HETATM   10  C1  UNL     1       0.684  59.317  73.139  1.00  0.00     0.005 C 
ENDBRANCH   8   9
ENDBRANCH   6   8
ENDBRANCH   4   6
BRANCH   5  11
HETATM   11  C7  UNL     1       4.610  61.360  71.462  1.00  0.00     0.103 C 
BRANCH  11  12
HETATM   12  C8  UNL     1       4.140  60.009  70.992  1.00  0.00     0.034 A 
HETATM   13  C9  UNL     1       4.061  58.821  71.675  1.00  0.00     0.076 A 
HETATM   14  C10 UNL     1       3.567  57.835  70.833  1.00  0.00     0.115 A 
HETATM   15  N3  UNL     1       3.358  58.448  69.655  1.00  0.00    -0.286 N 
HETATM   16  N4  UNL     1       3.690  59.723  69.735  1.00  0.00    -0.303 N 
ATOM     17  H3  UNL     1       2.995  57.993  68.818  1.00  0.00     0.188 HD
ATOM     18  H4  UNL     1       3.620  60.395  68.972  1.00  0.00     0.186 HD
BRANCH  14  19
HETATM   19  N2  UNL     1       3.357  56.588  71.134  1.00  0.00    -0.384 N 
ATOM     20  H22 UNL     1       2.484  56.064  71.070  1.00  0.00     0.157 HD
ATOM     21  H21 UNL     1       4.043  55.921  71.488  1.00  0.00     0.157 HD
ENDBRANCH  14  19
ENDBRANCH  11  12
ENDBRANCH   5  11
ENDBRANCH   3   4
ENDBRANCH   2   3
ENDBRANCH   1   2
BRANCH   1  22
HETATM   22  C14 UNL     1       2.583  67.099  69.651  1.00  0.00     0.127 C 
BRANCH  22  23
HETATM   23  N5  UNL     1       1.303  67.514  69.177  1.00  0.00    -0.359 N 
HETATM   24  C15 UNL     1       1.133  68.556  68.231  1.00  0.00     0.243 C 
HETATM   25  O1  UNL     1       2.143  69.135  67.790  1.00  0.00    -0.272 OA
ATOM     26  H5  UNL     1       0.475  67.040  69.535  1.00  0.00     0.162 HD
BRANCH  24  27
HETATM   27  C16 UNL     1      -0.206  68.940  67.782  1.00  0.00     0.338 C 
BRANCH  27  28
HETATM   28  N6  UNL     1      -0.735  68.085  66.739  1.00  0.00    -0.067 N 
HETATM   29  C17 UNL     1       0.168  67.928  65.617  1.00  0.00     0.272 C 
HETATM   30  C18 UNL     1      -1.948  68.696  66.243  1.00  0.00     0.272 C 
BRANCH  28  31
HETATM   31  C19 UNL     1      -0.975  66.795  67.347  1.00  0.00     0.232 C 
HETATM   32  C20 UNL     1      -2.304  66.675  68.007  1.00  0.00     0.035 C 
ENDBRANCH  28  31
ENDBRANCH  27  28
ENDBRANCH  24  27
ENDBRANCH  22  23
ENDBRANCH   1  22
BRANCH   1  33
HETATM   33  C21 UNL     1       4.496  66.351  68.190  1.00  0.00     0.045 C 
BRANCH  33  34
HETATM   34  C22 UNL     1       4.490  66.307  66.721  1.00  0.00    -0.057 A 
HETATM   35  C23 UNL     1       4.481  67.476  65.964  1.00  0.00     0.013 A 
HETATM   36  C24 UNL     1       4.417  67.485  64.589  1.00  0.00    -0.061 A 
HETATM   37  C25 UNL     1       4.413  68.788  63.843  1.00  0.00     0.048 C 
HETATM   38  C26 UNL     1       4.359  66.274  63.958  1.00  0.00     0.013 A 
HETATM   39  C27 UNL     1       4.363  65.068  64.644  1.00  0.00    -0.061 A 
HETATM   40  C28 UNL     1       4.295  63.775  63.899  1.00  0.00     0.048 C 
HETATM   41  C29 UNL     1       4.428  65.087  66.020  1.00  0.00     0.013 A 
ENDBRANCH  33  34
ENDBRANCH   1  33
TORSDOF 16
ENDMDL
MODEL 4
REMARK VINA RESULT: -9.410532243      1.989      4.037
REMARK  16 active torsions:
REMARK  status: ('A' for Active; 'I' for Inactive)
REMARK    1  A    between atoms: C2_2  and  C3_3 
REMARK    2  A    between atoms: C3_3  and  C4_4 
REMARK    3  A    between atoms: C4_4  and  N1_6 
REMARK    4  A    between atoms: N1_6  and  C11_19 
REMARK    5  A    between atoms: C6_7  and  C7_8 
REMARK    6  A    between atoms: C7_8  and  C8_9 
REMARK    7  A    between atoms: C10_11  and  N2_12 
REMARK    8  A    between atoms: C11_19  and  C12_20 
REMARK    9  A    between atoms: C12_20  and  C13_21 
REMARK   10  A    between atoms: C13_21  and  C14_22 
REMARK   11  A    between atoms: C13_21  and  C21_33 
REMARK   12  A    between atoms: C14_22  and  N5_23 
REMARK       I    between atoms: N5_23  and  C15_25 
REMARK   13  A    between atoms: C15_25  and  C16_27 
REMARK   14  A    between atoms: C16_27  and  N6_28 
REMARK   15  A    between atoms: N6_28  and  C19_31 
REMARK   16  A    between atoms: C21_33  and  C22_34 
ROOT
HETATM    1  C13 UNL     1       4.249  65.223  69.530  1.00  0.00     0.009 C 
ENDROOT
BRANCH   1   2
HETATM    2  C12 UNL     1       4.719  63.853  70.114  1.00  0.00     0.027 C 
BRANCH   2   3
HETATM    3  C11 UNL     1       3.801  62.750  69.776  1.00  0.00     0.128 C 
BRANCH   3   4
HETATM    4  N1  UNL     1       3.639  61.736  70.806  1.00  0.00    -0.367 N 
HETATM    5  C6  UNL     1       4.058  60.509  70.480  1.00  0.00     0.069 C 
BRANCH   4   6
HETATM    6  C4  UNL     1       2.593  62.100  71.663  1.00  0.00    -0.016 C 
HETATM    7  C5  UNL     1       2.792  61.838  73.115  1.00  0.00     0.063 C 
BRANCH   6   8
HETATM    8  C3  UNL     1       1.195  61.852  71.202  1.00  0.00     0.052 C 
BRANCH   8   9
HETATM    9  C2  UNL     1       0.287  62.956  70.904  1.00  0.00     0.001 C 
HETATM   10  C1  UNL     1       0.154  64.020  71.953  1.00  0.00     0.005 C 
ENDBRANCH   8   9
ENDBRANCH   6   8
ENDBRANCH   4   6
BRANCH   5  11
HETATM   11  C7  UNL     1       4.701  59.611  71.516  1.00  0.00     0.103 C 
BRANCH  11  12
HETATM   12  C8  UNL     1       3.754  58.452  71.678  1.00  0.00     0.034 A 
HETATM   13  C9  UNL     1       2.793  58.231  72.633  1.00  0.00     0.076 A 
HETATM   14  C10 UNL     1       2.161  57.021  72.383  1.00  0.00     0.115 A 
HETATM   15  N3  UNL     1       2.755  56.534  71.281  1.00  0.00    -0.286 N 
HETATM   16  N4  UNL     1       3.691  57.363  70.857  1.00  0.00    -0.303 N 
ATOM     17  H3  UNL     1       2.518  55.648  70.834  1.00  0.00     0.188 HD
ATOM     18  H4  UNL     1       4.279  57.213  70.038  1.00  0.00     0.186 HD
BRANCH  14  19
HETATM   19  N2  UNL     1       1.201  56.487  73.077  1.00  0.00    -0.384 N 
ATOM     20  H22 UNL     1       0.590  56.939  73.758  1.00  0.00     0.157 HD
ATOM     21  H21 UNL     1       0.898  55.513  73.052  1.00  0.00     0.157 HD
ENDBRANCH  14  19
ENDBRANCH  11  12
ENDBRANCH   5  11
ENDBRANCH   3   4
ENDBRANCH   2   3
ENDBRANCH   1   2
BRANCH   1  22
HETATM   22  C14 UNL     1       4.294  65.056  68.053  1.00  0.00     0.127 C 
BRANCH  22  23
HETATM   23  N5  UNL     1       4.841  66.116  67.272  1.00  0.00    -0.359 N 
HETATM   24  C15 UNL     1       4.920  66.069  65.858  1.00  0.00     0.243 C 
HETATM   25  O1  UNL     1       4.493  65.059  65.268  1.00  0.00    -0.272 OA
ATOM     26  H5  UNL     1       5.190  66.945  67.753  1.00  0.00     0.162 HD
BRANCH  24  27
HETATM   27  C16 UNL     1       5.494  67.188  65.108  1.00  0.00     0.338 C 
BRANCH  27  28
HETATM   28  N6  UNL     1       4.505  67.986  64.412  1.00  0.00    -0.067 N 
HETATM   29  C17 UNL     1       3.825  67.261  63.359  1.00  0.00     0.272 C 
HETATM   30  C18 UNL     1       5.193  69.104  63.804  1.00  0.00     0.272 C 
BRANCH  28  31
HETATM   31  C19 UNL     1       3.543  68.406  65.407  1.00  0.00     0.232 C 
HETATM   32  C20 UNL     1       2.133  68.074  65.063  1.00  0.00     0.035 C 
ENDBRANCH  28  31
ENDBRANCH  27  28
ENDBRANCH  24  27
ENDBRANCH  22  23
ENDBRANCH   1  22
BRANCH   1  33
HETATM   33  C21 UNL     1       2.925  65.531  70.116  1.00  0.00     0.045 C 
BRANCH  33  34
HETATM   34  C22 UNL     1       2.092  66.581  69.511  1.00  0.00    -0.057 A 
HETATM   35  C23 UNL     1       0.832  66.294  68.994  1.00  0.00     0.013 A 
HETATM   36  C24 UNL     1       0.042  67.230  68.367  1.00  0.00    -0.061 A 
HETATM   37  C25 UNL     1      -1.308  66.842  67.835  1.00  0.00     0.048 C 
HETATM   38  C26 UNL     1       0.540  68.498  68.260  1.00  0.00     0.013 A 
HETATM   39  C27 UNL     1       1.786  68.860  68.751  1.00  0.00    -0.061 A 
HETATM   40  C28 UNL     1       2.279  70.262  68.602  1.00  0.00     0.048 C 
HETATM   41  C29 UNL     1       2.558  67.903  69.373  1.00  0.00     0.013 A 
ENDBRANCH  33  34
ENDBRANCH   1  33
TORSDOF 16
ENDMDL
MODEL 5
REMARK VINA RESULT: -9.396049517      1.170      1.851
REMARK  16 active torsions:
REMARK  status: ('A' for Active; 'I' for Inactive)
REMARK    1  A    between atoms: C2_2  and  C3_3 
REMARK    2  A    between atoms: C3_3  and  C4_4 
REMARK    3  A    between atoms: C4_4  and  N1_6 
REMARK    4  A    between atoms: N1_6  and  C11_19 
REMARK    5  A    between atoms: C6_7  and  C7_8 
REMARK    6  A    between atoms: C7_8  and  C8_9 
REMARK    7  A    between atoms: C10_11  and  N2_12 
REMARK    8  A    between atoms: C11_19  and  C12_20 
REMARK    9  A    between atoms: C12_20  and  C13_21 
REMARK   10  A    between atoms: C13_21  and  C14_22 
REMARK   11  A    between atoms: C13_21  and  C21_33 
REMARK   12  A    between atoms: C14_22  and  N5_23 
REMARK       I    between atoms: N5_23  and  C15_25 
REMARK   13  A    between atoms: C15_25  and  C16_27 
REMARK   14  A    between atoms: C16_27  and  N6_28 
REMARK   15  A    between atoms: N6_28  and  C19_31 
REMARK   16  A    between atoms: C21_33  and  C22_34 
ROOT
HETATM    1  C13 UNL     1       3.235  65.788  69.063  1.00  0.00     0.009 C 
ENDROOT
BRANCH   1   2
HETATM    2  C12 UNL     1       3.616  64.757  70.173  1.00  0.00     0.027 C 
BRANCH   2   3
HETATM    3  C11 UNL     1       2.449  64.007  70.672  1.00  0.00     0.128 C 
BRANCH   3   4
HETATM    4  N1  UNL     1       2.759  62.824  71.460  1.00  0.00    -0.367 N 
HETATM    5  C6  UNL     1       3.687  62.013  70.942  1.00  0.00     0.069 C 
BRANCH   4   6
HETATM    6  C4  UNL     1       1.660  62.491  72.260  1.00  0.00    -0.016 C 
HETATM    7  C5  UNL     1       1.847  62.592  73.734  1.00  0.00     0.063 C 
BRANCH   6   8
HETATM    8  C3  UNL     1       0.823  61.327  71.847  1.00  0.00     0.052 C 
BRANCH   8   9
HETATM    9  C2  UNL     1       0.235  60.426  72.835  1.00  0.00     0.001 C 
HETATM   10  C1  UNL     1      -1.135  60.779  73.336  1.00  0.00     0.005 C 
ENDBRANCH   8   9
ENDBRANCH   6   8
ENDBRANCH   4   6
BRANCH   5  11
HETATM   11  C7  UNL     1       4.663  61.283  71.840  1.00  0.00     0.103 C 
BRANCH  11  12
HETATM   12  C8  UNL     1       4.176  59.858  71.880  1.00  0.00     0.034 A 
HETATM   13  C9  UNL     1       4.081  58.935  70.869  1.00  0.00     0.076 A 
HETATM   14  C10 UNL     1       3.573  57.746  71.375  1.00  0.00     0.115 A 
HETATM   15  N3  UNL     1       3.371  57.977  72.683  1.00  0.00    -0.286 N 
HETATM   16  N4  UNL     1       3.721  59.211  72.993  1.00  0.00    -0.303 N 
ATOM     17  H3  UNL     1       2.999  57.295  73.344  1.00  0.00     0.188 HD
ATOM     18  H4  UNL     1       3.660  59.621  73.924  1.00  0.00     0.186 HD
BRANCH  14  19
HETATM   19  N2  UNL     1       3.347  56.652  70.711  1.00  0.00    -0.384 N 
ATOM     20  H22 UNL     1       3.319  56.525  69.699  1.00  0.00     0.157 HD
ATOM     21  H21 UNL     1       3.158  55.729  71.101  1.00  0.00     0.157 HD
ENDBRANCH  14  19
ENDBRANCH  11  12
ENDBRANCH   5  11
ENDBRANCH   3   4
ENDBRANCH   2   3
ENDBRANCH   1   2
BRANCH   1  22
HETATM   22  C14 UNL     1       2.558  66.902  69.779  1.00  0.00     0.127 C 
BRANCH  22  23
HETATM   23  N5  UNL     1       1.309  67.368  69.271  1.00  0.00    -0.359 N 
HETATM   24  C15 UNL     1       1.191  68.525  68.460  1.00  0.00     0.243 C 
HETATM   25  O1  UNL     1       2.222  69.164  68.177  1.00  0.00    -0.272 OA
ATOM     26  H5  UNL     1       0.464  66.845  69.501  1.00  0.00     0.162 HD
BRANCH  24  27
HETATM   27  C16 UNL     1      -0.118  68.957  67.968  1.00  0.00     0.338 C 
BRANCH  27  28
HETATM   28  N6  UNL     1      -0.658  68.100  66.932  1.00  0.00    -0.067 N 
HETATM   29  C17 UNL     1      -1.942  68.548  66.434  1.00  0.00     0.272 C 
HETATM   30  C18 UNL     1      -0.843  66.784  67.504  1.00  0.00     0.272 C 
BRANCH  28  31
HETATM   31  C19 UNL     1       0.304  68.103  65.853  1.00  0.00     0.232 C 
HETATM   32  C20 UNL     1       0.938  66.779  65.603  1.00  0.00     0.035 C 
ENDBRANCH  28  31
ENDBRANCH  27  28
ENDBRANCH  24  27
ENDBRANCH  22  23
ENDBRANCH   1  22
BRANCH   1  33
HETATM   33  C21 UNL     1       4.472  66.137  68.330  1.00  0.00     0.045 C 
BRANCH  33  34
HETATM   34  C22 UNL     1       4.441  66.239  66.864  1.00  0.00    -0.057 A 
HETATM   35  C23 UNL     1       4.443  65.101  66.061  1.00  0.00     0.013 A 
HETATM   36  C24 UNL     1       4.473  65.148  64.686  1.00  0.00    -0.061 A 
HETATM   37  C25 UNL     1       4.472  63.875  63.888  1.00  0.00     0.048 C 
HETATM   38  C26 UNL     1       4.501  66.383  64.102  1.00  0.00     0.013 A 
HETATM   39  C27 UNL     1       4.502  67.560  64.835  1.00  0.00    -0.061 A 
HETATM   40  C28 UNL     1       4.537  68.883  64.141  1.00  0.00     0.048 C 
HETATM   41  C29 UNL     1       4.472  67.486  66.211  1.00  0.00     0.013 A 
ENDBRANCH  33  34
ENDBRANCH   1  33
TORSDOF 16
ENDMDL
