MODEL 1
REMARK VINA RESULT: -6.468220934      0.000      0.000
REMARK  6 active torsions:
REMARK  status: ('A' for Active; 'I' for Inactive)
REMARK    1  A    between atoms: C1_2  and  C2_3 
REMARK    2  A    between atoms: C1_2  and  N2_10 
REMARK    3  A    between atoms: C2_3  and  C3_4 
REMARK    4  A    between atoms: C3_4  and  C4_5 
REMARK    5  A    between atoms: C4_5  and  N1_6 
REMARK    6  A    between atoms: N2_10  and  C7_12 
ROOT
HETATM    1  S1  UNL     1       2.611  12.653  23.770  1.00  0.00    -0.066 SA
HETATM    2  C1  UNL     1       3.110  11.122  23.491  1.00  0.00     0.073 C 
ENDROOT
BRANCH   2   3
HETATM    3  C2  UNL     1       3.127  10.238  24.706  1.00  0.00     0.071 C 
BRANCH   3   4
HETATM    4  C3  UNL     1       4.413   9.459  24.751  1.00  0.00     0.027 C 
BRANCH   4   5
HETATM    5  C4  UNL     1       4.273   8.159  25.500  1.00  0.00     0.137 C 
BRANCH   5   6
HETATM    6  N1  UNL     1       5.241   7.163  25.072  1.00  0.00    -0.328 N 
HETATM    7  C5  UNL     1       5.834   6.895  23.924  1.00  0.00     0.107 A 
HETATM    8  C6  UNL     1       6.565   5.842  24.382  1.00  0.00     0.086 A 
HETATM    9  S2  UNL     1       5.966   5.960  25.934  1.00  0.00    -0.023 SA
ENDBRANCH   5   6
ENDBRANCH   4   5
ENDBRANCH   3   4
ENDBRANCH   2   3
BRANCH   2  10
HETATM   10  N2  UNL     1       3.511  10.623  22.240  1.00  0.00    -0.380 N 
ATOM     11  H2  UNL     1       4.450  10.880  21.936  1.00  0.00     0.160 HD
BRANCH  10  12
HETATM   12  C7  UNL     1       2.773   9.809  21.350  1.00  0.00     0.082 C 
HETATM   13  C8  UNL     1       3.176   8.368  21.409  1.00  0.00     0.025 C 
HETATM   14  C9  UNL     1       2.551   7.519  20.345  1.00  0.00     0.002 C 
HETATM   15  C10 UNL     1       1.110   7.815  20.074  1.00  0.00     0.000 C 
HETATM   16  C11 UNL     1       0.692   9.215  20.303  1.00  0.00     0.002 C 
HETATM   17  C12 UNL     1       1.275   9.856  21.547  1.00  0.00     0.025 C 
ENDBRANCH  10  12
ENDBRANCH   2  10
TORSDOF 6
ENDMDL
MODEL 2
REMARK VINA RESULT: -6.466472775      0.452      1.309
REMARK  6 active torsions:
REMARK  status: ('A' for Active; 'I' for Inactive)
REMARK    1  A    between atoms: C1_2  and  C2_3 
REMARK    2  A    between atoms: C1_2  and  N2_10 
REMARK    3  A    between atoms: C2_3  and  C3_4 
REMARK    4  A    between atoms: C3_4  and  C4_5 
REMARK    5  A    between atoms: C4_5  and  N1_6 
REMARK    6  A    between atoms: N2_10  and  C7_12 
ROOT
HETATM    1  S1  UNL     1       2.740  12.596  23.861  1.00  0.00    -0.066 SA
HETATM    2  C1  UNL     1       3.197  11.034  23.725  1.00  0.00     0.073 C 
ENDROOT
BRANCH   2   3
HETATM    3  C2  UNL     1       3.228  10.275  25.022  1.00  0.00     0.071 C 
BRANCH   3   4
HETATM    4  C3  UNL     1       4.522   9.516  25.137  1.00  0.00     0.027 C 
BRANCH   4   5
HETATM    5  C4  UNL     1       4.335   8.145  25.733  1.00  0.00     0.137 C 
BRANCH   5   6
HETATM    6  N1  UNL     1       5.258   7.167  25.181  1.00  0.00    -0.328 N 
HETATM    7  C5  UNL     1       5.764   6.960  23.980  1.00  0.00     0.107 A 
HETATM    8  C6  UNL     1       6.514   5.878  24.325  1.00  0.00     0.086 A 
HETATM    9  S2  UNL     1       6.031   5.914  25.921  1.00  0.00    -0.023 SA
ENDBRANCH   5   6
ENDBRANCH   4   5
ENDBRANCH   3   4
ENDBRANCH   2   3
BRANCH   2  10
HETATM   10  N2  UNL     1       3.551  10.402  22.520  1.00  0.00    -0.380 N 
ATOM     11  H2  UNL     1       4.403  10.740  22.072  1.00  0.00     0.160 HD
BRANCH  10  12
HETATM   12  C7  UNL     1       2.872   9.357  21.853  1.00  0.00     0.082 C 
HETATM   13  C8  UNL     1       1.811   9.854  20.920  1.00  0.00     0.025 C 
HETATM   14  C9  UNL     1       0.949   8.770  20.350  1.00  0.00     0.002 C 
HETATM   15  C10 UNL     1       1.684   7.531  19.949  1.00  0.00     0.000 C 
HETATM   16  C11 UNL     1       2.902   7.229  20.733  1.00  0.00     0.002 C 
HETATM   17  C12 UNL     1       3.764   8.435  21.054  1.00  0.00     0.025 C 
ENDBRANCH  10  12
ENDBRANCH   2  10
TORSDOF 6
ENDMDL
MODEL 3
REMARK VINA RESULT: -6.448411254      2.695      6.378
REMARK  6 active torsions:
REMARK  status: ('A' for Active; 'I' for Inactive)
REMARK    1  A    between atoms: C1_2  and  C2_3 
REMARK    2  A    between atoms: C1_2  and  N2_10 
REMARK    3  A    between atoms: C2_3  and  C3_4 
REMARK    4  A    between atoms: C3_4  and  C4_5 
REMARK    5  A    between atoms: C4_5  and  N1_6 
REMARK    6  A    between atoms: N2_10  and  C7_12 
ROOT
HETATM    1  S1  UNL     1       2.519   8.099  20.494  1.00  0.00    -0.066 SA
HETATM    2  C1  UNL     1       2.916   9.213  21.622  1.00  0.00     0.073 C 
ENDROOT
BRANCH   2   3
HETATM    3  C2  UNL     1       1.810  10.166  21.978  1.00  0.00     0.071 C 
BRANCH   3   4
HETATM    4  C3  UNL     1       2.392  11.496  22.371  1.00  0.00     0.027 C 
BRANCH   4   5
HETATM    5  C4  UNL     1       2.521  12.437  21.200  1.00  0.00     0.137 C 
BRANCH   5   6
HETATM    6  N1  UNL     1       2.228  13.815  21.559  1.00  0.00    -0.328 N 
HETATM    7  C5  UNL     1       2.132  14.940  20.875  1.00  0.00     0.107 A 
HETATM    8  C6  UNL     1       1.836  15.731  21.942  1.00  0.00     0.086 A 
HETATM    9  S2  UNL     1       1.895  14.471  23.033  1.00  0.00    -0.023 SA
ENDBRANCH   5   6
ENDBRANCH   4   5
ENDBRANCH   3   4
ENDBRANCH   2   3
BRANCH   2  10
HETATM   10  N2  UNL     1       4.176   9.320  22.236  1.00  0.00    -0.380 N 
ATOM     11  H2  UNL     1       4.808  10.016  21.840  1.00  0.00     0.160 HD
BRANCH  10  12
HETATM   12  C7  UNL     1       4.675   8.583  23.334  1.00  0.00     0.082 C 
HETATM   13  C8  UNL     1       3.841   8.740  24.568  1.00  0.00     0.025 C 
HETATM   14  C9  UNL     1       4.451   8.131  25.794  1.00  0.00     0.002 C 
HETATM   15  C10 UNL     1       5.104   6.803  25.575  1.00  0.00     0.000 C 
HETATM   16  C11 UNL     1       5.676   6.588  24.227  1.00  0.00     0.002 C 
HETATM   17  C12 UNL     1       4.820   7.100  23.085  1.00  0.00     0.025 C 
ENDBRANCH  10  12
ENDBRANCH   2  10
TORSDOF 6
ENDMDL
MODEL 4
REMARK VINA RESULT: -6.436228313      4.976      9.555
REMARK  6 active torsions:
REMARK  status: ('A' for Active; 'I' for Inactive)
REMARK    1  A    between atoms: C1_2  and  C2_3 
REMARK    2  A    between atoms: C1_2  and  N2_10 
REMARK    3  A    between atoms: C2_3  and  C3_4 
REMARK    4  A    between atoms: C3_4  and  C4_5 
REMARK    5  A    between atoms: C4_5  and  N1_6 
REMARK    6  A    between atoms: N2_10  and  C7_12 
ROOT
HETATM    1  S1  UNL     1       6.868   2.082  25.402  1.00  0.00    -0.066 SA
HETATM    2  C1  UNL     1       7.811   2.830  26.507  1.00  0.00     0.073 C 
ENDROOT
BRANCH   2   3
HETATM    3  C2  UNL     1       7.992   4.304  26.279  1.00  0.00     0.071 C 
BRANCH   3   4
HETATM    4  C3  UNL     1       6.665   4.937  25.961  1.00  0.00     0.027 C 
BRANCH   4   5
HETATM    5  C4  UNL     1       6.718   5.795  24.723  1.00  0.00     0.137 C 
BRANCH   5   6
HETATM    6  N1  UNL     1       5.666   6.797  24.695  1.00  0.00    -0.328 N 
HETATM    7  C5  UNL     1       5.041   7.497  25.623  1.00  0.00     0.107 A 
HETATM    8  C6  UNL     1       4.230   8.178  24.768  1.00  0.00     0.086 A 
HETATM    9  S2  UNL     1       4.851   7.434  23.411  1.00  0.00    -0.023 SA
ENDBRANCH   5   6
ENDBRANCH   4   5
ENDBRANCH   3   4
ENDBRANCH   2   3
BRANCH   2  10
HETATM   10  N2  UNL     1       8.432   2.194  27.595  1.00  0.00    -0.380 N 
ATOM     11  H2  UNL     1       9.405   1.920  27.456  1.00  0.00     0.160 HD
BRANCH  10  12
HETATM   12  C7  UNL     1       7.876   1.886  28.858  1.00  0.00     0.082 C 
HETATM   13  C8  UNL     1       7.146   3.042  29.469  1.00  0.00     0.025 C 
HETATM   14  C9  UNL     1       6.716   2.807  30.885  1.00  0.00     0.002 C 
HETATM   15  C10 UNL     1       6.178   1.438  31.157  1.00  0.00     0.000 C 
HETATM   16  C11 UNL     1       6.738   0.354  30.320  1.00  0.00     0.002 C 
HETATM   17  C12 UNL     1       6.924   0.713  28.858  1.00  0.00     0.025 C 
ENDBRANCH  10  12
ENDBRANCH   2  10
TORSDOF 6
ENDMDL
MODEL 5
REMARK VINA RESULT: -6.394705196      2.656      6.375
REMARK  6 active torsions:
REMARK  status: ('A' for Active; 'I' for Inactive)
REMARK    1  A    between atoms: C1_2  and  C2_3 
REMARK    2  A    between atoms: C1_2  and  N2_10 
REMARK    3  A    between atoms: C2_3  and  C3_4 
REMARK    4  A    between atoms: C3_4  and  C4_5 
REMARK    5  A    between atoms: C4_5  and  N1_6 
REMARK    6  A    between atoms: N2_10  and  C7_12 
ROOT
HETATM    1  S1  UNL     1       2.855   8.257  20.648  1.00  0.00    -0.066 SA
HETATM    2  C1  UNL     1       3.175   9.321  21.846  1.00  0.00     0.073 C 
ENDROOT
BRANCH   2   3
HETATM    3  C2  UNL     1       2.053  10.272  22.155  1.00  0.00     0.071 C 
BRANCH   3   4
HETATM    4  C3  UNL     1       2.601  11.507  22.815  1.00  0.00     0.027 C 
BRANCH   4   5
HETATM    5  C4  UNL     1       1.520  12.490  23.187  1.00  0.00     0.137 C 
BRANCH   5   6
HETATM    6  N1  UNL     1       1.675  13.769  22.515  1.00  0.00    -0.328 N 
HETATM    7  C5  UNL     1       1.700  15.023  22.925  1.00  0.00     0.107 A 
HETATM    8  C6  UNL     1       1.880  15.574  21.693  1.00  0.00     0.086 A 
HETATM    9  S2  UNL     1       1.886  14.099  20.914  1.00  0.00    -0.023 SA
ENDBRANCH   5   6
ENDBRANCH   4   5
ENDBRANCH   3   4
ENDBRANCH   2   3
BRANCH   2  10
HETATM   10  N2  UNL     1       4.385   9.390  22.557  1.00  0.00    -0.380 N 
ATOM     11  H2  UNL     1       5.037  10.115  22.259  1.00  0.00     0.160 HD
BRANCH  10  12
HETATM   12  C7  UNL     1       4.810   8.578  23.634  1.00  0.00     0.082 C 
HETATM   13  C8  UNL     1       3.925   8.696  24.836  1.00  0.00     0.025 C 
HETATM   14  C9  UNL     1       4.458   8.001  26.052  1.00  0.00     0.002 C 
HETATM   15  C10 UNL     1       5.079   6.666  25.789  1.00  0.00     0.000 C 
HETATM   16  C11 UNL     1       5.706   6.505  24.458  1.00  0.00     0.002 C 
HETATM   17  C12 UNL     1       4.921   7.107  23.309  1.00  0.00     0.025 C 
ENDBRANCH  10  12
ENDBRANCH   2  10
TORSDOF 6
ENDMDL
