MODEL 1
REMARK VINA RESULT: -7.540078930      0.000      0.000
REMARK  5 active torsions:
REMARK  status: ('A' for Active; 'I' for Inactive)
REMARK    1  A    between atoms: C2_2  and  C3_3 
REMARK    2  A    between atoms: C3_3  and  C4_4 
REMARK    3  A    between atoms: C4_4  and  S1_5 
REMARK    4  A    between atoms: S1_5  and  C5_6 
REMARK    5  A    between atoms: C6_9  and  C7_10 
ROOT
HETATM    1  C5  UNL     1       2.680  10.263  21.553  1.00  0.00     0.142 A 
HETATM    2  N1  UNL     1       3.596   9.877  22.323  1.00  0.00    -0.365 N 
ATOM      3  H1  UNL     1       3.930  10.568  22.994  1.00  0.00     0.162 HD
HETATM    4  C6  UNL     1       4.230   8.599  22.382  1.00  0.00     0.096 A 
HETATM    5  C12 UNL     1       3.775   7.615  21.360  1.00  0.00     0.128 A 
HETATM    6  C13 UNL     1       2.664   8.077  20.514  1.00  0.00     0.225 A 
HETATM    7  O1  UNL     1       2.170   7.266  19.699  1.00  0.00    -0.273 OA
HETATM    8  N2  UNL     1       2.148   9.385  20.590  1.00  0.00    -0.308 N 
ATOM      9  H2  UNL     1       1.405   9.690  19.961  1.00  0.00     0.171 HD
ENDROOT
BRANCH   1  10
HETATM   10  S1  UNL     1       2.059  11.938  21.693  1.00  0.00    -0.094 SA
BRANCH  10  11
HETATM   11  C4  UNL     1       2.665  12.708  23.243  1.00  0.00     0.082 C 
BRANCH  11  12
HETATM   12  C3  UNL     1       1.893  12.091  24.386  1.00  0.00     0.010 C 
BRANCH  12  13
HETATM   13  C2  UNL     1       2.618  12.506  25.669  1.00  0.00    -0.004 C 
HETATM   14  C1  UNL     1       2.228  11.573  26.794  1.00  0.00     0.005 C 
ENDBRANCH  12  13
ENDBRANCH  11  12
ENDBRANCH  10  11
ENDBRANCH   1  10
BRANCH   4  15
HETATM   15  C7  UNL     1       4.180   8.105  23.792  1.00  0.00     0.009 C 
HETATM   16  C8  UNL     1       5.282   7.180  24.170  1.00  0.00     0.007 C 
HETATM   17  C9  UNL     1       5.207   7.149  25.691  1.00  0.00     0.000 C 
HETATM   18  C10 UNL     1       4.300   8.273  26.100  1.00  0.00     0.000 C 
HETATM   19  C11 UNL     1       4.235   9.161  24.843  1.00  0.00     0.007 C 
ENDBRANCH   4  15
TORSDOF 5
ENDMDL
MODEL 2
REMARK VINA RESULT: -7.400995370      1.309      1.713
REMARK  5 active torsions:
REMARK  status: ('A' for Active; 'I' for Inactive)
REMARK    1  A    between atoms: C2_2  and  C3_3 
REMARK    2  A    between atoms: C3_3  and  C4_4 
REMARK    3  A    between atoms: C4_4  and  S1_5 
REMARK    4  A    between atoms: S1_5  and  C5_6 
REMARK    5  A    between atoms: C6_9  and  C7_10 
ROOT
HETATM    1  C5  UNL     1       1.822  10.762  20.494  1.00  0.00     0.142 A 
HETATM    2  N1  UNL     1       2.846  10.152  20.893  1.00  0.00    -0.365 N 
ATOM      3  H1  UNL     1       3.608  10.740  21.228  1.00  0.00     0.162 HD
HETATM    4  C6  UNL     1       3.084   8.744  20.938  1.00  0.00     0.096 A 
HETATM    5  C12 UNL     1       1.986   7.897  20.392  1.00  0.00     0.128 A 
HETATM    6  C13 UNL     1       0.781   8.636  19.988  1.00  0.00     0.225 A 
HETATM    7  O1  UNL     1      -0.213   7.976  19.610  1.00  0.00    -0.273 OA
HETATM    8  N2  UNL     1       0.713  10.042  20.011  1.00  0.00    -0.308 N 
ATOM      9  H2  UNL     1      -0.122  10.529  19.686  1.00  0.00     0.171 HD
ENDROOT
BRANCH   1  10
HETATM   10  S1  UNL     1       1.787  12.553  20.546  1.00  0.00    -0.094 SA
BRANCH  10  11
HETATM   11  C4  UNL     1       2.561  13.154  22.095  1.00  0.00     0.082 C 
BRANCH  11  12
HETATM   12  C3  UNL     1       1.763  12.588  23.248  1.00  0.00     0.010 C 
BRANCH  12  13
HETATM   13  C2  UNL     1       2.660  12.692  24.485  1.00  0.00    -0.004 C 
HETATM   14  C1  UNL     1       2.090  11.838  25.595  1.00  0.00     0.005 C 
ENDBRANCH  12  13
ENDBRANCH  11  12
ENDBRANCH  10  11
ENDBRANCH   1  10
BRANCH   4  15
HETATM   15  C7  UNL     1       3.530   8.379  22.317  1.00  0.00     0.009 C 
HETATM   16  C8  UNL     1       4.562   7.309  22.377  1.00  0.00     0.007 C 
HETATM   17  C9  UNL     1       5.089   7.411  23.802  1.00  0.00     0.000 C 
HETATM   18  C10 UNL     1       4.570   8.704  24.362  1.00  0.00     0.000 C 
HETATM   19  C11 UNL     1       4.131   9.488  23.111  1.00  0.00     0.007 C 
ENDBRANCH   4  15
TORSDOF 5
ENDMDL
MODEL 3
REMARK VINA RESULT: -7.342752418      1.377      2.115
REMARK  5 active torsions:
REMARK  status: ('A' for Active; 'I' for Inactive)
REMARK    1  A    between atoms: C2_2  and  C3_3 
REMARK    2  A    between atoms: C3_3  and  C4_4 
REMARK    3  A    between atoms: C4_4  and  S1_5 
REMARK    4  A    between atoms: S1_5  and  C5_6 
REMARK    5  A    between atoms: C6_9  and  C7_10 
ROOT
HETATM    1  C5  UNL     1       2.567  10.066  21.024  1.00  0.00     0.142 A 
HETATM    2  N1  UNL     1       3.302  10.067  22.045  1.00  0.00    -0.365 N 
ATOM      3  H1  UNL     1       3.379  10.959  22.533  1.00  0.00     0.162 HD
HETATM    4  C6  UNL     1       4.041   8.985  22.611  1.00  0.00     0.096 A 
HETATM    5  C12 UNL     1       3.967   7.702  21.859  1.00  0.00     0.128 A 
HETATM    6  C13 UNL     1       3.056   7.717  20.704  1.00  0.00     0.225 A 
HETATM    7  O1  UNL     1       2.874   6.645  20.085  1.00  0.00    -0.273 OA
HETATM    8  N2  UNL     1       2.393   8.885  20.279  1.00  0.00    -0.308 N 
ATOM      9  H2  UNL     1       1.800   8.875  19.450  1.00  0.00     0.171 HD
ENDROOT
BRANCH   1  10
HETATM   10  S1  UNL     1       1.746  11.580  20.528  1.00  0.00    -0.094 SA
BRANCH  10  11
HETATM   11  C4  UNL     1       2.472  13.011  21.415  1.00  0.00     0.082 C 
BRANCH  11  12
HETATM   12  C3  UNL     1       1.607  13.277  22.627  1.00  0.00     0.010 C 
BRANCH  12  13
HETATM   13  C2  UNL     1       1.883  14.725  23.043  1.00  0.00    -0.004 C 
HETATM   14  C1  UNL     1       1.797  15.623  21.829  1.00  0.00     0.005 C 
ENDBRANCH  12  13
ENDBRANCH  11  12
ENDBRANCH  10  11
ENDBRANCH   1  10
BRANCH   4  15
HETATM   15  C7  UNL     1       3.699   8.880  24.063  1.00  0.00     0.009 C 
HETATM   16  C8  UNL     1       4.688   8.132  24.885  1.00  0.00     0.007 C 
HETATM   17  C9  UNL     1       4.306   8.501  26.313  1.00  0.00     0.000 C 
HETATM   18  C10 UNL     1       3.352   9.657  26.218  1.00  0.00     0.000 C 
HETATM   19  C11 UNL     1       3.557  10.177  24.783  1.00  0.00     0.007 C 
ENDBRANCH   4  15
TORSDOF 5
ENDMDL
MODEL 4
REMARK VINA RESULT: -7.254526382      2.446      4.564
REMARK  5 active torsions:
REMARK  status: ('A' for Active; 'I' for Inactive)
REMARK    1  A    between atoms: C2_2  and  C3_3 
REMARK    2  A    between atoms: C3_3  and  C4_4 
REMARK    3  A    between atoms: C4_4  and  S1_5 
REMARK    4  A    between atoms: S1_5  and  C5_6 
REMARK    5  A    between atoms: C6_9  and  C7_10 
ROOT
HETATM    1  C5  UNL     1       3.925   8.136  22.168  1.00  0.00     0.142 A 
HETATM    2  N1  UNL     1       3.893   9.189  22.854  1.00  0.00    -0.365 N 
ATOM      3  H1  UNL     1       3.416   9.981  22.425  1.00  0.00     0.162 HD
HETATM    4  C6  UNL     1       4.435   9.422  24.155  1.00  0.00     0.096 A 
HETATM    5  C12 UNL     1       5.179   8.275  24.748  1.00  0.00     0.128 A 
HETATM    6  C13 UNL     1       5.149   7.042  23.947  1.00  0.00     0.225 A 
HETATM    7  O1  UNL     1       5.674   6.014  24.432  1.00  0.00    -0.273 OA
HETATM    8  N2  UNL     1       4.559   6.984  22.670  1.00  0.00    -0.308 N 
ATOM      9  H2  UNL     1       4.590   6.125  22.120  1.00  0.00     0.171 HD
ENDROOT
BRANCH   1  10
HETATM   10  S1  UNL     1       3.157   8.116  20.549  1.00  0.00    -0.094 SA
BRANCH  10  11
HETATM   11  C4  UNL     1       2.206   9.660  20.283  1.00  0.00     0.082 C 
BRANCH  11  12
HETATM   12  C3  UNL     1       0.781   9.392  20.711  1.00  0.00     0.010 C 
BRANCH  12  13
HETATM   13  C2  UNL     1       0.366   8.084  20.033  1.00  0.00    -0.004 C 
HETATM   14  C1  UNL     1      -0.949   8.284  19.313  1.00  0.00     0.005 C 
ENDBRANCH  12  13
ENDBRANCH  11  12
ENDBRANCH  10  11
ENDBRANCH   1  10
BRANCH   4  15
HETATM   15  C7  UNL     1       3.361   9.989  25.026  1.00  0.00     0.009 C 
HETATM   16  C8  UNL     1       3.650   9.942  26.485  1.00  0.00     0.007 C 
HETATM   17  C9  UNL     1       2.618  10.893  27.077  1.00  0.00     0.000 C 
HETATM   18  C10 UNL     1       2.024  11.654  25.927  1.00  0.00     0.000 C 
HETATM   19  C11 UNL     1       3.030  11.422  24.783  1.00  0.00     0.007 C 
ENDBRANCH   4  15
TORSDOF 5
ENDMDL
MODEL 5
REMARK VINA RESULT: -7.231954381      0.358      1.018
REMARK  5 active torsions:
REMARK  status: ('A' for Active; 'I' for Inactive)
REMARK    1  A    between atoms: C2_2  and  C3_3 
REMARK    2  A    between atoms: C3_3  and  C4_4 
REMARK    3  A    between atoms: C4_4  and  S1_5 
REMARK    4  A    between atoms: S1_5  and  C5_6 
REMARK    5  A    between atoms: C6_9  and  C7_10 
ROOT
HETATM    1  C5  UNL     1       2.752  10.168  21.651  1.00  0.00     0.142 A 
HETATM    2  N1  UNL     1       3.832   9.945  22.254  1.00  0.00    -0.365 N 
ATOM      3  H1  UNL     1       4.204  10.724  22.798  1.00  0.00     0.162 HD
HETATM    4  C6  UNL     1       4.608   8.747  22.279  1.00  0.00     0.096 A 
HETATM    5  C12 UNL     1       4.086   7.635  21.435  1.00  0.00     0.128 A 
HETATM    6  C13 UNL     1       2.793   7.907  20.790  1.00  0.00     0.225 A 
HETATM    7  O1  UNL     1       2.253   6.980  20.145  1.00  0.00    -0.273 OA
HETATM    8  N2  UNL     1       2.155   9.159  20.873  1.00  0.00    -0.308 N 
ATOM      9  H2  UNL     1       1.278   9.331  20.380  1.00  0.00     0.171 HD
ENDROOT
BRANCH   1  10
HETATM   10  S1  UNL     1       1.981  11.780  21.791  1.00  0.00    -0.094 SA
BRANCH  10  11
HETATM   11  C4  UNL     1       2.575  12.634  23.301  1.00  0.00     0.082 C 
BRANCH  11  12
HETATM   12  C3  UNL     1       1.852  12.023  24.480  1.00  0.00     0.010 C 
BRANCH  12  13
HETATM   13  C2  UNL     1       2.674  12.382  25.721  1.00  0.00    -0.004 C 
HETATM   14  C1  UNL     1       2.220  11.534  26.888  1.00  0.00     0.005 C 
ENDBRANCH  12  13
ENDBRANCH  11  12
ENDBRANCH  10  11
ENDBRANCH   1  10
BRANCH   4  15
HETATM   15  C7  UNL     1       4.876   8.380  23.703  1.00  0.00     0.009 C 
HETATM   16  C8  UNL     1       3.909   8.940  24.685  1.00  0.00     0.007 C 
HETATM   17  C9  UNL     1       4.178   8.126  25.944  1.00  0.00     0.000 C 
HETATM   18  C10 UNL     1       5.036   6.964  25.530  1.00  0.00     0.000 C 
HETATM   19  C11 UNL     1       4.868   6.919  24.000  1.00  0.00     0.007 C 
ENDBRANCH   4  15
TORSDOF 5
ENDMDL
