MODEL 1
REMARK VINA RESULT: -7.383010645      0.000      0.000
REMARK  5 active torsions:
REMARK  status: ('A' for Active; 'I' for Inactive)
REMARK    1  A    between atoms: C2_2  and  C3_3 
REMARK    2  A    between atoms: C4_4  and  C5_5 
REMARK    3  A    between atoms: C5_5  and  C6_6 
REMARK       I    between atoms: C6_6  and  N1_8 
REMARK    4  A    between atoms: N1_8  and  C7_10 
REMARK    5  A    between atoms: C7_10  and  C10_13 
ROOT
HETATM    1  C3  UNL     1       4.431   8.173  24.646  1.00  0.00     0.015 C 
HETATM    2  C4  UNL     1       5.583   7.328  25.178  1.00  0.00     0.019 C 
HETATM    3  C12 UNL     1       6.393   6.846  23.999  1.00  0.00     0.144 C 
HETATM    4  N2  UNL     1       5.551   6.242  23.005  1.00  0.00    -0.340 N 
ATOM      5  H2  UNL     1       5.715   5.295  22.664  1.00  0.00     0.179 HD
HETATM    6  N3  UNL     1       4.615   6.936  22.586  1.00  0.00    -0.336 N 
ATOM      7  H3  UNL     1       3.964   6.595  21.879  1.00  0.00     0.180 HD
HETATM    8  C13 UNL     1       4.502   8.263  23.162  1.00  0.00     0.099 C 
HETATM    9  C14 UNL     1       3.259   8.863  22.545  1.00  0.00     0.034 C 
ENDROOT
BRANCH   2  10
HETATM   10  C5  UNL     1       5.000   6.234  26.008  1.00  0.00     0.109 C 
BRANCH  10  11
HETATM   11  C6  UNL     1       5.934   5.265  26.565  1.00  0.00     0.218 C 
HETATM   12  O1  UNL     1       6.574   5.519  27.609  1.00  0.00    -0.274 OA
HETATM   13  N1  UNL     1       6.143   4.012  25.938  1.00  0.00    -0.353 N 
ATOM     14  H1  UNL     1       5.634   3.785  25.084  1.00  0.00     0.163 HD
BRANCH  13  15
HETATM   15  C7  UNL     1       7.071   3.053  26.495  1.00  0.00     0.025 C 
HETATM   16  C8  UNL     1       8.507   3.399  26.142  1.00  0.00     0.038 C 
HETATM   17  C9  UNL     1       6.800   1.652  25.944  1.00  0.00     0.038 C 
BRANCH  15  18
HETATM   18  C10 UNL     1       6.985   2.973  27.992  1.00  0.00     0.026 C 
HETATM   19  C11 UNL     1       7.020   1.541  28.491  1.00  0.00     0.007 C 
ENDBRANCH  15  18
ENDBRANCH  13  15
ENDBRANCH  10  11
ENDBRANCH   2  10
BRANCH   1  20
HETATM   20  C2  UNL     1       4.472   9.571  25.217  1.00  0.00     0.002 C 
HETATM   21  C1  UNL     1       3.378   9.799  26.238  1.00  0.00     0.005 C 
ENDBRANCH   1  20
TORSDOF 5
ENDMDL
MODEL 2
REMARK VINA RESULT: -7.335684997      1.961      3.208
REMARK  5 active torsions:
REMARK  status: ('A' for Active; 'I' for Inactive)
REMARK    1  A    between atoms: C2_2  and  C3_3 
REMARK    2  A    between atoms: C4_4  and  C5_5 
REMARK    3  A    between atoms: C5_5  and  C6_6 
REMARK       I    between atoms: C6_6  and  N1_8 
REMARK    4  A    between atoms: N1_8  and  C7_10 
REMARK    5  A    between atoms: C7_10  and  C10_13 
ROOT
HETATM    1  C3  UNL     1       5.649   5.837  26.108  1.00  0.00     0.015 C 
HETATM    2  C4  UNL     1       6.938   5.032  26.229  1.00  0.00     0.019 C 
HETATM    3  C12 UNL     1       7.858   5.451  25.109  1.00  0.00     0.144 C 
HETATM    4  N2  UNL     1       7.185   5.409  23.842  1.00  0.00    -0.340 N 
ATOM      5  H2  UNL     1       7.549   4.872  23.056  1.00  0.00     0.179 HD
HETATM    6  N3  UNL     1       6.135   6.062  23.758  1.00  0.00    -0.336 N 
ATOM      7  H3  UNL     1       5.586   6.095  22.899  1.00  0.00     0.180 HD
HETATM    8  C13 UNL     1       5.736   6.776  24.957  1.00  0.00     0.099 C 
HETATM    9  C14 UNL     1       4.411   7.419  24.616  1.00  0.00     0.034 C 
ENDROOT
BRANCH   2  10
HETATM   10  C5  UNL     1       6.574   3.586  26.213  1.00  0.00     0.109 C 
BRANCH  10  11
HETATM   11  C6  UNL     1       7.191   2.744  27.230  1.00  0.00     0.218 C 
HETATM   12  O1  UNL     1       8.241   2.111  26.986  1.00  0.00    -0.274 OA
HETATM   13  N1  UNL     1       6.617   2.621  28.519  1.00  0.00    -0.353 N 
ATOM     14  H1  UNL     1       5.759   3.126  28.740  1.00  0.00     0.163 HD
BRANCH  13  15
HETATM   15  C7  UNL     1       7.234   1.786  29.526  1.00  0.00     0.025 C 
HETATM   16  C8  UNL     1       8.710   2.107  29.685  1.00  0.00     0.038 C 
HETATM   17  C9  UNL     1       7.136   0.309  29.142  1.00  0.00     0.038 C 
BRANCH  15  18
HETATM   18  C10 UNL     1       6.593   1.945  30.875  1.00  0.00     0.026 C 
HETATM   19  C11 UNL     1       6.317   0.608  31.537  1.00  0.00     0.007 C 
ENDBRANCH  15  18
ENDBRANCH  13  15
ENDBRANCH  10  11
ENDBRANCH   2  10
BRANCH   1  20
HETATM   20  C2  UNL     1       5.385   6.635  27.363  1.00  0.00     0.002 C 
HETATM   21  C1  UNL     1       6.278   6.205  28.507  1.00  0.00     0.005 C 
ENDBRANCH   1  20
TORSDOF 5
ENDMDL
MODEL 3
REMARK VINA RESULT: -7.291687453      2.012      3.377
REMARK  5 active torsions:
REMARK  status: ('A' for Active; 'I' for Inactive)
REMARK    1  A    between atoms: C2_2  and  C3_3 
REMARK    2  A    between atoms: C4_4  and  C5_5 
REMARK    3  A    between atoms: C5_5  and  C6_6 
REMARK       I    between atoms: C6_6  and  N1_8 
REMARK    4  A    between atoms: N1_8  and  C7_10 
REMARK    5  A    between atoms: C7_10  and  C10_13 
ROOT
HETATM    1  C3  UNL     1       5.649   5.843  26.098  1.00  0.00     0.015 C 
HETATM    2  C4  UNL     1       6.946   5.055  26.244  1.00  0.00     0.019 C 
HETATM    3  C12 UNL     1       7.869   5.462  25.121  1.00  0.00     0.144 C 
HETATM    4  N2  UNL     1       7.204   5.386  23.852  1.00  0.00    -0.340 N 
ATOM      5  H2  UNL     1       7.580   4.838  23.079  1.00  0.00     0.179 HD
HETATM    6  N3  UNL     1       6.148   6.025  23.748  1.00  0.00    -0.336 N 
ATOM      7  H3  UNL     1       5.604   6.035  22.885  1.00  0.00     0.180 HD
HETATM    8  C13 UNL     1       5.733   6.760  24.929  1.00  0.00     0.099 C 
HETATM    9  C14 UNL     1       4.404   7.381  24.567  1.00  0.00     0.034 C 
ENDROOT
BRANCH   2  10
HETATM   10  C5  UNL     1       6.599   3.605  26.256  1.00  0.00     0.109 C 
BRANCH  10  11
HETATM   11  C6  UNL     1       7.193   2.797  27.312  1.00  0.00     0.218 C 
HETATM   12  O1  UNL     1       8.210   2.103  27.092  1.00  0.00    -0.274 OA
HETATM   13  N1  UNL     1       6.636   2.777  28.615  1.00  0.00    -0.353 N 
ATOM     14  H1  UNL     1       5.807   3.334  28.816  1.00  0.00     0.163 HD
BRANCH  13  15
HETATM   15  C7  UNL     1       7.231   1.975  29.661  1.00  0.00     0.025 C 
HETATM   16  C8  UNL     1       6.926   0.500  29.471  1.00  0.00     0.038 C 
HETATM   17  C9  UNL     1       6.681   2.374  31.030  1.00  0.00     0.038 C 
BRANCH  15  18
HETATM   18  C10 UNL     1       8.725   2.120  29.715  1.00  0.00     0.026 C 
HETATM   19  C11 UNL     1       9.168   3.069  30.813  1.00  0.00     0.007 C 
ENDBRANCH  15  18
ENDBRANCH  13  15
ENDBRANCH  10  11
ENDBRANCH   2  10
BRANCH   1  20
HETATM   20  C2  UNL     1       5.369   6.664  27.335  1.00  0.00     0.002 C 
HETATM   21  C1  UNL     1       6.284   6.291  28.482  1.00  0.00     0.005 C 
ENDBRANCH   1  20
TORSDOF 5
ENDMDL
MODEL 4
REMARK VINA RESULT: -7.271952324      3.416      4.245
REMARK  5 active torsions:
REMARK  status: ('A' for Active; 'I' for Inactive)
REMARK    1  A    between atoms: C2_2  and  C3_3 
REMARK    2  A    between atoms: C4_4  and  C5_5 
REMARK    3  A    between atoms: C5_5  and  C6_6 
REMARK       I    between atoms: C6_6  and  N1_8 
REMARK    4  A    between atoms: N1_8  and  C7_10 
REMARK    5  A    between atoms: C7_10  and  C10_13 
ROOT
HETATM    1  C3  UNL     1       4.054   8.738  23.795  1.00  0.00     0.015 C 
HETATM    2  C4  UNL     1       5.094   8.211  24.776  1.00  0.00     0.019 C 
HETATM    3  C12 UNL     1       6.056   7.333  24.013  1.00  0.00     0.144 C 
HETATM    4  N2  UNL     1       5.354   6.358  23.227  1.00  0.00    -0.340 N 
ATOM      5  H2  UNL     1       5.543   5.360  23.313  1.00  0.00     0.179 HD
HETATM    6  N3  UNL     1       4.508   6.799  22.438  1.00  0.00    -0.336 N 
ATOM      7  H3  UNL     1       3.959   6.185  21.835  1.00  0.00     0.180 HD
HETATM    8  C13 UNL     1       4.345   8.241  22.422  1.00  0.00     0.099 C 
HETATM    9  C14 UNL     1       3.222   8.506  21.446  1.00  0.00     0.034 C 
ENDROOT
BRANCH   2  10
HETATM   10  C5  UNL     1       4.368   7.511  25.876  1.00  0.00     0.109 C 
BRANCH  10  11
HETATM   11  C6  UNL     1       4.328   8.186  27.167  1.00  0.00     0.218 C 
HETATM   12  O1  UNL     1       3.324   8.844  27.515  1.00  0.00    -0.274 OA
HETATM   13  N1  UNL     1       5.426   8.114  28.060  1.00  0.00    -0.353 N 
ATOM     14  H1  UNL     1       6.256   7.584  27.796  1.00  0.00     0.163 HD
BRANCH  13  15
HETATM   15  C7  UNL     1       5.381   8.783  29.341  1.00  0.00     0.025 C 
HETATM   16  C8  UNL     1       5.165  10.278  29.179  1.00  0.00     0.038 C 
HETATM   17  C9  UNL     1       6.698   8.600  30.096  1.00  0.00     0.038 C 
BRANCH  15  18
HETATM   18  C10 UNL     1       4.281   8.265  30.221  1.00  0.00     0.026 C 
HETATM   19  C11 UNL     1       4.497   6.815  30.614  1.00  0.00     0.007 C 
ENDBRANCH  15  18
ENDBRANCH  13  15
ENDBRANCH  10  11
ENDBRANCH   2  10
BRANCH   1  20
HETATM   20  C2  UNL     1       4.046  10.248  23.769  1.00  0.00     0.002 C 
HETATM   21  C1  UNL     1       2.931  10.824  24.615  1.00  0.00     0.005 C 
ENDBRANCH   1  20
TORSDOF 5
ENDMDL
MODEL 5
REMARK VINA RESULT: -7.253271194      3.129      5.420
REMARK  5 active torsions:
REMARK  status: ('A' for Active; 'I' for Inactive)
REMARK    1  A    between atoms: C2_2  and  C3_3 
REMARK    2  A    between atoms: C4_4  and  C5_5 
REMARK    3  A    between atoms: C5_5  and  C6_6 
REMARK       I    between atoms: C6_6  and  N1_8 
REMARK    4  A    between atoms: N1_8  and  C7_10 
REMARK    5  A    between atoms: C7_10  and  C10_13 
ROOT
HETATM    1  C3  UNL     1       6.908   4.050  27.588  1.00  0.00     0.015 C 
HETATM    2  C4  UNL     1       7.765   2.812  27.352  1.00  0.00     0.019 C 
HETATM    3  C12 UNL     1       8.278   2.861  25.933  1.00  0.00     0.144 C 
HETATM    4  N2  UNL     1       7.210   3.097  25.004  1.00  0.00    -0.340 N 
ATOM      5  H2  UNL     1       7.032   2.472  24.219  1.00  0.00     0.179 HD
HETATM    6  N3  UNL     1       6.517   4.103  25.210  1.00  0.00    -0.336 N 
ATOM      7  H3  UNL     1       5.736   4.355  24.605  1.00  0.00     0.180 HD
HETATM    8  C13 UNL     1       6.885   4.900  26.366  1.00  0.00     0.099 C 
HETATM    9  C14 UNL     1       5.857   6.006  26.432  1.00  0.00     0.034 C 
ENDROOT
BRANCH   2  10
HETATM   10  C5  UNL     1       6.929   1.615  27.659  1.00  0.00     0.109 C 
BRANCH  10  11
HETATM   11  C6  UNL     1       7.083   1.031  28.985  1.00  0.00     0.218 C 
HETATM   12  O1  UNL     1       7.747  -0.015  29.150  1.00  0.00    -0.274 OA
HETATM   13  N1  UNL     1       6.485   1.633  30.119  1.00  0.00    -0.353 N 
ATOM     14  H1  UNL     1       5.938   2.486  30.008  1.00  0.00     0.163 HD
BRANCH  13  15
HETATM   15  C7  UNL     1       6.642   1.050  31.433  1.00  0.00     0.025 C 
HETATM   16  C8  UNL     1       6.438  -0.454  31.402  1.00  0.00     0.038 C 
HETATM   17  C9  UNL     1       5.613   1.622  32.408  1.00  0.00     0.038 C 
BRANCH  15  18
HETATM   18  C10 UNL     1       8.003   1.304  32.014  1.00  0.00     0.026 C 
HETATM   19  C11 UNL     1       8.425   2.755  31.870  1.00  0.00     0.007 C 
ENDBRANCH  15  18
ENDBRANCH  13  15
ENDBRANCH  10  11
ENDBRANCH   2  10
BRANCH   1  20
HETATM   20  C2  UNL     1       7.443   4.873  28.737  1.00  0.00     0.002 C 
HETATM   21  C1  UNL     1       6.403   5.083  29.816  1.00  0.00     0.005 C 
ENDBRANCH   1  20
TORSDOF 5
ENDMDL
