MODEL 1
REMARK VINA RESULT: -8.557011591      0.000      0.000
REMARK  12 active torsions:
REMARK  status: ('A' for Active; 'I' for Inactive)
REMARK       I    between atoms: N1_4  and  C4_5 
REMARK    1  A    between atoms: C4_5  and  C5_7 
REMARK    2  A    between atoms: C9_11  and  C10_12 
REMARK    3  A    between atoms: C10_12  and  C11_13 
REMARK    4  A    between atoms: C15_20  and  C16_21 
REMARK    5  A    between atoms: C16_21  and  C17_22 
REMARK    6  A    between atoms: C17_22  and  C18_23 
REMARK    7  A    between atoms: C18_23  and  N3_24 
REMARK    8  A    between atoms: C23_34  and  C24_35 
REMARK       I    between atoms: C24_35  and  N7_37 
REMARK    9  A    between atoms: N7_37  and  C25_39 
REMARK   10  A    between atoms: C25_39  and  C26_40 
REMARK   11  A    between atoms: C26_40  and  C27_41 
REMARK   12  A    between atoms: C27_41  and  N8_42 
ROOT
HETATM    1  C5  UNL     1     -11.355  13.480  29.035  1.00  0.00     0.180 C 
HETATM    2  C6  UNL     1     -12.302  12.568  28.264  1.00  0.00     0.037 C 
HETATM    3  C7  UNL     1     -13.409  12.245  29.296  1.00  0.00     0.029 C 
HETATM    4  C8  UNL     1     -12.540  12.152  30.513  1.00  0.00     0.101 C 
HETATM    5  C9  UNL     1     -13.290  11.893  31.800  1.00  0.00     0.101 C 
HETATM    6  C14 UNL     1     -14.024  13.198  32.003  1.00  0.00     0.228 C 
HETATM    7  O2  UNL     1     -15.164  13.327  31.553  1.00  0.00    -0.273 OA
HETATM    8  N2  UNL     1     -13.430  14.305  32.706  1.00  0.00    -0.322 N 
ATOM      9  H2  UNL     1     -14.034  14.810  33.354  1.00  0.00     0.169 HD
HETATM   10  C15 UNL     1     -12.066  14.778  32.593  1.00  0.00     0.099 C 
HETATM   11  C20 UNL     1     -11.328  14.183  31.482  1.00  0.00     0.271 C 
HETATM   12  O3  UNL     1     -10.108  14.504  31.435  1.00  0.00    -0.266 OA
HETATM   13  N6  UNL     1     -11.741  13.314  30.453  1.00  0.00    -0.328 N 
ENDROOT
BRANCH   1  14
HETATM   14  C4  UNL     1     -11.650  14.848  28.537  1.00  0.00     0.243 C 
HETATM   15  N1  UNL     1     -10.723  15.702  27.953  1.00  0.00    -0.346 N 
HETATM   16  C3  UNL     1     -11.120  17.014  27.504  1.00  0.00     0.160 C 
HETATM   17  C21 UNL     1      -9.337  15.331  27.765  1.00  0.00     0.127 C 
HETATM   18  C2  UNL     1      -9.998  17.791  26.896  1.00  0.00    -0.058 C 
HETATM   19  C1  UNL     1     -10.234  18.436  25.764  1.00  0.00     0.017 C 
HETATM   20  C23 UNL     1      -8.710  17.778  27.619  1.00  0.00     0.109 C 
HETATM   21  C22 UNL     1      -8.421  16.432  28.199  1.00  0.00     0.038 C 
HETATM   22  O1  UNL     1     -12.842  15.242  28.666  1.00  0.00    -0.271 OA
BRANCH  20  23
HETATM   23  C24 UNL     1      -7.628  18.215  26.674  1.00  0.00     0.226 C 
HETATM   24  O4  UNL     1      -7.216  19.383  26.864  1.00  0.00    -0.273 OA
HETATM   25  N7  UNL     1      -7.176  17.337  25.699  1.00  0.00    -0.360 N 
ATOM     26  H7  UNL     1      -7.647  16.432  25.670  1.00  0.00     0.162 HD
BRANCH  25  27
HETATM   27  C25 UNL     1      -6.156  17.521  24.741  1.00  0.00     0.124 C 
BRANCH  27  28
HETATM   28  C26 UNL     1      -6.515  17.969  23.372  1.00  0.00     0.047 C 
BRANCH  28  29
HETATM   29  C27 UNL     1      -7.911  17.907  22.916  1.00  0.00     0.237 C 
BRANCH  29  30
HETATM   30  N8  UNL     1      -8.078  17.010  21.768  1.00  0.00    -0.079 N 
HETATM   31  C28 UNL     1      -9.113  17.446  20.882  1.00  0.00     0.271 C 
HETATM   32  C29 UNL     1      -6.828  16.900  21.028  1.00  0.00     0.271 C 
HETATM   33  C30 UNL     1      -8.381  15.689  22.272  1.00  0.00     0.271 C 
ENDBRANCH  29  30
ENDBRANCH  28  29
ENDBRANCH  27  28
ENDBRANCH  25  27
ENDBRANCH  20  23
ENDBRANCH   1  14
BRANCH   5  34
HETATM   34  C10 UNL     1     -14.167  10.721  31.619  1.00  0.00     0.020 C 
BRANCH  34  35
HETATM   35  C11 UNL     1     -13.699   9.434  32.188  1.00  0.00    -0.022 C 
HETATM   36  C12 UNL     1     -13.210   9.617  33.635  1.00  0.00     0.009 C 
HETATM   37  C13 UNL     1     -12.795   8.558  31.431  1.00  0.00     0.009 C 
ENDBRANCH  34  35
ENDBRANCH   5  34
BRANCH  10  38
HETATM   38  C16 UNL     1     -11.340  15.005  33.849  1.00  0.00     0.010 C 
BRANCH  38  39
HETATM   39  C17 UNL     1     -11.010  16.347  34.335  1.00  0.00     0.049 C 
BRANCH  39  40
HETATM   40  C18 UNL     1      -9.571  16.731  34.435  1.00  0.00     0.126 C 
BRANCH  40  41
HETATM   41  N3  UNL     1      -8.939  16.986  33.185  1.00  0.00    -0.367 N 
HETATM   42  C19 UNL     1      -7.904  16.446  32.687  1.00  0.00     0.196 C 
HETATM   43  N4  UNL     1      -7.463  16.893  31.385  1.00  0.00    -0.067 NA
HETATM   44  N5  UNL     1      -7.122  15.431  33.274  1.00  0.00    -0.067 NA
ATOM     45  H3  UNL     1      -9.379  17.704  32.609  1.00  0.00     0.161 HD
ENDBRANCH  40  41
ENDBRANCH  39  40
ENDBRANCH  38  39
ENDBRANCH  10  38
TORSDOF 12
ENDMDL
MODEL 2
REMARK VINA RESULT: -8.554312086      3.476      5.735
REMARK  12 active torsions:
REMARK  status: ('A' for Active; 'I' for Inactive)
REMARK       I    between atoms: N1_4  and  C4_5 
REMARK    1  A    between atoms: C4_5  and  C5_7 
REMARK    2  A    between atoms: C9_11  and  C10_12 
REMARK    3  A    between atoms: C10_12  and  C11_13 
REMARK    4  A    between atoms: C15_20  and  C16_21 
REMARK    5  A    between atoms: C16_21  and  C17_22 
REMARK    6  A    between atoms: C17_22  and  C18_23 
REMARK    7  A    between atoms: C18_23  and  N3_24 
REMARK    8  A    between atoms: C23_34  and  C24_35 
REMARK       I    between atoms: C24_35  and  N7_37 
REMARK    9  A    between atoms: N7_37  and  C25_39 
REMARK   10  A    between atoms: C25_39  and  C26_40 
REMARK   11  A    between atoms: C26_40  and  C27_41 
REMARK   12  A    between atoms: C27_41  and  N8_42 
ROOT
HETATM    1  C5  UNL     1      -8.950  16.143  26.129  1.00  0.00     0.180 C 
HETATM    2  C6  UNL     1     -10.336  16.068  25.501  1.00  0.00     0.037 C 
HETATM    3  C7  UNL     1     -11.281  16.428  26.672  1.00  0.00     0.029 C 
HETATM    4  C8  UNL     1     -10.530  15.733  27.767  1.00  0.00     0.101 C 
HETATM    5  C9  UNL     1     -11.131  15.905  29.144  1.00  0.00     0.101 C 
HETATM    6  C14 UNL     1     -10.865  17.366  29.423  1.00  0.00     0.228 C 
HETATM    7  O2  UNL     1     -11.719  18.203  29.123  1.00  0.00    -0.273 OA
HETATM    8  N2  UNL     1      -9.639  17.816  30.027  1.00  0.00    -0.322 N 
ATOM      9  H2  UNL     1      -9.721  18.540  30.740  1.00  0.00     0.169 HD
HETATM   10  C15 UNL     1      -8.300  17.351  29.730  1.00  0.00     0.099 C 
HETATM   11  C20 UNL     1      -8.221  16.505  28.542  1.00  0.00     0.271 C 
HETATM   12  O3  UNL     1      -7.081  16.006  28.332  1.00  0.00    -0.266 OA
HETATM   13  N6  UNL     1      -9.195  16.153  27.588  1.00  0.00    -0.328 N 
ENDROOT
BRANCH   1  14
HETATM   14  C4  UNL     1      -8.382  17.431  25.655  1.00  0.00     0.243 C 
HETATM   15  N1  UNL     1      -7.088  17.607  25.181  1.00  0.00    -0.346 N 
HETATM   16  C3  UNL     1      -6.640  18.906  24.744  1.00  0.00     0.160 C 
HETATM   17  C21 UNL     1      -6.137  16.519  25.100  1.00  0.00     0.127 C 
HETATM   18  C2  UNL     1      -5.226  18.909  24.261  1.00  0.00    -0.058 C 
HETATM   19  C1  UNL     1      -4.958  19.551  23.136  1.00  0.00     0.017 C 
HETATM   20  C23 UNL     1      -4.238  18.190  25.090  1.00  0.00     0.109 C 
HETATM   21  C22 UNL     1      -4.805  16.925  25.648  1.00  0.00     0.038 C 
HETATM   22  O1  UNL     1      -9.154  18.428  25.695  1.00  0.00    -0.271 OA
BRANCH  20  23
HETATM   23  C24 UNL     1      -3.017  17.927  24.257  1.00  0.00     0.226 C 
HETATM   24  O4  UNL     1      -2.117  18.793  24.367  1.00  0.00    -0.273 OA
HETATM   25  N7  UNL     1      -2.966  16.793  23.458  1.00  0.00    -0.360 N 
ATOM     26  H7  UNL     1      -3.804  16.210  23.468  1.00  0.00     0.162 HD
BRANCH  25  27
HETATM   27  C25 UNL     1      -1.918  16.334  22.632  1.00  0.00     0.124 C 
BRANCH  27  28
HETATM   28  C26 UNL     1      -0.897  15.415  23.197  1.00  0.00     0.047 C 
BRANCH  28  29
HETATM   29  C27 UNL     1      -1.180  14.659  24.425  1.00  0.00     0.237 C 
BRANCH  29  30
HETATM   30  N8  UNL     1      -0.174  13.623  24.681  1.00  0.00    -0.079 N 
HETATM   31  C28 UNL     1       0.231  13.585  26.052  1.00  0.00     0.271 C 
HETATM   32  C29 UNL     1      -0.690  12.315  24.297  1.00  0.00     0.271 C 
HETATM   33  C30 UNL     1       0.967  13.886  23.834  1.00  0.00     0.271 C 
ENDBRANCH  29  30
ENDBRANCH  28  29
ENDBRANCH  27  28
ENDBRANCH  25  27
ENDBRANCH  20  23
ENDBRANCH   1  14
BRANCH   5  34
HETATM   34  C10 UNL     1     -12.560  15.542  29.096  1.00  0.00     0.020 C 
BRANCH  34  35
HETATM   35  C11 UNL     1     -12.898  14.108  29.264  1.00  0.00    -0.022 C 
HETATM   36  C12 UNL     1     -11.910  13.417  30.218  1.00  0.00     0.009 C 
HETATM   37  C13 UNL     1     -13.192  13.260  28.100  1.00  0.00     0.009 C 
ENDBRANCH  34  35
ENDBRANCH   5  34
BRANCH  10  38
HETATM   38  C16 UNL     1      -7.457  16.992  30.879  1.00  0.00     0.010 C 
BRANCH  38  39
HETATM   39  C17 UNL     1      -7.943  17.052  32.260  1.00  0.00     0.049 C 
BRANCH  39  40
HETATM   40  C18 UNL     1      -8.477  15.803  32.878  1.00  0.00     0.126 C 
BRANCH  40  41
HETATM   41  N3  UNL     1      -9.871  15.593  32.677  1.00  0.00    -0.367 N 
HETATM   42  C19 UNL     1     -10.849  15.978  33.389  1.00  0.00     0.196 C 
HETATM   43  N4  UNL     1     -12.183  15.626  32.960  1.00  0.00    -0.067 NA
HETATM   44  N5  UNL     1     -10.776  16.732  34.576  1.00  0.00    -0.067 NA
ATOM     45  H3  UNL     1     -10.118  15.057  31.844  1.00  0.00     0.161 HD
ENDBRANCH  40  41
ENDBRANCH  39  40
ENDBRANCH  38  39
ENDBRANCH  10  38
TORSDOF 12
ENDMDL
MODEL 3
REMARK VINA RESULT: -8.498143756      2.701      5.009
REMARK  12 active torsions:
REMARK  status: ('A' for Active; 'I' for Inactive)
REMARK       I    between atoms: N1_4  and  C4_5 
REMARK    1  A    between atoms: C4_5  and  C5_7 
REMARK    2  A    between atoms: C9_11  and  C10_12 
REMARK    3  A    between atoms: C10_12  and  C11_13 
REMARK    4  A    between atoms: C15_20  and  C16_21 
REMARK    5  A    between atoms: C16_21  and  C17_22 
REMARK    6  A    between atoms: C17_22  and  C18_23 
REMARK    7  A    between atoms: C18_23  and  N3_24 
REMARK    8  A    between atoms: C23_34  and  C24_35 
REMARK       I    between atoms: C24_35  and  N7_37 
REMARK    9  A    between atoms: N7_37  and  C25_39 
REMARK   10  A    between atoms: C25_39  and  C26_40 
REMARK   11  A    between atoms: C26_40  and  C27_41 
REMARK   12  A    between atoms: C27_41  and  N8_42 
ROOT
HETATM    1  C5  UNL     1      -8.950  16.157  26.138  1.00  0.00     0.180 C 
HETATM    2  C6  UNL     1     -10.337  16.060  25.516  1.00  0.00     0.037 C 
HETATM    3  C7  UNL     1     -11.284  16.399  26.692  1.00  0.00     0.029 C 
HETATM    4  C8  UNL     1     -10.517  15.713  27.781  1.00  0.00     0.101 C 
HETATM    5  C9  UNL     1     -11.115  15.869  29.161  1.00  0.00     0.101 C 
HETATM    6  C14 UNL     1     -10.874  17.334  29.444  1.00  0.00     0.228 C 
HETATM    7  O2  UNL     1     -11.744  18.157  29.150  1.00  0.00    -0.273 OA
HETATM    8  N2  UNL     1      -9.653  17.804  30.045  1.00  0.00    -0.322 N 
ATOM      9  H2  UNL     1      -9.746  18.524  30.761  1.00  0.00     0.169 HD
HETATM   10  C15 UNL     1      -8.308  17.364  29.741  1.00  0.00     0.099 C 
HETATM   11  C20 UNL     1      -8.218  16.525  28.549  1.00  0.00     0.271 C 
HETATM   12  O3  UNL     1      -7.070  16.047  28.333  1.00  0.00    -0.266 OA
HETATM   13  N6  UNL     1      -9.190  16.158  27.598  1.00  0.00    -0.328 N 
ENDROOT
BRANCH   1  14
HETATM   14  C4  UNL     1      -8.408  17.458  25.666  1.00  0.00     0.243 C 
HETATM   15  N1  UNL     1      -7.139  17.646  25.132  1.00  0.00    -0.346 N 
HETATM   16  C3  UNL     1      -6.715  18.956  24.704  1.00  0.00     0.160 C 
HETATM   17  C21 UNL     1      -6.193  16.562  24.978  1.00  0.00     0.127 C 
HETATM   18  C2  UNL     1      -5.327  18.972  24.149  1.00  0.00    -0.058 C 
HETATM   19  C1  UNL     1      -5.116  19.642  23.028  1.00  0.00     0.017 C 
HETATM   20  C23 UNL     1      -4.298  18.236  24.911  1.00  0.00     0.109 C 
HETATM   21  C22 UNL     1      -4.835  16.958  25.466  1.00  0.00     0.038 C 
HETATM   22  O1  UNL     1      -9.177  18.452  25.769  1.00  0.00    -0.271 OA
BRANCH  20  23
HETATM   23  C24 UNL     1      -3.121  17.994  24.010  1.00  0.00     0.226 C 
HETATM   24  O4  UNL     1      -2.183  18.815  24.151  1.00  0.00    -0.273 OA
HETATM   25  N7  UNL     1      -3.145  16.927  23.124  1.00  0.00    -0.360 N 
ATOM     26  H7  UNL     1      -4.005  16.376  23.123  1.00  0.00     0.162 HD
BRANCH  25  27
HETATM   27  C25 UNL     1      -2.148  16.495  22.223  1.00  0.00     0.124 C 
BRANCH  27  28
HETATM   28  C26 UNL     1      -2.435  16.495  20.766  1.00  0.00     0.047 C 
BRANCH  28  29
HETATM   29  C27 UNL     1      -3.118  17.640  20.147  1.00  0.00     0.237 C 
BRANCH  29  30
HETATM   30  N8  UNL     1      -4.275  17.225  19.345  1.00  0.00    -0.079 N 
HETATM   31  C28 UNL     1      -4.087  15.942  18.743  1.00  0.00     0.271 C 
HETATM   32  C29 UNL     1      -5.475  17.197  20.171  1.00  0.00     0.271 C 
HETATM   33  C30 UNL     1      -4.495  18.225  18.325  1.00  0.00     0.271 C 
ENDBRANCH  29  30
ENDBRANCH  28  29
ENDBRANCH  27  28
ENDBRANCH  25  27
ENDBRANCH  20  23
ENDBRANCH   1  14
BRANCH   5  34
HETATM   34  C10 UNL     1     -12.537  15.481  29.117  1.00  0.00     0.020 C 
BRANCH  34  35
HETATM   35  C11 UNL     1     -12.852  14.048  29.330  1.00  0.00    -0.022 C 
HETATM   36  C12 UNL     1     -11.856  13.404  30.308  1.00  0.00     0.009 C 
HETATM   37  C13 UNL     1     -13.126  13.159  28.192  1.00  0.00     0.009 C 
ENDBRANCH  34  35
ENDBRANCH   5  34
BRANCH  10  38
HETATM   38  C16 UNL     1      -7.454  17.017  30.885  1.00  0.00     0.010 C 
BRANCH  38  39
HETATM   39  C17 UNL     1      -7.927  17.090  32.270  1.00  0.00     0.049 C 
BRANCH  39  40
HETATM   40  C18 UNL     1      -8.449  15.846  32.907  1.00  0.00     0.126 C 
BRANCH  40  41
HETATM   41  N3  UNL     1      -9.842  15.621  32.713  1.00  0.00    -0.367 N 
HETATM   42  C19 UNL     1     -10.820  16.003  33.426  1.00  0.00     0.196 C 
HETATM   43  N4  UNL     1     -12.152  15.636  33.005  1.00  0.00    -0.067 NA
HETATM   44  N5  UNL     1     -10.750  16.769  34.606  1.00  0.00    -0.067 NA
ATOM     45  H3  UNL     1     -10.087  15.076  31.886  1.00  0.00     0.161 HD
ENDBRANCH  40  41
ENDBRANCH  39  40
ENDBRANCH  38  39
ENDBRANCH  10  38
TORSDOF 12
ENDMDL
MODEL 4
REMARK VINA RESULT: -8.410708715      2.735     11.318
REMARK  12 active torsions:
REMARK  status: ('A' for Active; 'I' for Inactive)
REMARK       I    between atoms: N1_4  and  C4_5 
REMARK    1  A    between atoms: C4_5  and  C5_7 
REMARK    2  A    between atoms: C9_11  and  C10_12 
REMARK    3  A    between atoms: C10_12  and  C11_13 
REMARK    4  A    between atoms: C15_20  and  C16_21 
REMARK    5  A    between atoms: C16_21  and  C17_22 
REMARK    6  A    between atoms: C17_22  and  C18_23 
REMARK    7  A    between atoms: C18_23  and  N3_24 
REMARK    8  A    between atoms: C23_34  and  C24_35 
REMARK       I    between atoms: C24_35  and  N7_37 
REMARK    9  A    between atoms: N7_37  and  C25_39 
REMARK   10  A    between atoms: C25_39  and  C26_40 
REMARK   11  A    between atoms: C26_40  and  C27_41 
REMARK   12  A    between atoms: C27_41  and  N8_42 
ROOT
HETATM    1  C5  UNL     1      -6.146  16.918  26.526  1.00  0.00     0.180 C 
HETATM    2  C6  UNL     1      -4.938  17.393  27.322  1.00  0.00     0.037 C 
HETATM    3  C7  UNL     1      -4.304  18.468  26.406  1.00  0.00     0.029 C 
HETATM    4  C8  UNL     1      -4.561  17.798  25.091  1.00  0.00     0.101 C 
HETATM    5  C9  UNL     1      -4.118  18.598  23.885  1.00  0.00     0.101 C 
HETATM    6  C14 UNL     1      -5.108  19.740  23.886  1.00  0.00     0.228 C 
HETATM    7  O2  UNL     1      -4.826  20.783  24.479  1.00  0.00    -0.273 OA
HETATM    8  N2  UNL     1      -6.378  19.648  23.216  1.00  0.00    -0.322 N 
ATOM      9  H2  UNL     1      -6.677  20.470  22.692  1.00  0.00     0.169 HD
HETATM   10  C15 UNL     1      -7.278  18.513  23.206  1.00  0.00     0.099 C 
HETATM   11  C20 UNL     1      -6.920  17.470  24.163  1.00  0.00     0.271 C 
HETATM   12  O3  UNL     1      -7.631  16.430  24.092  1.00  0.00    -0.266 OA
HETATM   13  N6  UNL     1      -5.920  17.425  25.155  1.00  0.00    -0.328 N 
ENDROOT
BRANCH   1  14
HETATM   14  C4  UNL     1      -7.313  17.571  27.173  1.00  0.00     0.243 C 
HETATM   15  N1  UNL     1      -8.519  16.944  27.465  1.00  0.00    -0.346 N 
HETATM   16  C3  UNL     1      -9.588  17.677  28.096  1.00  0.00     0.160 C 
HETATM   17  C21 UNL     1      -8.763  15.551  27.158  1.00  0.00     0.127 C 
HETATM   18  C2  UNL     1     -10.805  16.845  28.341  1.00  0.00    -0.058 C 
HETATM   19  C1  UNL     1     -11.394  16.943  29.522  1.00  0.00     0.017 C 
HETATM   20  C23 UNL     1     -11.255  15.980  27.232  1.00  0.00     0.109 C 
HETATM   21  C22 UNL     1     -10.099  15.368  26.510  1.00  0.00     0.038 C 
HETATM   22  O1  UNL     1      -7.174  18.789  27.470  1.00  0.00    -0.271 OA
BRANCH  20  23
HETATM   23  C24 UNL     1     -12.176  14.932  27.788  1.00  0.00     0.226 C 
HETATM   24  O4  UNL     1     -13.395  15.170  27.615  1.00  0.00    -0.273 OA
HETATM   25  N7  UNL     1     -11.642  13.821  28.424  1.00  0.00    -0.360 N 
ATOM     26  H7  UNL     1     -10.625  13.805  28.501  1.00  0.00     0.162 HD
BRANCH  25  27
HETATM   27  C25 UNL     1     -12.309  12.709  28.981  1.00  0.00     0.124 C 
BRANCH  27  28
HETATM   28  C26 UNL     1     -12.511  12.643  30.451  1.00  0.00     0.047 C 
BRANCH  28  29
HETATM   29  C27 UNL     1     -12.883  11.373  31.090  1.00  0.00     0.237 C 
BRANCH  29  30
HETATM   30  N8  UNL     1     -13.928  11.549  32.104  1.00  0.00    -0.079 N 
HETATM   31  C28 UNL     1     -13.669  10.793  33.289  1.00  0.00     0.271 C 
HETATM   32  C29 UNL     1     -14.058  12.958  32.452  1.00  0.00     0.271 C 
HETATM   33  C30 UNL     1     -15.189  11.146  31.523  1.00  0.00     0.271 C 
ENDBRANCH  29  30
ENDBRANCH  28  29
ENDBRANCH  27  28
ENDBRANCH  25  27
ENDBRANCH  20  23
ENDBRANCH   1  14
BRANCH   5  34
HETATM   34  C10 UNL     1      -2.713  19.006  24.067  1.00  0.00     0.020 C 
BRANCH  34  35
HETATM   35  C11 UNL     1      -1.691  18.275  23.281  1.00  0.00    -0.022 C 
HETATM   36  C12 UNL     1      -2.238  17.874  21.901  1.00  0.00     0.009 C 
HETATM   37  C13 UNL     1      -0.918  17.179  23.882  1.00  0.00     0.009 C 
ENDBRANCH  34  35
ENDBRANCH   5  34
BRANCH  10  38
HETATM   38  C16 UNL     1      -7.788  18.089  21.896  1.00  0.00     0.010 C 
BRANCH  38  39
HETATM   39  C17 UNL     1      -6.966  18.120  20.684  1.00  0.00     0.049 C 
BRANCH  39  40
HETATM   40  C18 UNL     1      -5.964  17.032  20.479  1.00  0.00     0.126 C 
BRANCH  40  41
HETATM   41  N3  UNL     1      -5.635  16.780  19.116  1.00  0.00    -0.367 N 
HETATM   42  C19 UNL     1      -4.628  16.174  18.636  1.00  0.00     0.196 C 
HETATM   43  N4  UNL     1      -4.528  16.054  17.200  1.00  0.00    -0.067 NA
HETATM   44  N5  UNL     1      -3.576  15.586  19.366  1.00  0.00    -0.067 NA
ATOM     45  H3  UNL     1      -6.301  17.137  18.431  1.00  0.00     0.161 HD
ENDBRANCH  40  41
ENDBRANCH  39  40
ENDBRANCH  38  39
ENDBRANCH  10  38
TORSDOF 12
ENDMDL
MODEL 5
REMARK VINA RESULT: -8.365164083      2.604     11.208
REMARK  12 active torsions:
REMARK  status: ('A' for Active; 'I' for Inactive)
REMARK       I    between atoms: N1_4  and  C4_5 
REMARK    1  A    between atoms: C4_5  and  C5_7 
REMARK    2  A    between atoms: C9_11  and  C10_12 
REMARK    3  A    between atoms: C10_12  and  C11_13 
REMARK    4  A    between atoms: C15_20  and  C16_21 
REMARK    5  A    between atoms: C16_21  and  C17_22 
REMARK    6  A    between atoms: C17_22  and  C18_23 
REMARK    7  A    between atoms: C18_23  and  N3_24 
REMARK    8  A    between atoms: C23_34  and  C24_35 
REMARK       I    between atoms: C24_35  and  N7_37 
REMARK    9  A    between atoms: N7_37  and  C25_39 
REMARK   10  A    between atoms: C25_39  and  C26_40 
REMARK   11  A    between atoms: C26_40  and  C27_41 
REMARK   12  A    between atoms: C27_41  and  N8_42 
ROOT
HETATM    1  C5  UNL     1      -6.148  16.943  26.460  1.00  0.00     0.180 C 
HETATM    2  C6  UNL     1      -4.937  17.399  27.264  1.00  0.00     0.037 C 
HETATM    3  C7  UNL     1      -4.286  18.471  26.357  1.00  0.00     0.029 C 
HETATM    4  C8  UNL     1      -4.545  17.812  25.036  1.00  0.00     0.101 C 
HETATM    5  C9  UNL     1      -4.088  18.613  23.837  1.00  0.00     0.101 C 
HETATM    6  C14 UNL     1      -5.064  19.767  23.840  1.00  0.00     0.228 C 
HETATM    7  O2  UNL     1      -4.772  20.803  24.441  1.00  0.00    -0.273 OA
HETATM    8  N2  UNL     1      -6.333  19.695  23.165  1.00  0.00    -0.322 N 
ATOM      9  H2  UNL     1      -6.620  20.524  22.644  1.00  0.00     0.169 HD
HETATM   10  C15 UNL     1      -7.246  18.571  23.144  1.00  0.00     0.099 C 
HETATM   11  C20 UNL     1      -6.904  17.519  24.098  1.00  0.00     0.271 C 
HETATM   12  O3  UNL     1      -7.628  16.487  24.017  1.00  0.00    -0.266 OA
HETATM   13  N6  UNL     1      -5.909  17.455  25.093  1.00  0.00    -0.328 N 
ENDROOT
BRANCH   1  14
HETATM   14  C4  UNL     1      -7.309  17.607  27.106  1.00  0.00     0.243 C 
HETATM   15  N1  UNL     1      -8.507  16.981  27.431  1.00  0.00    -0.346 N 
HETATM   16  C3  UNL     1      -9.572  17.725  28.057  1.00  0.00     0.160 C 
HETATM   17  C21 UNL     1      -8.747  15.580  27.164  1.00  0.00     0.127 C 
HETATM   18  C2  UNL     1     -10.781  16.893  28.342  1.00  0.00    -0.058 C 
HETATM   19  C1  UNL     1     -11.353  17.019  29.528  1.00  0.00     0.017 C 
HETATM   20  C23 UNL     1     -11.240  15.997  27.261  1.00  0.00     0.109 C 
HETATM   21  C22 UNL     1     -10.091  15.372  26.540  1.00  0.00     0.038 C 
HETATM   22  O1  UNL     1      -7.173  18.833  27.369  1.00  0.00    -0.271 OA
BRANCH  20  23
HETATM   23  C24 UNL     1     -12.148  14.959  27.857  1.00  0.00     0.226 C 
HETATM   24  O4  UNL     1     -13.370  15.188  27.699  1.00  0.00    -0.273 OA
HETATM   25  N7  UNL     1     -11.599  13.866  28.512  1.00  0.00    -0.360 N 
ATOM     26  H7  UNL     1     -10.580  13.856  28.572  1.00  0.00     0.162 HD
BRANCH  25  27
HETATM   27  C25 UNL     1     -12.252  12.765  29.105  1.00  0.00     0.124 C 
BRANCH  27  28
HETATM   28  C26 UNL     1     -12.492  12.765  30.571  1.00  0.00     0.047 C 
BRANCH  28  29
HETATM   29  C27 UNL     1     -11.827  13.757  31.429  1.00  0.00     0.237 C 
BRANCH  29  30
HETATM   30  N8  UNL     1     -12.659  14.143  32.574  1.00  0.00    -0.079 N 
HETATM   31  C28 UNL     1     -13.670  13.174  32.862  1.00  0.00     0.271 C 
HETATM   32  C29 UNL     1     -11.829  14.337  33.756  1.00  0.00     0.271 C 
HETATM   33  C30 UNL     1     -13.266  15.421  32.276  1.00  0.00     0.271 C 
ENDBRANCH  29  30
ENDBRANCH  28  29
ENDBRANCH  27  28
ENDBRANCH  25  27
ENDBRANCH  20  23
ENDBRANCH   1  14
BRANCH   5  34
HETATM   34  C10 UNL     1      -2.679  19.003  24.027  1.00  0.00     0.020 C 
BRANCH  34  35
HETATM   35  C11 UNL     1      -1.654  18.197  23.321  1.00  0.00    -0.022 C 
HETATM   36  C12 UNL     1      -2.069  17.932  21.865  1.00  0.00     0.009 C 
HETATM   37  C13 UNL     1      -1.088  16.990  23.938  1.00  0.00     0.009 C 
ENDBRANCH  34  35
ENDBRANCH   5  34
BRANCH  10  38
HETATM   38  C16 UNL     1      -7.756  18.160  21.830  1.00  0.00     0.010 C 
BRANCH  38  39
HETATM   39  C17 UNL     1      -6.909  18.122  20.635  1.00  0.00     0.049 C 
BRANCH  39  40
HETATM   40  C18 UNL     1      -6.017  16.942  20.436  1.00  0.00     0.126 C 
BRANCH  40  41
HETATM   41  N3  UNL     1      -5.647  16.702  19.082  1.00  0.00    -0.367 N 
HETATM   42  C19 UNL     1      -4.614  16.121  18.627  1.00  0.00     0.196 C 
HETATM   43  N4  UNL     1      -4.475  16.008  17.193  1.00  0.00    -0.067 NA
HETATM   44  N5  UNL     1      -3.567  15.557  19.381  1.00  0.00    -0.067 NA
ATOM     45  H3  UNL     1      -6.304  17.045  18.380  1.00  0.00     0.161 HD
ENDBRANCH  40  41
ENDBRANCH  39  40
ENDBRANCH  38  39
ENDBRANCH  10  38
TORSDOF 12
ENDMDL
