MODEL 1
REMARK VINA RESULT: -6.975447974      0.000      0.000
REMARK  10 active torsions:
REMARK  status: ('A' for Active; 'I' for Inactive)
REMARK    1  A    between atoms: N3_4  and  C2_6 
REMARK    2  A    between atoms: C2_6  and  C3_7 
REMARK    3  A    between atoms: C3_7  and  C4_8 
REMARK    4  A    between atoms: C4_8  and  C5_9 
REMARK    5  A    between atoms: C5_9  and  N4_10 
REMARK    6  A    between atoms: C5_9  and  C6_14 
REMARK       I    between atoms: C6_14  and  N5_16 
REMARK    7  A    between atoms: N5_16  and  N6_18 
REMARK    8  A    between atoms: N6_18  and  C7_20 
REMARK    9  A    between atoms: C7_20  and  C8_25 
REMARK   10  A    between atoms: N7_21  and  O2_23 
ROOT
HETATM    1  C6  UNL     1     -10.923  74.368  20.684  1.00  0.00     0.266 C 
HETATM    2  O1  UNL     1     -11.366  74.570  19.524  1.00  0.00    -0.269 OA
HETATM    3  N5  UNL     1     -10.508  73.035  20.951  1.00  0.00    -0.267 N 
ATOM      4  H5  UNL     1     -10.142  72.829  21.881  1.00  0.00     0.190 HD
ENDROOT
BRANCH   3   5
HETATM    5  N6  UNL     1     -10.564  71.988  20.030  1.00  0.00    -0.280 N 
ATOM      6  H6  UNL     1     -10.892  72.212  19.090  1.00  0.00     0.189 HD
BRANCH   5   7
HETATM    7  C7  UNL     1     -10.209  70.650  20.283  1.00  0.00     0.168 C 
HETATM    8  N7  UNL     1      -9.063  70.312  20.703  1.00  0.00    -0.250 N 
ATOM      9  H7  UNL     1      -8.390  71.064  20.854  1.00  0.00     0.196 HD
BRANCH   8  10
HETATM   10  O2  UNL     1      -8.641  69.059  20.971  1.00  0.00    -0.288 OA
ATOM     11  H2  UNL     1      -7.977  68.808  21.602  1.00  0.00     0.244 HD
ENDBRANCH   8  10
BRANCH   7  12
HETATM   12  C8  UNL     1     -11.190  69.570  20.054  1.00  0.00     0.095 A 
HETATM   13  C9  UNL     1     -12.329  69.556  20.834  1.00  0.00     0.040 A 
HETATM   14  C10 UNL     1     -13.284  68.572  20.662  1.00  0.00     0.078 A 
HETATM   15  C11 UNL     1     -13.032  67.636  19.693  1.00  0.00     0.259 A 
HETATM   16  O3  UNL     1     -13.896  66.721  19.517  1.00  0.00    -0.267 OA
HETATM   17  N8  UNL     1     -11.920  67.689  18.964  1.00  0.00    -0.266 N 
HETATM   18  N9  UNL     1     -11.016  68.632  19.136  1.00  0.00    -0.294 N 
ATOM     19  H8  UNL     1     -11.763  66.979  18.250  1.00  0.00     0.190 HD
ATOM     20  H9  UNL     1     -10.176  68.640  18.557  1.00  0.00     0.187 HD
ENDBRANCH   7  12
ENDBRANCH   5   7
ENDBRANCH   3   5
BRANCH   1  21
HETATM   21  C5  UNL     1     -10.807  75.355  21.737  1.00  0.00     0.276 C 
BRANCH  21  22
HETATM   22  C4  UNL     1      -9.937  75.018  22.889  1.00  0.00     0.044 C 
BRANCH  22  23
HETATM   23  C3  UNL     1      -8.740  75.857  23.106  1.00  0.00     0.022 C 
BRANCH  23  24
HETATM   24  C2  UNL     1      -7.673  74.943  23.737  1.00  0.00     0.122 C 
BRANCH  24  25
HETATM   25  N3  UNL     1      -7.926  73.583  23.288  1.00  0.00    -0.367 N 
HETATM   26  C1  UNL     1      -7.052  72.657  23.324  1.00  0.00     0.196 C 
HETATM   27  N1  UNL     1      -7.400  71.368  22.864  1.00  0.00    -0.067 NA
HETATM   28  N2  UNL     1      -5.757  72.948  23.824  1.00  0.00    -0.067 NA
ATOM     29  H3  UNL     1      -8.852  73.359  22.926  1.00  0.00     0.161 HD
ENDBRANCH  24  25
ENDBRANCH  23  24
ENDBRANCH  22  23
ENDBRANCH  21  22
BRANCH  21  30
HETATM   30  N4  UNL     1     -10.507  76.654  21.172  1.00  0.00    -0.066 N 
ATOM     31  H43 UNL     1     -10.207  77.307  21.896  1.00  0.00     0.275 HD
ATOM     32  H42 UNL     1      -9.653  76.622  20.615  1.00  0.00     0.275 HD
ATOM     33  H41 UNL     1     -11.283  77.036  20.631  1.00  0.00     0.275 HD
ENDBRANCH  21  30
ENDBRANCH   1  21
TORSDOF 10
ENDMDL
MODEL 2
REMARK VINA RESULT: -6.659276755      3.000      4.341
REMARK  10 active torsions:
REMARK  status: ('A' for Active; 'I' for Inactive)
REMARK    1  A    between atoms: N3_4  and  C2_6 
REMARK    2  A    between atoms: C2_6  and  C3_7 
REMARK    3  A    between atoms: C3_7  and  C4_8 
REMARK    4  A    between atoms: C4_8  and  C5_9 
REMARK    5  A    between atoms: C5_9  and  N4_10 
REMARK    6  A    between atoms: C5_9  and  C6_14 
REMARK       I    between atoms: C6_14  and  N5_16 
REMARK    7  A    between atoms: N5_16  and  N6_18 
REMARK    8  A    between atoms: N6_18  and  C7_20 
REMARK    9  A    between atoms: C7_20  and  C8_25 
REMARK   10  A    between atoms: N7_21  and  O2_23 
ROOT
HETATM    1  C6  UNL     1      -7.506  74.274  23.460  1.00  0.00     0.266 C 
HETATM    2  O1  UNL     1      -7.938  75.428  23.207  1.00  0.00    -0.269 OA
HETATM    3  N5  UNL     1      -8.398  73.210  23.153  1.00  0.00    -0.267 N 
ATOM      4  H5  UNL     1      -8.085  72.258  23.344  1.00  0.00     0.190 HD
ENDROOT
BRANCH   3   5
HETATM    5  N6  UNL     1      -9.672  73.378  22.609  1.00  0.00    -0.280 N 
ATOM      6  H6  UNL     1     -10.308  74.009  23.098  1.00  0.00     0.189 HD
BRANCH   5   7
HETATM    7  C7  UNL     1     -10.158  72.753  21.446  1.00  0.00     0.168 C 
HETATM    8  N7  UNL     1     -10.516  73.400  20.417  1.00  0.00    -0.250 N 
ATOM      9  H7  UNL     1     -10.438  74.416  20.466  1.00  0.00     0.196 HD
BRANCH   8  10
HETATM   10  O2  UNL     1     -10.989  72.883  19.265  1.00  0.00    -0.288 OA
ATOM     11  H2  UNL     1     -11.761  73.169  18.790  1.00  0.00     0.244 HD
ENDBRANCH   8  10
BRANCH   7  12
HETATM   12  C8  UNL     1     -10.272  71.281  21.391  1.00  0.00     0.095 A 
HETATM   13  C9  UNL     1     -11.172  70.671  22.241  1.00  0.00     0.040 A 
HETATM   14  C10 UNL     1     -11.324  69.298  22.232  1.00  0.00     0.078 A 
HETATM   15  C11 UNL     1     -10.543  68.600  21.347  1.00  0.00     0.259 A 
HETATM   16  O3  UNL     1     -10.666  67.336  21.322  1.00  0.00    -0.267 OA
HETATM   17  N8  UNL     1      -9.689  69.231  20.546  1.00  0.00    -0.266 N 
HETATM   18  N9  UNL     1      -9.552  70.541  20.563  1.00  0.00    -0.294 N 
ATOM     19  H8  UNL     1      -9.124  68.684  19.898  1.00  0.00     0.190 HD
ATOM     20  H9  UNL     1      -8.886  70.989  19.932  1.00  0.00     0.187 HD
ENDBRANCH   7  12
ENDBRANCH   5   7
ENDBRANCH   3   5
BRANCH   1  21
HETATM   21  C5  UNL     1      -6.211  73.952  24.022  1.00  0.00     0.276 C 
BRANCH  21  22
HETATM   22  C4  UNL     1      -6.141  73.739  25.488  1.00  0.00     0.044 C 
BRANCH  22  23
HETATM   23  C3  UNL     1      -6.057  72.344  25.969  1.00  0.00     0.022 C 
BRANCH  23  24
HETATM   24  C2  UNL     1      -7.392  72.045  26.679  1.00  0.00     0.122 C 
BRANCH  24  25
HETATM   25  N3  UNL     1      -7.147  71.015  27.675  1.00  0.00    -0.367 N 
HETATM   26  C1  UNL     1      -8.019  70.154  28.026  1.00  0.00     0.196 C 
HETATM   27  N1  UNL     1      -7.679  69.194  29.004  1.00  0.00    -0.067 NA
HETATM   28  N2  UNL     1      -9.302  70.188  27.424  1.00  0.00    -0.067 NA
ATOM     29  H3  UNL     1      -6.228  70.979  28.117  1.00  0.00     0.161 HD
ENDBRANCH  24  25
ENDBRANCH  23  24
ENDBRANCH  22  23
ENDBRANCH  21  22
BRANCH  21  30
HETATM   30  N4  UNL     1      -5.595  72.878  23.272  1.00  0.00    -0.066 N 
ATOM     31  H43 UNL     1      -6.287  72.186  22.988  1.00  0.00     0.275 HD
ATOM     32  H42 UNL     1      -5.295  73.199  22.351  1.00  0.00     0.275 HD
ATOM     33  H41 UNL     1      -4.823  72.439  23.775  1.00  0.00     0.275 HD
ENDBRANCH  21  30
ENDBRANCH   1  21
TORSDOF 10
ENDMDL
MODEL 3
REMARK VINA RESULT: -6.635891136      3.135      3.948
REMARK  10 active torsions:
REMARK  status: ('A' for Active; 'I' for Inactive)
REMARK    1  A    between atoms: N3_4  and  C2_6 
REMARK    2  A    between atoms: C2_6  and  C3_7 
REMARK    3  A    between atoms: C3_7  and  C4_8 
REMARK    4  A    between atoms: C4_8  and  C5_9 
REMARK    5  A    between atoms: C5_9  and  N4_10 
REMARK    6  A    between atoms: C5_9  and  C6_14 
REMARK       I    between atoms: C6_14  and  N5_16 
REMARK    7  A    between atoms: N5_16  and  N6_18 
REMARK    8  A    between atoms: N6_18  and  C7_20 
REMARK    9  A    between atoms: C7_20  and  C8_25 
REMARK   10  A    between atoms: N7_21  and  O2_23 
ROOT
HETATM    1  C6  UNL     1      -8.420  72.381  22.804  1.00  0.00     0.266 C 
HETATM    2  O1  UNL     1      -9.515  72.915  22.491  1.00  0.00    -0.269 OA
HETATM    3  N5  UNL     1      -8.169  71.115  22.207  1.00  0.00    -0.267 N 
ATOM      4  H5  UNL     1      -7.291  70.648  22.436  1.00  0.00     0.190 HD
ENDROOT
BRANCH   3   5
HETATM    5  N6  UNL     1      -9.039  70.467  21.330  1.00  0.00    -0.280 N 
ATOM      6  H6  UNL     1      -8.922  70.656  20.334  1.00  0.00     0.189 HD
BRANCH   5   7
HETATM    7  C7  UNL     1     -10.064  69.575  21.697  1.00  0.00     0.168 C 
HETATM    8  N7  UNL     1     -10.261  69.212  22.894  1.00  0.00    -0.250 N 
ATOM      9  H7  UNL     1      -9.633  69.598  23.600  1.00  0.00     0.196 HD
BRANCH   8  10
HETATM   10  O2  UNL     1     -11.216  68.366  23.332  1.00  0.00    -0.288 OA
ATOM     11  H2  UNL     1     -11.846  68.532  24.024  1.00  0.00     0.244 HD
ENDBRANCH   8  10
BRANCH   7  12
HETATM   12  C8  UNL     1     -10.962  69.019  20.666  1.00  0.00     0.095 A 
HETATM   13  C9  UNL     1     -11.469  69.883  19.716  1.00  0.00     0.040 A 
HETATM   14  C10 UNL     1     -12.312  69.418  18.725  1.00  0.00     0.078 A 
HETATM   15  C11 UNL     1     -12.604  68.078  18.746  1.00  0.00     0.259 A 
HETATM   16  O3  UNL     1     -13.377  67.628  17.844  1.00  0.00    -0.267 OA
HETATM   17  N8  UNL     1     -12.092  67.283  19.681  1.00  0.00    -0.266 N 
HETATM   18  N9  UNL     1     -11.289  67.736  20.623  1.00  0.00    -0.294 N 
ATOM     19  H8  UNL     1     -12.327  66.291  19.669  1.00  0.00     0.190 HD
ATOM     20  H9  UNL     1     -10.916  67.095  21.323  1.00  0.00     0.187 HD
ENDBRANCH   7  12
ENDBRANCH   5   7
ENDBRANCH   3   5
BRANCH   1  21
HETATM   21  C5  UNL     1      -7.425  72.936  23.698  1.00  0.00     0.276 C 
BRANCH  21  22
HETATM   22  C4  UNL     1      -7.690  72.838  25.154  1.00  0.00     0.044 C 
BRANCH  22  23
HETATM   23  C3  UNL     1      -6.558  72.471  26.029  1.00  0.00     0.022 C 
BRANCH  23  24
HETATM   24  C2  UNL     1      -7.125  72.360  27.457  1.00  0.00     0.122 C 
BRANCH  24  25
HETATM   25  N3  UNL     1      -7.125  70.955  27.830  1.00  0.00    -0.367 N 
HETATM   26  C1  UNL     1      -7.929  70.453  28.683  1.00  0.00     0.196 C 
HETATM   27  N1  UNL     1      -7.847  69.075  28.974  1.00  0.00    -0.067 NA
HETATM   28  N2  UNL     1      -8.880  71.296  29.313  1.00  0.00    -0.067 NA
ATOM     29  H3  UNL     1      -6.447  70.337  27.385  1.00  0.00     0.161 HD
ENDBRANCH  24  25
ENDBRANCH  23  24
ENDBRANCH  22  23
ENDBRANCH  21  22
BRANCH  21  30
HETATM   30  N4  UNL     1      -6.108  72.455  23.338  1.00  0.00    -0.066 N 
ATOM     31  H43 UNL     1      -5.791  72.875  22.464  1.00  0.00     0.275 HD
ATOM     32  H42 UNL     1      -5.397  72.829  23.967  1.00  0.00     0.275 HD
ATOM     33  H41 UNL     1      -6.059  71.437  23.294  1.00  0.00     0.275 HD
ENDBRANCH  21  30
ENDBRANCH   1  21
TORSDOF 10
ENDMDL
MODEL 4
REMARK VINA RESULT: -6.466162321      1.727      3.341
REMARK  10 active torsions:
REMARK  status: ('A' for Active; 'I' for Inactive)
REMARK    1  A    between atoms: N3_4  and  C2_6 
REMARK    2  A    between atoms: C2_6  and  C3_7 
REMARK    3  A    between atoms: C3_7  and  C4_8 
REMARK    4  A    between atoms: C4_8  and  C5_9 
REMARK    5  A    between atoms: C5_9  and  N4_10 
REMARK    6  A    between atoms: C5_9  and  C6_14 
REMARK       I    between atoms: C6_14  and  N5_16 
REMARK    7  A    between atoms: N5_16  and  N6_18 
REMARK    8  A    between atoms: N6_18  and  C7_20 
REMARK    9  A    between atoms: C7_20  and  C8_25 
REMARK   10  A    between atoms: N7_21  and  O2_23 
ROOT
HETATM    1  C6  UNL     1      -9.195  73.255  22.985  1.00  0.00     0.266 C 
HETATM    2  O1  UNL     1      -9.410  72.423  23.904  1.00  0.00    -0.269 OA
HETATM    3  N5  UNL     1      -9.804  72.950  21.737  1.00  0.00    -0.267 N 
ATOM      4  H5  UNL     1      -9.653  73.600  20.965  1.00  0.00     0.190 HD
ENDROOT
BRANCH   3   5
HETATM    5  N6  UNL     1     -10.592  71.825  21.494  1.00  0.00    -0.280 N 
ATOM      6  H6  UNL     1     -11.590  71.903  21.696  1.00  0.00     0.189 HD
BRANCH   5   7
HETATM    7  C7  UNL     1     -10.134  70.592  20.994  1.00  0.00     0.168 C 
HETATM    8  N7  UNL     1      -8.962  70.159  21.204  1.00  0.00    -0.250 N 
ATOM      9  H7  UNL     1      -8.348  70.753  21.762  1.00  0.00     0.196 HD
BRANCH   8  10
HETATM   10  O2  UNL     1      -8.444  68.994  20.766  1.00  0.00    -0.288 OA
ATOM     11  H2  UNL     1      -8.429  68.682  19.869  1.00  0.00     0.244 HD
ENDBRANCH   8  10
BRANCH   7  12
HETATM   12  C8  UNL     1     -11.032  69.745  20.183  1.00  0.00     0.095 A 
HETATM   13  C9  UNL     1     -11.733  70.345  19.157  1.00  0.00     0.040 A 
HETATM   14  C10 UNL     1     -12.586  69.602  18.363  1.00  0.00     0.078 A 
HETATM   15  C11 UNL     1     -12.686  68.265  18.653  1.00  0.00     0.259 A 
HETATM   16  O3  UNL     1     -13.463  67.562  17.936  1.00  0.00    -0.267 OA
HETATM   17  N8  UNL     1     -11.989  67.730  19.652  1.00  0.00    -0.266 N 
HETATM   18  N9  UNL     1     -11.179  68.448  20.404  1.00  0.00    -0.294 N 
ATOM     19  H8  UNL     1     -12.084  66.733  19.842  1.00  0.00     0.190 HD
ATOM     20  H9  UNL     1     -10.661  68.001  21.161  1.00  0.00     0.187 HD
ENDBRANCH   7  12
ENDBRANCH   5   7
ENDBRANCH   3   5
BRANCH   1  21
HETATM   21  C5  UNL     1      -8.401  74.460  23.094  1.00  0.00     0.276 C 
BRANCH  21  22
HETATM   22  C4  UNL     1      -9.095  75.693  23.539  1.00  0.00     0.044 C 
BRANCH  22  23
HETATM   23  C3  UNL     1      -9.209  76.799  22.566  1.00  0.00     0.022 C 
BRANCH  23  24
HETATM   24  C2  UNL     1     -10.689  76.859  22.142  1.00  0.00     0.122 C 
BRANCH  24  25
HETATM   25  N3  UNL     1     -10.813  76.194  20.855  1.00  0.00    -0.367 N 
HETATM   26  C1  UNL     1     -11.575  75.193  20.651  1.00  0.00     0.196 C 
HETATM   27  N1  UNL     1     -11.624  74.619  19.363  1.00  0.00    -0.067 NA
HETATM   28  N2  UNL     1     -12.351  74.687  21.725  1.00  0.00    -0.067 NA
ATOM     29  H3  UNL     1     -10.260  76.546  20.074  1.00  0.00     0.161 HD
ENDBRANCH  24  25
ENDBRANCH  23  24
ENDBRANCH  22  23
ENDBRANCH  21  22
BRANCH  21  30
HETATM   30  N4  UNL     1      -7.195  74.197  23.850  1.00  0.00    -0.066 N 
ATOM     31  H43 UNL     1      -7.359  73.490  24.567  1.00  0.00     0.275 HD
ATOM     32  H42 UNL     1      -6.508  73.699  23.283  1.00  0.00     0.275 HD
ATOM     33  H41 UNL     1      -6.791  75.042  24.255  1.00  0.00     0.275 HD
ENDBRANCH  21  30
ENDBRANCH   1  21
TORSDOF 10
ENDMDL
MODEL 5
REMARK VINA RESULT: -6.435978312      2.815      3.884
REMARK  10 active torsions:
REMARK  status: ('A' for Active; 'I' for Inactive)
REMARK    1  A    between atoms: N3_4  and  C2_6 
REMARK    2  A    between atoms: C2_6  and  C3_7 
REMARK    3  A    between atoms: C3_7  and  C4_8 
REMARK    4  A    between atoms: C4_8  and  C5_9 
REMARK    5  A    between atoms: C5_9  and  N4_10 
REMARK    6  A    between atoms: C5_9  and  C6_14 
REMARK       I    between atoms: C6_14  and  N5_16 
REMARK    7  A    between atoms: N5_16  and  N6_18 
REMARK    8  A    between atoms: N6_18  and  C7_20 
REMARK    9  A    between atoms: C7_20  and  C8_25 
REMARK   10  A    between atoms: N7_21  and  O2_23 
ROOT
HETATM    1  C6  UNL     1      -8.438  72.146  23.321  1.00  0.00     0.266 C 
HETATM    2  O1  UNL     1      -9.539  72.207  23.926  1.00  0.00    -0.269 OA
HETATM    3  N5  UNL     1      -8.381  71.200  22.260  1.00  0.00    -0.267 N 
ATOM      4  H5  UNL     1      -7.505  71.119  21.744  1.00  0.00     0.190 HD
ENDROOT
BRANCH   3   5
HETATM    5  N6  UNL     1      -9.439  70.375  21.877  1.00  0.00    -0.280 N 
ATOM      6  H6  UNL     1      -9.578  69.518  22.412  1.00  0.00     0.189 HD
BRANCH   5   7
HETATM    7  C7  UNL     1     -10.331  70.622  20.817  1.00  0.00     0.168 C 
HETATM    8  N7  UNL     1     -10.367  71.724  20.193  1.00  0.00    -0.250 N 
ATOM      9  H7  UNL     1      -9.711  72.443  20.495  1.00  0.00     0.196 HD
BRANCH   8  10
HETATM   10  O2  UNL     1     -11.186  72.042  19.169  1.00  0.00    -0.288 OA
ATOM     11  H2  UNL     1     -12.136  72.073  19.191  1.00  0.00     0.244 HD
ENDBRANCH   8  10
BRANCH   7  12
HETATM   12  C8  UNL     1     -11.281  69.574  20.393  1.00  0.00     0.095 A 
HETATM   13  C9  UNL     1     -12.411  69.378  21.161  1.00  0.00     0.040 A 
HETATM   14  C10 UNL     1     -13.337  68.414  20.811  1.00  0.00     0.078 A 
HETATM   15  C11 UNL     1     -13.067  67.684  19.682  1.00  0.00     0.259 A 
HETATM   16  O3  UNL     1     -13.904  66.792  19.341  1.00  0.00    -0.267 OA
HETATM   17  N8  UNL     1     -11.964  67.909  18.972  1.00  0.00    -0.266 N 
HETATM   18  N9  UNL     1     -11.087  68.831  19.314  1.00  0.00    -0.294 N 
ATOM     19  H8  UNL     1     -11.793  67.351  18.137  1.00  0.00     0.190 HD
ATOM     20  H9  UNL     1     -10.254  68.974  18.744  1.00  0.00     0.187 HD
ENDBRANCH   7  12
ENDBRANCH   5   7
ENDBRANCH   3   5
BRANCH   1  21
HETATM   21  C5  UNL     1      -7.260  72.937  23.609  1.00  0.00     0.276 C 
BRANCH  21  22
HETATM   22  C4  UNL     1      -7.059  73.367  25.014  1.00  0.00     0.044 C 
BRANCH  22  23
HETATM   23  C3  UNL     1      -6.585  72.351  25.976  1.00  0.00     0.022 C 
BRANCH  23  24
HETATM   24  C2  UNL     1      -7.716  72.159  27.004  1.00  0.00     0.122 C 
BRANCH  24  25
HETATM   25  N3  UNL     1      -7.341  71.062  27.882  1.00  0.00    -0.367 N 
HETATM   26  C1  UNL     1      -8.101  70.070  28.133  1.00  0.00     0.196 C 
HETATM   27  N1  UNL     1      -7.641  69.056  28.999  1.00  0.00    -0.067 NA
HETATM   28  N2  UNL     1      -9.385  70.017  27.533  1.00  0.00    -0.067 NA
ATOM     29  H3  UNL     1      -6.420  71.087  28.320  1.00  0.00     0.161 HD
ENDBRANCH  24  25
ENDBRANCH  23  24
ENDBRANCH  22  23
ENDBRANCH  21  22
BRANCH  21  30
HETATM   30  N4  UNL     1      -6.086  72.306  23.046  1.00  0.00    -0.066 N 
ATOM     31  H43 UNL     1      -5.349  72.990  22.874  1.00  0.00     0.275 HD
ATOM     32  H42 UNL     1      -5.613  71.726  23.741  1.00  0.00     0.275 HD
ATOM     33  H41 UNL     1      -6.293  71.770  22.203  1.00  0.00     0.275 HD
ENDBRANCH  21  30
ENDBRANCH   1  21
TORSDOF 10
ENDMDL
