MODEL 1
REMARK VINA RESULT: -7.481369114      0.000      0.000
REMARK  9 active torsions:
REMARK  status: ('A' for Active; 'I' for Inactive)
REMARK    1  A    between atoms: C2_3  and  N2_4 
REMARK    2  A    between atoms: N2_4  and  N3_6 
REMARK    3  A    between atoms: N3_6  and  N4_7 
REMARK    4  A    between atoms: C3_8  and  S1_9 
REMARK    5  A    between atoms: S1_9  and  C4_10 
REMARK    6  A    between atoms: C4_10  and  N5_11 
REMARK    7  A    between atoms: C5_14  and  C6_15 
REMARK    8  A    between atoms: C7_18  and  N7_19 
REMARK    9  A    between atoms: C12_39  and  N14_40 
ROOT
HETATM    1  N4  UNL     1      10.859  13.621   4.489  1.00  0.00     0.009 N 
HETATM    2  C3  UNL     1      11.275  14.324   5.538  1.00  0.00     0.143 A 
HETATM    3  C9  UNL     1      10.145  14.561   6.328  1.00  0.00     0.146 A 
HETATM    4  N9  UNL     1       9.101  14.006   5.756  1.00  0.00    -0.197 N 
ATOM      5  H9  UNL     1       8.144  14.018   6.110  1.00  0.00     0.183 HD
HETATM    6  C10 UNL     1       9.512  13.430   4.638  1.00  0.00     0.710 A 
HETATM    7  N10 UNL     1       8.750  12.756   3.811  1.00  0.00    -0.232 N 
ATOM      8 1H10 UNL     1       7.746  12.614   3.922  1.00  0.00     0.174 HD
ATOM      9 2H10 UNL     1       9.067  12.312   2.950  1.00  0.00     0.174 HD
ENDROOT
BRANCH   2  10
HETATM   10  S1  UNL     1      12.943  14.869   5.943  1.00  0.00    -0.085 SA
BRANCH  10  11
HETATM   11  C4  UNL     1      13.673  13.715   7.129  1.00  0.00     0.234 C 
BRANCH  11  12
HETATM   12  N5  UNL     1      13.644  14.202   8.477  1.00  0.00    -0.232 N 
HETATM   13  N6  UNL     1      12.405  14.293   9.007  1.00  0.00    -0.284 N 
HETATM   14  C5  UNL     1      12.116  14.503  10.286  1.00  0.00     0.169 A 
ATOM     15  H6  UNL     1      11.619  14.190   8.366  1.00  0.00     0.187 HD
HETATM   16  C7  UNL     1      13.155  14.654  11.184  1.00  0.00     0.138 A 
HETATM   17  N8  UNL     1      14.403  14.570  10.662  1.00  0.00    -0.291 N 
HETATM   18  C8  UNL     1      14.614  14.350   9.357  1.00  0.00     0.343 A 
ATOM     19  H8  UNL     1      15.206  14.676  11.282  1.00  0.00     0.172 HD
HETATM   20  O3  UNL     1      15.818  14.290   8.958  1.00  0.00    -0.245 OA
BRANCH  14  21
HETATM   21  C6  UNL     1      10.701  14.518  10.679  1.00  0.00     0.232 C 
HETATM   22  O1  UNL     1       9.900  15.254  10.051  1.00  0.00    -0.643 OA
HETATM   23  O2  UNL     1      10.210  13.742  11.715  1.00  0.00    -0.643 OA
ENDBRANCH  14  21
BRANCH  16  24
HETATM   24  N7  UNL     1      12.973  14.829  12.394  1.00  0.00    -0.383 N 
ATOM     25  H72 UNL     1      12.557  14.105  12.980  1.00  0.00     0.157 HD
ATOM     26  H71 UNL     1      13.204  15.703  12.866  1.00  0.00     0.157 HD
ENDBRANCH  16  24
ENDBRANCH  11  12
ENDBRANCH  10  11
ENDBRANCH   2  10
BRANCH   1  27
HETATM   27  N3  UNL     1      11.555  13.188   3.451  1.00  0.00    -0.198 NA
BRANCH  27  28
HETATM   28  N2  UNL     1      12.157  12.816   2.541  1.00  0.00    -0.043 N 
ATOM     29  H2  UNL     1      11.728  12.776   1.617  1.00  0.00     0.223 HD
BRANCH  28  30
HETATM   30  C2  UNL     1      13.554  12.402   2.733  1.00  0.00     0.727 A 
HETATM   31  N1  UNL     1      14.480  12.535   1.792  1.00  0.00    -0.017 N 
HETATM   32  C1  UNL     1      14.143  13.231   0.567  1.00  0.00     0.195 C 
HETATM   33  C12 UNL     1      15.729  12.029   1.960  1.00  0.00     0.694 A 
HETATM   34  N13 UNL     1      15.943  11.392   3.148  1.00  0.00    -0.162 N 
HETATM   35  C11 UNL     1      15.019  11.272   4.074  1.00  0.00     0.221 A 
ATOM     36  H13 UNL     1      16.864  10.991   3.325  1.00  0.00     0.187 HD
HETATM   37  N11 UNL     1      13.785  11.773   3.907  1.00  0.00    -0.160 N 
HETATM   38  N12 UNL     1      15.260  10.614   5.314  1.00  0.00    -0.062 NA
ATOM     39  H11 UNL     1      13.064  11.684   4.624  1.00  0.00     0.187 HD
BRANCH  33  40
HETATM   40  N14 UNL     1      16.641  12.125   1.075  1.00  0.00    -0.234 N 
ATOM     41 2H14 UNL     1      17.574  12.471   1.301  1.00  0.00     0.174 HD
ATOM     42 1H14 UNL     1      16.501  11.857   0.101  1.00  0.00     0.174 HD
ENDBRANCH  33  40
ENDBRANCH  28  30
ENDBRANCH  27  28
ENDBRANCH   1  27
TORSDOF 9
ENDMDL
MODEL 2
REMARK VINA RESULT: -7.466819113      2.501      2.927
REMARK  9 active torsions:
REMARK  status: ('A' for Active; 'I' for Inactive)
REMARK    1  A    between atoms: C2_3  and  N2_4 
REMARK    2  A    between atoms: N2_4  and  N3_6 
REMARK    3  A    between atoms: N3_6  and  N4_7 
REMARK    4  A    between atoms: C3_8  and  S1_9 
REMARK    5  A    between atoms: S1_9  and  C4_10 
REMARK    6  A    between atoms: C4_10  and  N5_11 
REMARK    7  A    between atoms: C5_14  and  C6_15 
REMARK    8  A    between atoms: C7_18  and  N7_19 
REMARK    9  A    between atoms: C12_39  and  N14_40 
ROOT
HETATM    1  N4  UNL     1      14.154  16.214   5.237  1.00  0.00     0.009 N 
HETATM    2  C3  UNL     1      13.172  15.483   5.755  1.00  0.00     0.143 A 
HETATM    3  C9  UNL     1      12.180  16.383   6.160  1.00  0.00     0.146 A 
HETATM    4  N9  UNL     1      12.574  17.605   5.880  1.00  0.00    -0.197 N 
ATOM      5  H9  UNL     1      12.051  18.461   6.062  1.00  0.00     0.183 HD
HETATM    6  C10 UNL     1      13.770  17.525   5.319  1.00  0.00     0.710 A 
HETATM    7  N10 UNL     1      14.469  18.544   4.884  1.00  0.00    -0.232 N 
ATOM      8 1H10 UNL     1      14.183  19.522   4.945  1.00  0.00     0.174 HD
ATOM      9 2H10 UNL     1      15.391  18.483   4.452  1.00  0.00     0.174 HD
ENDROOT
BRANCH   2  10
HETATM   10  S1  UNL     1      13.058  13.692   5.910  1.00  0.00    -0.085 SA
BRANCH  10  11
HETATM   11  C4  UNL     1      14.083  13.150   7.298  1.00  0.00     0.234 C 
BRANCH  11  12
HETATM   12  N5  UNL     1      13.828  13.882   8.504  1.00  0.00    -0.232 N 
HETATM   13  N6  UNL     1      12.533  13.883   8.888  1.00  0.00    -0.284 N 
HETATM   14  C5  UNL     1      12.066  14.293  10.061  1.00  0.00     0.169 A 
ATOM     15  H6  UNL     1      11.851  13.536   8.214  1.00  0.00     0.187 HD
HETATM   16  C7  UNL     1      12.960  14.775  10.999  1.00  0.00     0.138 A 
HETATM   17  N8  UNL     1      14.263  14.783  10.622  1.00  0.00    -0.291 N 
HETATM   18  C8  UNL     1      14.657  14.348   9.417  1.00  0.00     0.343 A 
ATOM     19  H8  UNL     1      14.964  15.132  11.275  1.00  0.00     0.172 HD
HETATM   20  O3  UNL     1      15.897  14.396   9.151  1.00  0.00    -0.245 OA
BRANCH  14  21
HETATM   21  C6  UNL     1      10.625  14.166  10.312  1.00  0.00     0.232 C 
HETATM   22  O1  UNL     1       9.815  14.563   9.438  1.00  0.00    -0.643 OA
HETATM   23  O2  UNL     1      10.120  13.614  11.477  1.00  0.00    -0.643 OA
ENDBRANCH  14  21
BRANCH  16  24
HETATM   24  N7  UNL     1      12.612  15.153  12.122  1.00  0.00    -0.383 N 
ATOM     25  H72 UNL     1      11.706  15.596  12.278  1.00  0.00     0.157 HD
ATOM     26  H71 UNL     1      13.210  15.066  12.944  1.00  0.00     0.157 HD
ENDBRANCH  16  24
ENDBRANCH  11  12
ENDBRANCH  10  11
ENDBRANCH   2  10
BRANCH   1  27
HETATM   27  N3  UNL     1      15.318  15.817   4.751  1.00  0.00    -0.198 NA
BRANCH  27  28
HETATM   28  N2  UNL     1      16.336  15.478   4.329  1.00  0.00    -0.043 N 
ATOM     29  H2  UNL     1      17.152  16.086   4.395  1.00  0.00     0.223 HD
BRANCH  28  30
HETATM   30  C2  UNL     1      16.439  14.155   3.695  1.00  0.00     0.727 A 
HETATM   31  N1  UNL     1      16.572  13.994   2.385  1.00  0.00    -0.017 N 
HETATM   32  C1  UNL     1      16.750  15.163   1.547  1.00  0.00     0.195 C 
HETATM   33  C12 UNL     1      16.540  12.758   1.823  1.00  0.00     0.694 A 
HETATM   34  N13 UNL     1      16.367  11.726   2.700  1.00  0.00    -0.162 N 
HETATM   35  C11 UNL     1      16.243  11.899   3.996  1.00  0.00     0.221 A 
ATOM     36  H13 UNL     1      16.333  10.776   2.331  1.00  0.00     0.187 HD
HETATM   37  N11 UNL     1      16.274  13.121   4.551  1.00  0.00    -0.160 N 
HETATM   38  N12 UNL     1      16.073  10.812   4.901  1.00  0.00    -0.062 NA
ATOM     39  H11 UNL     1      16.180  13.261   5.556  1.00  0.00     0.187 HD
BRANCH  33  40
HETATM   40  N14 UNL     1      16.650  12.563   0.570  1.00  0.00    -0.234 N 
ATOM     41 2H14 UNL     1      16.115  13.106  -0.108  1.00  0.00     0.174 HD
ATOM     42 1H14 UNL     1      17.279  11.868   0.168  1.00  0.00     0.174 HD
ENDBRANCH  33  40
ENDBRANCH  28  30
ENDBRANCH  27  28
ENDBRANCH   1  27
TORSDOF 9
ENDMDL
MODEL 3
REMARK VINA RESULT: -7.361154012      6.784      9.497
REMARK  9 active torsions:
REMARK  status: ('A' for Active; 'I' for Inactive)
REMARK    1  A    between atoms: C2_3  and  N2_4 
REMARK    2  A    between atoms: N2_4  and  N3_6 
REMARK    3  A    between atoms: N3_6  and  N4_7 
REMARK    4  A    between atoms: C3_8  and  S1_9 
REMARK    5  A    between atoms: S1_9  and  C4_10 
REMARK    6  A    between atoms: C4_10  and  N5_11 
REMARK    7  A    between atoms: C5_14  and  C6_15 
REMARK    8  A    between atoms: C7_18  and  N7_19 
REMARK    9  A    between atoms: C12_39  and  N14_40 
ROOT
HETATM    1  N4  UNL     1      15.691  19.731   9.294  1.00  0.00     0.009 N 
HETATM    2  C3  UNL     1      16.048  20.720  10.108  1.00  0.00     0.143 A 
HETATM    3  C9  UNL     1      17.377  21.028   9.796  1.00  0.00     0.146 A 
HETATM    4  N9  UNL     1      17.780  20.242   8.824  1.00  0.00    -0.197 N 
ATOM      5  H9  UNL     1      18.704  20.245   8.393  1.00  0.00     0.183 HD
HETATM    6  C10 UNL     1      16.772  19.447   8.504  1.00  0.00     0.710 A 
HETATM    7  N10 UNL     1      16.795  18.542   7.556  1.00  0.00    -0.232 N 
ATOM      8 1H10 UNL     1      17.601  18.330   6.967  1.00  0.00     0.174 HD
ATOM      9 2H10 UNL     1      16.019  17.929   7.310  1.00  0.00     0.174 HD
ENDROOT
BRANCH   2  10
HETATM   10  S1  UNL     1      15.065  21.564  11.359  1.00  0.00    -0.085 SA
BRANCH  10  11
HETATM   11  C4  UNL     1      16.056  22.884  12.100  1.00  0.00     0.234 C 
BRANCH  11  12
HETATM   12  N5  UNL     1      16.698  22.487  13.319  1.00  0.00    -0.232 N 
HETATM   13  N6  UNL     1      15.847  22.229  14.335  1.00  0.00    -0.284 N 
HETATM   14  C5  UNL     1      16.159  21.644  15.486  1.00  0.00     0.169 A 
ATOM     15  H6  UNL     1      14.875  22.507  14.207  1.00  0.00     0.187 HD
HETATM   16  C7  UNL     1      17.469  21.258  15.700  1.00  0.00     0.138 A 
HETATM   17  N8  UNL     1      18.333  21.518  14.688  1.00  0.00    -0.291 N 
HETATM   18  C8  UNL     1      17.939  22.110  13.551  1.00  0.00     0.343 A 
ATOM     19  H8  UNL     1      19.313  21.256  14.795  1.00  0.00     0.172 HD
HETATM   20  O3  UNL     1      18.820  22.317  12.661  1.00  0.00    -0.245 OA
BRANCH  14  21
HETATM   21  C6  UNL     1      15.079  21.401  16.450  1.00  0.00     0.232 C 
HETATM   22  O1  UNL     1      13.914  21.200  16.026  1.00  0.00    -0.643 OA
HETATM   23  O2  UNL     1      15.296  21.374  17.818  1.00  0.00    -0.643 OA
ENDBRANCH  14  21
BRANCH  16  24
HETATM   24  N7  UNL     1      17.838  20.687  16.732  1.00  0.00    -0.383 N 
ATOM     25  H72 UNL     1      18.621  21.039  17.284  1.00  0.00     0.157 HD
ATOM     26  H71 UNL     1      17.401  19.832  17.076  1.00  0.00     0.157 HD
ENDBRANCH  16  24
ENDBRANCH  11  12
ENDBRANCH  10  11
ENDBRANCH   2  10
BRANCH   1  27
HETATM   27  N3  UNL     1      14.541  19.081   9.231  1.00  0.00    -0.198 NA
BRANCH  27  28
HETATM   28  N2  UNL     1      13.540  18.513   9.168  1.00  0.00    -0.043 N 
ATOM     29  H2  UNL     1      12.695  18.987   8.851  1.00  0.00     0.223 HD
BRANCH  28  30
HETATM   30  C2  UNL     1      13.501  17.095   9.552  1.00  0.00     0.727 A 
HETATM   31  N1  UNL     1      12.617  16.607  10.413  1.00  0.00    -0.017 N 
HETATM   32  C1  UNL     1      11.562  17.471  10.904  1.00  0.00     0.195 C 
HETATM   33  C12 UNL     1      12.688  15.319  10.838  1.00  0.00     0.694 A 
HETATM   34  N13 UNL     1      13.718  14.591  10.315  1.00  0.00    -0.162 N 
HETATM   35  C11 UNL     1      14.583  15.085   9.459  1.00  0.00     0.221 A 
ATOM     36  H13 UNL     1      13.820  13.618  10.603  1.00  0.00     0.187 HD
HETATM   37  N11 UNL     1      14.512  16.358   9.040  1.00  0.00    -0.160 N 
HETATM   38  N12 UNL     1      15.648  14.311   8.914  1.00  0.00    -0.062 NA
ATOM     39  H11 UNL     1      15.180  16.746   8.374  1.00  0.00     0.187 HD
BRANCH  33  40
HETATM   40  N14 UNL     1      11.867  14.817  11.672  1.00  0.00    -0.234 N 
ATOM     41 2H14 UNL     1      10.883  14.675  11.439  1.00  0.00     0.174 HD
ATOM     42 1H14 UNL     1      12.137  14.521  12.610  1.00  0.00     0.174 HD
ENDBRANCH  33  40
ENDBRANCH  28  30
ENDBRANCH  27  28
ENDBRANCH   1  27
TORSDOF 9
ENDMDL
MODEL 4
REMARK VINA RESULT: -7.327923030      4.480      7.775
REMARK  9 active torsions:
REMARK  status: ('A' for Active; 'I' for Inactive)
REMARK    1  A    between atoms: C2_3  and  N2_4 
REMARK    2  A    between atoms: N2_4  and  N3_6 
REMARK    3  A    between atoms: N3_6  and  N4_7 
REMARK    4  A    between atoms: C3_8  and  S1_9 
REMARK    5  A    between atoms: S1_9  and  C4_10 
REMARK    6  A    between atoms: C4_10  and  N5_11 
REMARK    7  A    between atoms: C5_14  and  C6_15 
REMARK    8  A    between atoms: C7_18  and  N7_19 
REMARK    9  A    between atoms: C12_39  and  N14_40 
ROOT
HETATM    1  N4  UNL     1      14.304  15.685   7.154  1.00  0.00     0.009 N 
HETATM    2  C3  UNL     1      13.170  15.384   6.529  1.00  0.00     0.143 A 
HETATM    3  C9  UNL     1      12.570  14.361   7.272  1.00  0.00     0.146 A 
HETATM    4  N9  UNL     1      13.334  14.078   8.302  1.00  0.00    -0.197 N 
ATOM      5  H9  UNL     1      13.145  13.373   9.015  1.00  0.00     0.183 HD
HETATM    6  C10 UNL     1      14.393  14.870   8.250  1.00  0.00     0.710 A 
HETATM    7  N10 UNL     1      15.365  14.891   9.129  1.00  0.00    -0.232 N 
ATOM      8 1H10 UNL     1      15.431  14.284   9.945  1.00  0.00     0.174 HD
ATOM      9 2H10 UNL     1      16.180  15.502   9.088  1.00  0.00     0.174 HD
ENDROOT
BRANCH   2  10
HETATM   10  S1  UNL     1      12.467  16.123   5.045  1.00  0.00    -0.085 SA
BRANCH  10  11
HETATM   11  C4  UNL     1      13.144  15.288   3.590  1.00  0.00     0.234 C 
BRANCH  11  12
HETATM   12  N5  UNL     1      14.496  14.847   3.773  1.00  0.00    -0.232 N 
HETATM   13  N6  UNL     1      14.625  13.516   3.957  1.00  0.00    -0.284 N 
HETATM   14  C5  UNL     1      15.762  12.830   3.933  1.00  0.00     0.169 A 
ATOM     15  H6  UNL     1      13.770  12.987   4.129  1.00  0.00     0.187 HD
HETATM   16  C7  UNL     1      16.943  13.512   3.709  1.00  0.00     0.138 A 
HETATM   17  N8  UNL     1      16.825  14.851   3.529  1.00  0.00    -0.291 N 
HETATM   18  C8  UNL     1      15.638  15.471   3.563  1.00  0.00     0.343 A 
ATOM     19  H8  UNL     1      17.667  15.403   3.362  1.00  0.00     0.172 HD
HETATM   20  O3  UNL     1      15.625  16.728   3.387  1.00  0.00    -0.245 OA
BRANCH  14  21
HETATM   21  C6  UNL     1      15.691  11.373   4.103  1.00  0.00     0.232 C 
HETATM   22  O1  UNL     1      14.948  10.704   3.343  1.00  0.00    -0.643 OA
HETATM   23  O2  UNL     1      16.423  10.702   5.068  1.00  0.00    -0.643 OA
ENDBRANCH  14  21
BRANCH  16  24
HETATM   24  N7  UNL     1      18.040  12.947   3.648  1.00  0.00    -0.383 N 
ATOM     25  H72 UNL     1      18.135  12.011   3.255  1.00  0.00     0.157 HD
ATOM     26  H71 UNL     1      18.899  13.369   4.002  1.00  0.00     0.157 HD
ENDBRANCH  16  24
ENDBRANCH  11  12
ENDBRANCH  10  11
ENDBRANCH   2  10
BRANCH   1  27
HETATM   27  N3  UNL     1      15.230  16.567   6.815  1.00  0.00    -0.198 NA
BRANCH  27  28
HETATM   28  N2  UNL     1      16.033  17.337   6.511  1.00  0.00    -0.043 N 
ATOM     29  H2  UNL     1      16.774  17.083   5.860  1.00  0.00     0.223 HD
BRANCH  28  30
HETATM   30  C2  UNL     1      15.970  18.692   7.079  1.00  0.00     0.727 A 
HETATM   31  N1  UNL     1      15.227  19.657   6.553  1.00  0.00    -0.017 N 
HETATM   32  C1  UNL     1      14.339  19.342   5.452  1.00  0.00     0.195 C 
HETATM   33  C12 UNL     1      15.288  20.928   7.029  1.00  0.00     0.694 A 
HETATM   34  N13 UNL     1      16.155  21.119   8.066  1.00  0.00    -0.162 N 
HETATM   35  C11 UNL     1      16.881  20.153   8.580  1.00  0.00     0.221 A 
ATOM     36  H13 UNL     1      16.243  22.055   8.460  1.00  0.00     0.187 HD
HETATM   37  N11 UNL     1      16.820  18.897   8.110  1.00  0.00    -0.160 N 
HETATM   38  N12 UNL     1      17.775  20.363   9.670  1.00  0.00    -0.062 NA
ATOM     39  H11 UNL     1      17.380  18.143   8.506  1.00  0.00     0.187 HD
BRANCH  33  40
HETATM   40  N14 UNL     1      14.601  21.884   6.544  1.00  0.00    -0.234 N 
ATOM     41 2H14 UNL     1      14.729  22.206   5.584  1.00  0.00     0.174 HD
ATOM     42 1H14 UNL     1      13.882  22.378   7.074  1.00  0.00     0.174 HD
ENDBRANCH  33  40
ENDBRANCH  28  30
ENDBRANCH  27  28
ENDBRANCH   1  27
TORSDOF 9
ENDMDL
MODEL 5
REMARK VINA RESULT: -7.320142337      3.082      7.349
REMARK  9 active torsions:
REMARK  status: ('A' for Active; 'I' for Inactive)
REMARK    1  A    between atoms: C2_3  and  N2_4 
REMARK    2  A    between atoms: N2_4  and  N3_6 
REMARK    3  A    between atoms: N3_6  and  N4_7 
REMARK    4  A    between atoms: C3_8  and  S1_9 
REMARK    5  A    between atoms: S1_9  and  C4_10 
REMARK    6  A    between atoms: C4_10  and  N5_11 
REMARK    7  A    between atoms: C5_14  and  C6_15 
REMARK    8  A    between atoms: C7_18  and  N7_19 
REMARK    9  A    between atoms: C12_39  and  N14_40 
ROOT
HETATM    1  N4  UNL     1      14.132  15.522   4.296  1.00  0.00     0.009 N 
HETATM    2  C3  UNL     1      13.931  15.788   3.008  1.00  0.00     0.143 A 
HETATM    3  C9  UNL     1      14.860  16.774   2.659  1.00  0.00     0.146 A 
HETATM    4  N9  UNL     1      15.585  17.070   3.714  1.00  0.00    -0.197 N 
ATOM      5  H9  UNL     1      16.340  17.754   3.751  1.00  0.00     0.183 HD
HETATM    6  C10 UNL     1      15.159  16.321   4.719  1.00  0.00     0.710 A 
HETATM    7  N10 UNL     1      15.663  16.325   5.929  1.00  0.00    -0.232 N 
ATOM      8 1H10 UNL     1      16.428  16.920   6.244  1.00  0.00     0.174 HD
ATOM      9 2H10 UNL     1      15.334  15.748   6.703  1.00  0.00     0.174 HD
ENDROOT
BRANCH   2  10
HETATM   10  S1  UNL     1      12.745  15.047   1.874  1.00  0.00    -0.085 SA
BRANCH  10  11
HETATM   11  C4  UNL     1      13.358  13.427   1.350  1.00  0.00     0.234 C 
BRANCH  11  12
HETATM   12  N5  UNL     1      14.721  13.193   1.729  1.00  0.00    -0.232 N 
HETATM   13  N6  UNL     1      14.874  12.731   2.988  1.00  0.00    -0.284 N 
HETATM   14  C5  UNL     1      15.991  12.235   3.508  1.00  0.00     0.169 A 
ATOM     15  H6  UNL     1      14.056  12.766   3.596  1.00  0.00     0.187 HD
HETATM   16  C7  UNL     1      17.122  12.177   2.715  1.00  0.00     0.138 A 
HETATM   17  N8  UNL     1      16.980  12.643   1.450  1.00  0.00    -0.291 N 
HETATM   18  C8  UNL     1      15.815  13.127   0.997  1.00  0.00     0.343 A 
ATOM     19  H8  UNL     1      17.785  12.626   0.824  1.00  0.00     0.172 HD
HETATM   20  O3  UNL     1      15.778  13.544  -0.201  1.00  0.00    -0.245 OA
BRANCH  14  21
HETATM   21  C6  UNL     1      15.945  11.733   4.887  1.00  0.00     0.232 C 
HETATM   22  O1  UNL     1      15.951  10.493   5.087  1.00  0.00    -0.643 OA
HETATM   23  O2  UNL     1      15.904  12.577   5.984  1.00  0.00    -0.643 OA
ENDBRANCH  14  21
BRANCH  16  24
HETATM   24  N7  UNL     1      18.194  11.708   3.114  1.00  0.00    -0.383 N 
ATOM     25  H72 UNL     1      18.762  12.194   3.808  1.00  0.00     0.157 HD
ATOM     26  H71 UNL     1      18.578  10.831   2.761  1.00  0.00     0.157 HD
ENDBRANCH  16  24
ENDBRANCH  11  12
ENDBRANCH  10  11
ENDBRANCH   2  10
BRANCH   1  27
HETATM   27  N3  UNL     1      13.478  14.684   5.082  1.00  0.00    -0.198 NA
BRANCH  27  28
HETATM   28  N2  UNL     1      12.910  13.946   5.762  1.00  0.00    -0.043 N 
ATOM     29  H2  UNL     1      12.375  13.178   5.359  1.00  0.00     0.223 HD
BRANCH  28  30
HETATM   30  C2  UNL     1      12.970  14.131   7.220  1.00  0.00     0.727 A 
HETATM   31  N1  UNL     1      11.931  14.542   7.935  1.00  0.00    -0.017 N 
HETATM   32  C1  UNL     1      10.645  14.696   7.285  1.00  0.00     0.195 C 
HETATM   33  C12 UNL     1      12.057  14.820   9.258  1.00  0.00     0.694 A 
HETATM   34  N13 UNL     1      13.309  14.642   9.773  1.00  0.00    -0.162 N 
HETATM   35  C11 UNL     1      14.327  14.229   9.054  1.00  0.00     0.221 A 
ATOM     36  H13 UNL     1      13.460  14.839  10.762  1.00  0.00     0.187 HD
HETATM   37  N11 UNL     1      14.202  13.955   7.746  1.00  0.00    -0.160 N 
HETATM   38  N12 UNL     1      15.627  14.039   9.606  1.00  0.00    -0.062 NA
ATOM     39  H11 UNL     1      14.990  13.633   7.183  1.00  0.00     0.187 HD
BRANCH  33  40
HETATM   40  N14 UNL     1      11.087  15.228   9.977  1.00  0.00    -0.234 N 
ATOM     41 2H14 UNL     1      10.176  15.448   9.574  1.00  0.00     0.174 HD
ATOM     42 1H14 UNL     1      11.157  15.351  10.987  1.00  0.00     0.174 HD
ENDBRANCH  33  40
ENDBRANCH  28  30
ENDBRANCH  27  28
ENDBRANCH   1  27
TORSDOF 9
ENDMDL
