MODEL 1
REMARK VINA RESULT: -7.015832003      0.000      0.000
REMARK  8 active torsions:
REMARK  status: ('A' for Active; 'I' for Inactive)
REMARK    1  A    between atoms: N2_3  and  C2_4 
REMARK    2  A    between atoms: N2_3  and  C7_18 
REMARK    3  A    between atoms: C11_28  and  N10_29 
REMARK    4  A    between atoms: N10_29  and  C12_31 
REMARK    5  A    between atoms: C12_31  and  N11_32 
REMARK    6  A    between atoms: C12_31  and  C14_37 
REMARK    7  A    between atoms: N11_32  and  O1_33 
REMARK    8  A    between atoms: O1_33  and  C13_34 
ROOT
HETATM    1  N1  UNL     1      13.116  17.977   6.377  1.00  0.00    -0.172 NA
HETATM    2  C1  UNL     1      12.385  17.049   6.341  1.00  0.00     0.186 C 
HETATM    3  N2  UNL     1      11.536  15.945   6.263  1.00  0.00    -0.260 N 
ENDROOT
BRANCH   3   4
HETATM    4  C2  UNL     1      12.116  14.779   5.657  1.00  0.00     0.134 A 
HETATM    5  C3  UNL     1      11.415  13.875   4.915  1.00  0.00     0.139 A 
HETATM    6  N3  UNL     1      12.011  12.781   4.395  1.00  0.00    -0.346 N 
HETATM    7  C4  UNL     1      13.339  12.621   4.644  1.00  0.00     0.148 A 
ATOM      8  H3  UNL     1      11.487  12.104   3.840  1.00  0.00     0.167 HD
HETATM    9  C5  UNL     1      14.061  13.517   5.386  1.00  0.00     0.163 A 
HETATM   10  N7  UNL     1      14.027  11.480   4.123  1.00  0.00    -0.358 N 
HETATM   11  N4  UNL     1      13.439  14.608   5.897  1.00  0.00    -0.323 N 
HETATM   12  N5  UNL     1      15.444  13.283   5.608  1.00  0.00    -0.285 N 
ATOM     13  H4  UNL     1      13.957  15.289   6.451  1.00  0.00     0.169 HD
HETATM   14  N6  UNL     1      16.131  12.291   4.923  1.00  0.00    -0.120 NA
ATOM     15  H5  UNL     1      15.944  13.857   6.286  1.00  0.00     0.184 HD
HETATM   16  C6  UNL     1      15.285  11.117   4.726  1.00  0.00     0.257 C 
ATOM     17  H7  UNL     1      13.639  10.939   3.350  1.00  0.00     0.162 HD
ENDBRANCH   3   4
BRANCH   3  18
HETATM   18  C7  UNL     1      10.205  15.991   6.749  1.00  0.00     0.156 C 
HETATM   19  C8  UNL     1       9.604  17.330   6.398  1.00  0.00     0.261 C 
HETATM   20  N8  UNL     1       8.231  17.469   6.777  1.00  0.00    -0.068 N 
HETATM   21  C9  UNL     1       7.791  16.507   7.753  1.00  0.00     0.286 C 
ATOM     22  H82 UNL     1       8.044  18.418   7.101  1.00  0.00     0.277 HD
ATOM     23  H81 UNL     1       7.629  17.444   5.954  1.00  0.00     0.277 HD
HETATM   24  C10 UNL     1       8.930  16.428   8.756  1.00  0.00     0.030 C 
HETATM   25  N9  UNL     1       8.745  16.945   9.852  1.00  0.00    -0.403 N 
HETATM   26  C11 UNL     1      10.088  15.723   8.270  1.00  0.00     0.151 C 
ATOM     27  H92 UNL     1       7.924  17.444  10.197  1.00  0.00     0.155 HD
ATOM     28  H91 UNL     1       9.509  16.892  10.525  1.00  0.00     0.155 HD
BRANCH  26  29
HETATM   29  N10 UNL     1      11.343  15.728   8.879  1.00  0.00    -0.385 N 
ATOM     30  H10 UNL     1      11.914  16.569   8.796  1.00  0.00     0.156 HD
BRANCH  29  31
HETATM   31  C12 UNL     1      11.868  14.640   9.599  1.00  0.00     0.283 C 
BRANCH  31  32
HETATM   32  N11 UNL     1      12.200  13.496   8.748  1.00  0.00    -0.056 NA
BRANCH  32  33
HETATM   33  O1  UNL     1      13.507  13.102   8.894  1.00  0.00    -0.189 OA
BRANCH  33  34
HETATM   34  C13 UNL     1      14.495  14.056   9.224  1.00  0.00     0.391 C 
HETATM   35  N12 UNL     1      15.287  13.922  10.389  1.00  0.00    -0.031 NA
HETATM   36  O2  UNL     1      14.611  15.015   8.410  1.00  0.00    -0.241 OA
ENDBRANCH  33  34
ENDBRANCH  32  33
ENDBRANCH  31  32
BRANCH  31  37
HETATM   37  C14 UNL     1      11.166  14.172  10.795  1.00  0.00     0.237 C 
HETATM   38  O3  UNL     1      11.721  14.328  11.914  1.00  0.00    -0.281 OA
HETATM   39  S1  UNL     1       9.563  13.393  10.808  1.00  0.00    -0.008 SA
ENDBRANCH  31  37
ENDBRANCH  29  31
ENDBRANCH  26  29
ENDBRANCH   3  18
TORSDOF 8
ENDMDL
MODEL 2
REMARK VINA RESULT: -6.888267777      2.442      3.208
REMARK  8 active torsions:
REMARK  status: ('A' for Active; 'I' for Inactive)
REMARK    1  A    between atoms: N2_3  and  C2_4 
REMARK    2  A    between atoms: N2_3  and  C7_18 
REMARK    3  A    between atoms: C11_28  and  N10_29 
REMARK    4  A    between atoms: N10_29  and  C12_31 
REMARK    5  A    between atoms: C12_31  and  N11_32 
REMARK    6  A    between atoms: C12_31  and  C14_37 
REMARK    7  A    between atoms: N11_32  and  O1_33 
REMARK    8  A    between atoms: O1_33  and  C13_34 
ROOT
HETATM    1  N1  UNL     1      10.802  17.315   6.984  1.00  0.00    -0.172 NA
HETATM    2  C1  UNL     1      11.235  16.274   7.339  1.00  0.00     0.186 C 
HETATM    3  N2  UNL     1      11.752  15.037   7.721  1.00  0.00    -0.260 N 
ENDROOT
BRANCH   3   4
HETATM    4  C2  UNL     1      12.907  14.610   6.981  1.00  0.00     0.134 A 
HETATM    5  C3  UNL     1      13.978  15.409   6.710  1.00  0.00     0.139 A 
HETATM    6  N3  UNL     1      15.023  14.960   5.983  1.00  0.00    -0.346 N 
HETATM    7  C4  UNL     1      14.959  13.677   5.532  1.00  0.00     0.148 A 
ATOM      8  H3  UNL     1      15.824  15.556   5.779  1.00  0.00     0.167 HD
HETATM    9  C5  UNL     1      13.892  12.859   5.793  1.00  0.00     0.163 A 
HETATM   10  N7  UNL     1      16.032  13.144   4.752  1.00  0.00    -0.358 N 
HETATM   11  N4  UNL     1      12.856  13.335   6.527  1.00  0.00    -0.323 N 
HETATM   12  N5  UNL     1      13.892  11.532   5.287  1.00  0.00    -0.285 N 
ATOM     13  H4  UNL     1      12.052  12.743   6.734  1.00  0.00     0.169 HD
HETATM   14  N6  UNL     1      15.028  10.973   4.719  1.00  0.00    -0.120 NA
ATOM     15  H5  UNL     1      13.038  10.978   5.342  1.00  0.00     0.184 HD
HETATM   16  C6  UNL     1      15.770  11.972   3.956  1.00  0.00     0.257 C 
ATOM     17  H7  UNL     1      16.955  13.579   4.759  1.00  0.00     0.162 HD
ENDBRANCH   3   4
BRANCH   3  18
HETATM   18  C7  UNL     1      11.168  14.272   8.763  1.00  0.00     0.156 C 
HETATM   19  C8  UNL     1       9.667  14.314   8.614  1.00  0.00     0.261 C 
HETATM   20  N8  UNL     1       8.965  13.515   9.573  1.00  0.00    -0.068 N 
HETATM   21  C9  UNL     1       9.751  13.150  10.722  1.00  0.00     0.286 C 
ATOM     22  H82 UNL     1       8.103  13.979   9.862  1.00  0.00     0.277 HD
ATOM     23  H81 UNL     1       8.575  12.684   9.128  1.00  0.00     0.277 HD
HETATM   24  C10 UNL     1      10.511  14.416  11.085  1.00  0.00     0.030 C 
HETATM   25  N9  UNL     1      10.149  15.014  12.092  1.00  0.00    -0.403 N 
HETATM   26  C11 UNL     1      11.588  14.730  10.182  1.00  0.00     0.151 C 
ATOM     27  H92 UNL     1       9.387  14.791  12.732  1.00  0.00     0.155 HD
ATOM     28  H91 UNL     1      10.659  15.863  12.336  1.00  0.00     0.155 HD
BRANCH  26  29
HETATM   29  N10 UNL     1      12.266  15.948  10.137  1.00  0.00    -0.385 N 
ATOM     30  H10 UNL     1      12.178  16.516   9.294  1.00  0.00     0.156 HD
BRANCH  29  31
HETATM   31  C12 UNL     1      13.067  16.437  11.184  1.00  0.00     0.283 C 
BRANCH  31  32
HETATM   32  N11 UNL     1      13.470  15.396  12.131  1.00  0.00    -0.056 NA
BRANCH  32  33
HETATM   33  O1  UNL     1      14.816  15.130  12.069  1.00  0.00    -0.189 OA
BRANCH  33  34
HETATM   34  C13 UNL     1      15.291  14.113  11.211  1.00  0.00     0.391 C 
HETATM   35  N12 UNL     1      15.325  14.291   9.808  1.00  0.00    -0.031 NA
HETATM   36  O2  UNL     1      15.676  13.058  11.789  1.00  0.00    -0.241 OA
ENDBRANCH  33  34
ENDBRANCH  32  33
ENDBRANCH  31  32
BRANCH  31  37
HETATM   37  C14 UNL     1      12.630  17.624  11.919  1.00  0.00     0.237 C 
HETATM   38  O3  UNL     1      11.394  17.832  12.039  1.00  0.00    -0.281 OA
HETATM   39  S1  UNL     1      13.712  18.820  12.678  1.00  0.00    -0.008 SA
ENDBRANCH  31  37
ENDBRANCH  29  31
ENDBRANCH  26  29
ENDBRANCH   3  18
TORSDOF 8
ENDMDL
MODEL 3
REMARK VINA RESULT: -6.846968806      1.526      1.942
REMARK  8 active torsions:
REMARK  status: ('A' for Active; 'I' for Inactive)
REMARK    1  A    between atoms: N2_3  and  C2_4 
REMARK    2  A    between atoms: N2_3  and  C7_18 
REMARK    3  A    between atoms: C11_28  and  N10_29 
REMARK    4  A    between atoms: N10_29  and  C12_31 
REMARK    5  A    between atoms: C12_31  and  N11_32 
REMARK    6  A    between atoms: C12_31  and  C14_37 
REMARK    7  A    between atoms: N11_32  and  O1_33 
REMARK    8  A    between atoms: O1_33  and  C13_34 
ROOT
HETATM    1  N1  UNL     1      12.974  18.640   7.223  1.00  0.00    -0.172 NA
HETATM    2  C1  UNL     1      12.776  17.573   6.757  1.00  0.00     0.186 C 
HETATM    3  N2  UNL     1      12.567  16.322   6.177  1.00  0.00    -0.260 N 
ENDROOT
BRANCH   3   4
HETATM    4  C2  UNL     1      13.735  15.724   5.593  1.00  0.00     0.134 A 
HETATM    5  C3  UNL     1      14.710  16.424   4.947  1.00  0.00     0.139 A 
HETATM    6  N3  UNL     1      15.771  15.802   4.393  1.00  0.00    -0.346 N 
HETATM    7  C4  UNL     1      15.825  14.446   4.508  1.00  0.00     0.148 A 
ATOM      8  H3  UNL     1      16.501  16.324   3.908  1.00  0.00     0.167 HD
HETATM    9  C5  UNL     1      14.857  13.725   5.154  1.00  0.00     0.163 A 
HETATM   10  N7  UNL     1      16.923  13.728   3.939  1.00  0.00    -0.358 N 
HETATM   11  N4  UNL     1      13.801  14.375   5.702  1.00  0.00    -0.323 N 
HETATM   12  N5  UNL     1      14.978  12.312   5.232  1.00  0.00    -0.285 N 
ATOM     13  H4  UNL     1      13.069  13.858   6.188  1.00  0.00     0.169 HD
HETATM   14  N6  UNL     1      16.146  11.663   4.861  1.00  0.00    -0.120 NA
ATOM     15  H5  UNL     1      14.187  11.762   5.568  1.00  0.00     0.184 HD
HETATM   16  C6  UNL     1      16.759  12.315   3.708  1.00  0.00     0.257 C 
ATOM     17  H7  UNL     1      17.796  14.201   3.703  1.00  0.00     0.162 HD
ENDBRANCH   3   4
BRANCH   3  18
HETATM   18  C7  UNL     1      11.290  15.706   6.171  1.00  0.00     0.156 C 
HETATM   19  C8  UNL     1      10.289  16.664   5.575  1.00  0.00     0.261 C 
HETATM   20  N8  UNL     1       8.969  16.124   5.451  1.00  0.00    -0.068 N 
HETATM   21  C9  UNL     1       8.733  14.956   6.258  1.00  0.00     0.286 C 
ATOM     22  H82 UNL     1       8.269  16.841   5.648  1.00  0.00     0.277 HD
ATOM     23  H81 UNL     1       8.751  15.933   4.473  1.00  0.00     0.277 HD
HETATM   24  C10 UNL     1       9.383  15.275   7.595  1.00  0.00     0.030 C 
HETATM   25  N9  UNL     1       8.635  15.515   8.535  1.00  0.00    -0.403 N 
HETATM   26  C11 UNL     1      10.823  15.230   7.570  1.00  0.00     0.151 C 
ATOM     27  H92 UNL     1       7.615  15.546   8.553  1.00  0.00     0.155 HD
ATOM     28  H91 UNL     1       9.070  15.729   9.432  1.00  0.00     0.155 HD
BRANCH  26  29
HETATM   29  N10 UNL     1      11.657  15.723   8.573  1.00  0.00    -0.385 N 
ATOM     30  H10 UNL     1      11.907  16.711   8.547  1.00  0.00     0.156 HD
BRANCH  29  31
HETATM   31  C12 UNL     1      12.174  14.936   9.618  1.00  0.00     0.283 C 
BRANCH  31  32
HETATM   32  N11 UNL     1      12.366  13.536   9.239  1.00  0.00    -0.056 NA
BRANCH  32  33
HETATM   33  O1  UNL     1      13.616  13.304   8.720  1.00  0.00    -0.189 OA
BRANCH  33  34
HETATM   34  C13 UNL     1      14.742  13.933   9.296  1.00  0.00     0.391 C 
HETATM   35  N12 UNL     1      15.091  13.718  10.651  1.00  0.00    -0.031 NA
HETATM   36  O2  UNL     1      15.396  14.682   8.519  1.00  0.00    -0.241 OA
ENDBRANCH  33  34
ENDBRANCH  32  33
ENDBRANCH  31  32
BRANCH  31  37
HETATM   37  C14 UNL     1      11.547  15.004  10.937  1.00  0.00     0.237 C 
HETATM   38  O3  UNL     1      11.454  13.945  11.611  1.00  0.00    -0.281 OA
HETATM   39  S1  UNL     1      10.897  16.482  11.692  1.00  0.00    -0.008 SA
ENDBRANCH  31  37
ENDBRANCH  29  31
ENDBRANCH  26  29
ENDBRANCH   3  18
TORSDOF 8
ENDMDL
MODEL 4
REMARK VINA RESULT: -6.804869728      4.868      7.027
REMARK  8 active torsions:
REMARK  status: ('A' for Active; 'I' for Inactive)
REMARK    1  A    between atoms: N2_3  and  C2_4 
REMARK    2  A    between atoms: N2_3  and  C7_18 
REMARK    3  A    between atoms: C11_28  and  N10_29 
REMARK    4  A    between atoms: N10_29  and  C12_31 
REMARK    5  A    between atoms: C12_31  and  N11_32 
REMARK    6  A    between atoms: C12_31  and  C14_37 
REMARK    7  A    between atoms: N11_32  and  O1_33 
REMARK    8  A    between atoms: O1_33  and  C13_34 
ROOT
HETATM    1  N1  UNL     1      14.271  19.190  14.223  1.00  0.00    -0.172 NA
HETATM    2  C1  UNL     1      13.896  19.219  13.103  1.00  0.00     0.186 C 
HETATM    3  N2  UNL     1      13.463  19.291  11.779  1.00  0.00    -0.260 N 
ENDROOT
BRANCH   3   4
HETATM    4  C2  UNL     1      14.290  20.089  10.917  1.00  0.00     0.134 A 
HETATM    5  C3  UNL     1      13.921  20.496   9.669  1.00  0.00     0.139 A 
HETATM    6  N3  UNL     1      14.754  21.220   8.892  1.00  0.00    -0.346 N 
HETATM    7  C4  UNL     1      15.976  21.526   9.410  1.00  0.00     0.148 A 
ATOM      8  H3  UNL     1      14.480  21.525   7.958  1.00  0.00     0.167 HD
HETATM    9  C5  UNL     1      16.365  21.126  10.660  1.00  0.00     0.163 A 
HETATM   10  N7  UNL     1      16.906  22.288   8.634  1.00  0.00    -0.358 N 
HETATM   11  N4  UNL     1      15.508  20.400  11.420  1.00  0.00    -0.323 N 
HETATM   12  N5  UNL     1      17.657  21.478  11.133  1.00  0.00    -0.285 N 
ATOM     13  H4  UNL     1      15.776  20.093  12.354  1.00  0.00     0.169 HD
HETATM   14  N6  UNL     1      18.453  22.390  10.455  1.00  0.00    -0.120 NA
ATOM     15  H5  UNL     1      18.007  21.052  11.991  1.00  0.00     0.184 HD
HETATM   16  C6  UNL     1      18.296  22.242   9.011  1.00  0.00     0.257 C 
ATOM     17  H7  UNL     1      16.595  22.846   7.839  1.00  0.00     0.162 HD
ENDBRANCH   3   4
BRANCH   3  18
HETATM   18  C7  UNL     1      12.293  18.623  11.338  1.00  0.00     0.156 C 
HETATM   19  C8  UNL     1      11.143  19.011  12.235  1.00  0.00     0.261 C 
HETATM   20  N8  UNL     1       9.885  18.450  11.844  1.00  0.00    -0.068 N 
HETATM   21  C9  UNL     1       9.994  17.332  10.946  1.00  0.00     0.286 C 
ATOM     22  H82 UNL     1       9.336  18.197  12.666  1.00  0.00     0.277 HD
ATOM     23  H81 UNL     1       9.282  19.170  11.447  1.00  0.00     0.277 HD
HETATM   24  C10 UNL     1      11.141  16.503  11.501  1.00  0.00     0.030 C 
HETATM   25  N9  UNL     1      10.851  15.447  12.052  1.00  0.00    -0.403 N 
HETATM   26  C11 UNL     1      12.441  17.082  11.279  1.00  0.00     0.151 C 
ATOM     27  H92 UNL     1       9.930  15.037  12.209  1.00  0.00     0.155 HD
ATOM     28  H91 UNL     1      11.620  14.891  12.425  1.00  0.00     0.155 HD
BRANCH  26  29
HETATM   29  N10 UNL     1      13.620  16.667  11.898  1.00  0.00    -0.385 N 
ATOM     30  H10 UNL     1      13.927  17.167  12.732  1.00  0.00     0.156 HD
BRANCH  29  31
HETATM   31  C12 UNL     1      14.411  15.598  11.439  1.00  0.00     0.283 C 
BRANCH  31  32
HETATM   32  N11 UNL     1      14.251  15.342  10.007  1.00  0.00    -0.056 NA
BRANCH  32  33
HETATM   33  O1  UNL     1      13.802  14.070   9.753  1.00  0.00    -0.189 OA
BRANCH  33  34
HETATM   34  C13 UNL     1      12.650  13.879   8.958  1.00  0.00     0.391 C 
HETATM   35  N12 UNL     1      12.705  13.978   7.547  1.00  0.00    -0.031 NA
HETATM   36  O2  UNL     1      11.593  13.615   9.597  1.00  0.00    -0.241 OA
ENDBRANCH  33  34
ENDBRANCH  32  33
ENDBRANCH  31  32
BRANCH  31  37
HETATM   37  C14 UNL     1      14.387  14.331  12.168  1.00  0.00     0.237 C 
HETATM   38  O3  UNL     1      13.318  13.987  12.737  1.00  0.00    -0.281 OA
HETATM   39  S1  UNL     1      15.762  13.207  12.321  1.00  0.00    -0.008 SA
ENDBRANCH  31  37
ENDBRANCH  29  31
ENDBRANCH  26  29
ENDBRANCH   3  18
TORSDOF 8
ENDMDL
MODEL 5
REMARK VINA RESULT: -6.743900195      2.084      3.043
REMARK  8 active torsions:
REMARK  status: ('A' for Active; 'I' for Inactive)
REMARK    1  A    between atoms: N2_3  and  C2_4 
REMARK    2  A    between atoms: N2_3  and  C7_18 
REMARK    3  A    between atoms: C11_28  and  N10_29 
REMARK    4  A    between atoms: N10_29  and  C12_31 
REMARK    5  A    between atoms: C12_31  and  N11_32 
REMARK    6  A    between atoms: C12_31  and  C14_37 
REMARK    7  A    between atoms: N11_32  and  O1_33 
REMARK    8  A    between atoms: O1_33  and  C13_34 
ROOT
HETATM    1  N1  UNL     1      13.404  17.400   5.624  1.00  0.00    -0.172 NA
HETATM    2  C1  UNL     1      12.928  16.353   5.354  1.00  0.00     0.186 C 
HETATM    3  N2  UNL     1      12.389  15.115   5.003  1.00  0.00    -0.260 N 
ENDROOT
BRANCH   3   4
HETATM    4  C2  UNL     1      13.332  14.178   4.460  1.00  0.00     0.134 A 
HETATM    5  C3  UNL     1      13.013  12.908   4.079  1.00  0.00     0.139 A 
HETATM    6  N3  UNL     1      13.951  12.062   3.602  1.00  0.00    -0.346 N 
HETATM    7  C4  UNL     1      15.226  12.533   3.519  1.00  0.00     0.148 A 
ATOM      8  H3  UNL     1      13.714  11.112   3.317  1.00  0.00     0.167 HD
HETATM    9  C5  UNL     1      15.566  13.804   3.896  1.00  0.00     0.163 A 
HETATM   10  N7  UNL     1      16.265  11.683   3.025  1.00  0.00    -0.358 N 
HETATM   11  N4  UNL     1      14.604  14.634   4.371  1.00  0.00    -0.323 N 
HETATM   12  N5  UNL     1      16.917  14.225   3.785  1.00  0.00    -0.285 N 
ATOM     13  H4  UNL     1      14.835  15.585   4.657  1.00  0.00     0.169 HD
HETATM   14  N6  UNL     1      17.861  13.464   3.110  1.00  0.00    -0.120 NA
ATOM     15  H5  UNL     1      17.201  15.108   4.210  1.00  0.00     0.184 HD
HETATM   16  C6  UNL     1      17.628  12.039   3.329  1.00  0.00     0.257 C 
ATOM     17  H7  UNL     1      16.049  10.852   2.475  1.00  0.00     0.162 HD
ENDBRANCH   3   4
BRANCH   3  18
HETATM   18  C7  UNL     1      11.012  14.825   5.175  1.00  0.00     0.156 C 
HETATM   19  C8  UNL     1      10.198  15.914   4.520  1.00  0.00     0.261 C 
HETATM   20  N8  UNL     1       8.785  15.693   4.568  1.00  0.00    -0.068 N 
HETATM   21  C9  UNL     1       8.374  14.722   5.547  1.00  0.00     0.286 C 
ATOM     22  H82 UNL     1       8.290  16.574   4.708  1.00  0.00     0.277 HD
ATOM     23  H81 UNL     1       8.432  15.441   3.645  1.00  0.00     0.277 HD
HETATM   24  C10 UNL     1       9.212  15.038   6.776  1.00  0.00     0.030 C 
HETATM   25  N9  UNL     1       8.636  15.562   7.723  1.00  0.00    -0.403 N 
HETATM   26  C11 UNL     1      10.593  14.649   6.656  1.00  0.00     0.151 C 
ATOM     27  H92 UNL     1       7.658  15.837   7.807  1.00  0.00     0.155 HD
ATOM     28  H91 UNL     1       9.198  15.775   8.547  1.00  0.00     0.155 HD
BRANCH  26  29
HETATM   29  N10 UNL     1      11.615  15.048   7.518  1.00  0.00    -0.385 N 
ATOM     30  H10 UNL     1      12.236  15.797   7.212  1.00  0.00     0.156 HD
BRANCH  29  31
HETATM   31  C12 UNL     1      11.840  14.477   8.783  1.00  0.00     0.283 C 
BRANCH  31  32
HETATM   32  N11 UNL     1      11.362  15.316   9.883  1.00  0.00    -0.056 NA
BRANCH  32  33
HETATM   33  O1  UNL     1      10.067  15.024  10.235  1.00  0.00    -0.189 OA
BRANCH  33  34
HETATM   34  C13 UNL     1       9.714  13.699  10.575  1.00  0.00     0.391 C 
HETATM   35  N12 UNL     1       8.827  12.945   9.771  1.00  0.00    -0.031 NA
HETATM   36  O2  UNL     1      10.246  13.254  11.631  1.00  0.00    -0.241 OA
ENDBRANCH  33  34
ENDBRANCH  32  33
ENDBRANCH  31  32
BRANCH  31  37
HETATM   37  C14 UNL     1      13.169  13.959   9.105  1.00  0.00     0.237 C 
HETATM   38  O3  UNL     1      13.537  12.880   8.570  1.00  0.00    -0.281 OA
HETATM   39  S1  UNL     1      14.338  14.735  10.204  1.00  0.00    -0.008 SA
ENDBRANCH  31  37
ENDBRANCH  29  31
ENDBRANCH  26  29
ENDBRANCH   3  18
TORSDOF 8
ENDMDL
