MODEL 1
REMARK VINA RESULT: -7.748516118      0.000      0.000
REMARK  11 active torsions:
REMARK  status: ('A' for Active; 'I' for Inactive)
REMARK    1  A    between atoms: O1_2  and  C2_3 
REMARK    2  A    between atoms: C2_3  and  C3_5 
REMARK    3  A    between atoms: N1_7  and  N2_8 
REMARK       I    between atoms: N2_8  and  C5_10 
REMARK    4  A    between atoms: C5_10  and  C6_12 
REMARK    5  A    between atoms: C6_12  and  N3_13 
REMARK    6  A    between atoms: C7_16  and  C8_17 
REMARK    7  A    between atoms: C9_19  and  O5_20 
REMARK    8  A    between atoms: C10_22  and  O6_23 
REMARK    9  A    between atoms: C11_25  and  O7_26 
REMARK   10  A    between atoms: N5_28  and  N6_29 
REMARK   11  A    between atoms: C12_32  and  N7_33 
ROOT
HETATM    1  N3  UNL     1      13.853  16.652   7.694  1.00  0.00    -0.112 N 
HETATM    2  N4  UNL     1      12.685  16.123   8.026  1.00  0.00    -0.264 N 
ATOM      3  H4  UNL     1      11.798  16.332   7.570  1.00  0.00     0.189 HD
HETATM    4  C7  UNL     1      12.844  15.252   9.074  1.00  0.00     0.197 A 
HETATM    5  N5  UNL     1      14.154  15.303   9.330  1.00  0.00    -0.071 N 
HETATM    6  C12 UNL     1      14.785  16.161   8.488  1.00  0.00     0.715 A 
ENDROOT
BRANCH   1   7
HETATM    7  C6  UNL     1      13.987  17.616   6.590  1.00  0.00     0.272 C 
BRANCH   7   8
HETATM    8  C5  UNL     1      14.139  16.731   5.348  1.00  0.00     0.257 C 
HETATM    9  N2  UNL     1      15.377  16.409   4.837  1.00  0.00    -0.258 N 
ATOM     10  H2  UNL     1      16.146  16.816   5.370  1.00  0.00     0.190 HD
HETATM   11  O3  UNL     1      13.046  16.349   4.862  1.00  0.00    -0.270 OA
BRANCH   9  12
HETATM   12  N1  UNL     1      15.803  15.665   3.776  1.00  0.00    -0.213 N 
HETATM   13  C4  UNL     1      16.159  14.355   4.044  1.00  0.00     0.143 A 
HETATM   14  C3  UNL     1      16.594  13.495   3.044  1.00  0.00     0.100 A 
HETATM   15  C14 UNL     1      16.655  13.999   1.784  1.00  0.00     0.120 A 
HETATM   16  N8  UNL     1      16.294  15.309   1.545  1.00  0.00    -0.292 N 
HETATM   17  N9  UNL     1      17.023  13.321   0.790  1.00  0.00    -0.384 N 
HETATM   18  C13 UNL     1      15.876  16.122   2.530  1.00  0.00     0.346 A 
ATOM     19  H8  UNL     1      16.347  15.670   0.592  1.00  0.00     0.172 HD
HETATM   20  O8  UNL     1      15.573  17.310   2.173  1.00  0.00    -0.245 OA
ATOM     21  H92 UNL     1      17.290  12.353   0.967  1.00  0.00     0.157 HD
ATOM     22  H91 UNL     1      17.069  13.700  -0.156  1.00  0.00     0.157 HD
BRANCH  14  23
HETATM   23  C2  UNL     1      16.966  12.126   3.377  1.00  0.00     0.298 C 
HETATM   24  O2  UNL     1      18.144  11.762   3.160  1.00  0.00    -0.259 OA
BRANCH  23  25
HETATM   25  O1  UNL     1      16.113  11.200   3.913  1.00  0.00    -0.322 OA
HETATM   26  C1  UNL     1      14.741  11.068   3.639  1.00  0.00     0.213 C 
ENDBRANCH  23  25
ENDBRANCH  14  23
ENDBRANCH   9  12
ENDBRANCH   7   8
ENDBRANCH   1   7
BRANCH   6  27
HETATM   27  N7  UNL     1      16.039  16.436   8.474  1.00  0.00    -0.231 N 
ATOM     28  H72 UNL     1      16.675  16.328   7.685  1.00  0.00     0.174 HD
ATOM     29  H71 UNL     1      16.597  16.804   9.244  1.00  0.00     0.174 HD
ENDBRANCH   6  27
BRANCH   4  30
HETATM   30  C8  UNL     1      11.750  14.482   9.641  1.00  0.00     0.162 A 
HETATM   31  O4  UNL     1      10.712  14.102   8.908  1.00  0.00    -0.279 OA
HETATM   32  C9  UNL     1       9.862  13.417   9.630  1.00  0.00     0.221 A 
HETATM   33  C10 UNL     1      10.323  13.319  10.907  1.00  0.00     0.161 A 
HETATM   34  C11 UNL     1      11.541  14.009  10.904  1.00  0.00     0.142 A 
BRANCH  32  35
HETATM   35  O5  UNL     1       8.666  12.879   9.133  1.00  0.00    -0.339 OA
ATOM     36  H5  UNL     1       8.596  12.024   8.725  1.00  0.00     0.220 HD
ENDBRANCH  32  35
BRANCH  33  37
HETATM   37  O6  UNL     1       9.733  12.678  11.995  1.00  0.00    -0.354 OA
ATOM     38  H6  UNL     1       9.890  11.798  12.319  1.00  0.00     0.218 HD
ENDBRANCH  33  37
BRANCH  34  39
HETATM   39  O7  UNL     1      12.314  14.136  12.017  1.00  0.00    -0.355 OA
ATOM     40  H7  UNL     1      12.070  14.392  12.899  1.00  0.00     0.218 HD
ENDBRANCH  34  39
ENDBRANCH   4  30
BRANCH   5  41
HETATM   41  N6  UNL     1      14.823  14.597  10.305  1.00  0.00    -0.322 N 
ATOM     42  H62 UNL     1      14.880  13.579  10.304  1.00  0.00     0.178 HD
ATOM     43  H61 UNL     1      15.316  14.991  11.106  1.00  0.00     0.178 HD
ENDBRANCH   5  41
TORSDOF 11
ENDMDL
MODEL 2
REMARK VINA RESULT: -7.592426553      1.256      1.526
REMARK  11 active torsions:
REMARK  status: ('A' for Active; 'I' for Inactive)
REMARK    1  A    between atoms: O1_2  and  C2_3 
REMARK    2  A    between atoms: C2_3  and  C3_5 
REMARK    3  A    between atoms: N1_7  and  N2_8 
REMARK       I    between atoms: N2_8  and  C5_10 
REMARK    4  A    between atoms: C5_10  and  C6_12 
REMARK    5  A    between atoms: C6_12  and  N3_13 
REMARK    6  A    between atoms: C7_16  and  C8_17 
REMARK    7  A    between atoms: C9_19  and  O5_20 
REMARK    8  A    between atoms: C10_22  and  O6_23 
REMARK    9  A    between atoms: C11_25  and  O7_26 
REMARK   10  A    between atoms: N5_28  and  N6_29 
REMARK   11  A    between atoms: C12_32  and  N7_33 
ROOT
HETATM    1  N3  UNL     1      13.836  16.638   7.701  1.00  0.00    -0.112 N 
HETATM    2  N4  UNL     1      12.668  16.115   8.041  1.00  0.00    -0.264 N 
ATOM      3  H4  UNL     1      11.776  16.340   7.600  1.00  0.00     0.189 HD
HETATM    4  C7  UNL     1      12.832  15.225   9.073  1.00  0.00     0.197 A 
HETATM    5  N5  UNL     1      14.146  15.260   9.312  1.00  0.00    -0.071 N 
HETATM    6  C12 UNL     1      14.773  16.127   8.476  1.00  0.00     0.715 A 
ENDROOT
BRANCH   1   7
HETATM    7  C6  UNL     1      13.964  17.619   6.612  1.00  0.00     0.272 C 
BRANCH   7   8
HETATM    8  C5  UNL     1      14.596  16.816   5.469  1.00  0.00     0.257 C 
HETATM    9  N2  UNL     1      13.890  15.847   4.791  1.00  0.00    -0.258 N 
ATOM     10  H2  UNL     1      12.935  15.739   5.132  1.00  0.00     0.190 HD
HETATM   11  O3  UNL     1      15.788  17.128   5.230  1.00  0.00    -0.270 OA
BRANCH   9  12
HETATM   12  N1  UNL     1      14.186  15.000   3.763  1.00  0.00    -0.213 N 
HETATM   13  C4  UNL     1      14.912  13.867   4.088  1.00  0.00     0.143 A 
HETATM   14  C3  UNL     1      15.262  12.923   3.132  1.00  0.00     0.100 A 
HETATM   15  C14 UNL     1      14.859  13.162   1.856  1.00  0.00     0.120 A 
HETATM   16  N8  UNL     1      14.137  14.300   1.560  1.00  0.00    -0.292 N 
HETATM   17  N9  UNL     1      15.104  12.382   0.900  1.00  0.00    -0.384 N 
HETATM   18  C13 UNL     1      13.810  15.199   2.504  1.00  0.00     0.346 A 
ATOM     19  H8  UNL     1      13.844  14.463   0.597  1.00  0.00     0.172 HD
HETATM   20  O8  UNL     1      13.141  16.207   2.097  1.00  0.00    -0.245 OA
ATOM     21  H92 UNL     1      15.637  11.541   1.119  1.00  0.00     0.157 HD
ATOM     22  H91 UNL     1      14.801  12.561  -0.057  1.00  0.00     0.157 HD
BRANCH  14  23
HETATM   23  C2  UNL     1      16.034  11.751   3.520  1.00  0.00     0.298 C 
HETATM   24  O2  UNL     1      15.454  10.844   4.160  1.00  0.00    -0.259 OA
BRANCH  23  25
HETATM   25  O1  UNL     1      17.360  11.567   3.236  1.00  0.00    -0.322 OA
HETATM   26  C1  UNL     1      18.342  12.567   3.144  1.00  0.00     0.213 C 
ENDBRANCH  23  25
ENDBRANCH  14  23
ENDBRANCH   9  12
ENDBRANCH   7   8
ENDBRANCH   1   7
BRANCH   6  27
HETATM   27  N7  UNL     1      16.029  16.390   8.450  1.00  0.00    -0.231 N 
ATOM     28  H72 UNL     1      16.755  15.844   7.986  1.00  0.00     0.174 HD
ATOM     29  H71 UNL     1      16.502  17.183   8.885  1.00  0.00     0.174 HD
ENDBRANCH   6  27
BRANCH   4  30
HETATM   30  C8  UNL     1      11.739  14.456   9.641  1.00  0.00     0.162 A 
HETATM   31  O4  UNL     1      10.709  14.060   8.905  1.00  0.00    -0.279 OA
HETATM   32  C9  UNL     1       9.857  13.379   9.629  1.00  0.00     0.221 A 
HETATM   33  C10 UNL     1      10.309  13.301  10.912  1.00  0.00     0.161 A 
HETATM   34  C11 UNL     1      11.523  13.999  10.908  1.00  0.00     0.142 A 
BRANCH  32  35
HETATM   35  O5  UNL     1       8.668  12.828   9.131  1.00  0.00    -0.339 OA
ATOM     36  H5  UNL     1       8.125  12.214   9.610  1.00  0.00     0.220 HD
ENDBRANCH  32  35
BRANCH  33  37
HETATM   37  O6  UNL     1       9.714  12.670  12.003  1.00  0.00    -0.354 OA
ATOM     38  H6  UNL     1      10.031  12.613  12.897  1.00  0.00     0.218 HD
ENDBRANCH  33  37
BRANCH  34  39
HETATM   39  O7  UNL     1      12.287  14.145  12.026  1.00  0.00    -0.355 OA
ATOM     40  H7  UNL     1      12.038  14.089  12.941  1.00  0.00     0.218 HD
ENDBRANCH  34  39
ENDBRANCH   4  30
BRANCH   5  41
HETATM   41  N6  UNL     1      14.821  14.532  10.266  1.00  0.00    -0.322 N 
ATOM     42  H62 UNL     1      15.781  14.741  10.538  1.00  0.00     0.178 HD
ATOM     43  H61 UNL     1      14.456  13.735  10.788  1.00  0.00     0.178 HD
ENDBRANCH   5  41
TORSDOF 11
ENDMDL
MODEL 3
REMARK VINA RESULT: -7.399405186      0.533      1.386
REMARK  11 active torsions:
REMARK  status: ('A' for Active; 'I' for Inactive)
REMARK    1  A    between atoms: O1_2  and  C2_3 
REMARK    2  A    between atoms: C2_3  and  C3_5 
REMARK    3  A    between atoms: N1_7  and  N2_8 
REMARK       I    between atoms: N2_8  and  C5_10 
REMARK    4  A    between atoms: C5_10  and  C6_12 
REMARK    5  A    between atoms: C6_12  and  N3_13 
REMARK    6  A    between atoms: C7_16  and  C8_17 
REMARK    7  A    between atoms: C9_19  and  O5_20 
REMARK    8  A    between atoms: C10_22  and  O6_23 
REMARK    9  A    between atoms: C11_25  and  O7_26 
REMARK   10  A    between atoms: N5_28  and  N6_29 
REMARK   11  A    between atoms: C12_32  and  N7_33 
ROOT
HETATM    1  N3  UNL     1      13.899  16.755   7.562  1.00  0.00    -0.112 N 
HETATM    2  N4  UNL     1      12.701  16.238   7.785  1.00  0.00    -0.264 N 
ATOM      3  H4  UNL     1      11.857  16.470   7.261  1.00  0.00     0.189 HD
HETATM    4  C7  UNL     1      12.759  15.343   8.824  1.00  0.00     0.197 A 
HETATM    5  N5  UNL     1      14.044  15.368   9.189  1.00  0.00    -0.071 N 
HETATM    6  C12 UNL     1      14.755  16.234   8.421  1.00  0.00     0.715 A 
ENDROOT
BRANCH   1   7
HETATM    7  C6  UNL     1      14.139  17.739   6.495  1.00  0.00     0.272 C 
BRANCH   7   8
HETATM    8  C5  UNL     1      14.260  16.884   5.229  1.00  0.00     0.257 C 
HETATM    9  N2  UNL     1      15.479  16.421   4.783  1.00  0.00    -0.258 N 
ATOM     10  H2  UNL     1      16.255  16.709   5.379  1.00  0.00     0.190 HD
HETATM   11  O3  UNL     1      13.162  16.662   4.661  1.00  0.00    -0.270 OA
BRANCH   9  12
HETATM   12  N1  UNL     1      15.877  15.665   3.720  1.00  0.00    -0.213 N 
HETATM   13  C4  UNL     1      16.205  14.347   3.990  1.00  0.00     0.143 A 
HETATM   14  C3  UNL     1      16.610  13.474   2.989  1.00  0.00     0.100 A 
HETATM   15  C14 UNL     1      16.671  13.973   1.726  1.00  0.00     0.120 A 
HETATM   16  N8  UNL     1      16.338  15.290   1.486  1.00  0.00    -0.292 N 
HETATM   17  N9  UNL     1      17.013  13.283   0.731  1.00  0.00    -0.384 N 
HETATM   18  C13 UNL     1      15.948  16.115   2.472  1.00  0.00     0.346 A 
ATOM     19  H8  UNL     1      16.389  15.647   0.532  1.00  0.00     0.172 HD
HETATM   20  O8  UNL     1      15.669  17.309   2.114  1.00  0.00    -0.245 OA
ATOM     21  H92 UNL     1      17.259  12.310   0.909  1.00  0.00     0.157 HD
ATOM     22  H91 UNL     1      17.058  13.658  -0.217  1.00  0.00     0.157 HD
BRANCH  14  23
HETATM   23  C2  UNL     1      16.954  12.099   3.323  1.00  0.00     0.298 C 
HETATM   24  O2  UNL     1      18.114  11.698   3.069  1.00  0.00    -0.259 OA
BRANCH  23  25
HETATM   25  O1  UNL     1      16.094  11.202   3.898  1.00  0.00    -0.322 OA
HETATM   26  C1  UNL     1      14.720  11.076   3.636  1.00  0.00     0.213 C 
ENDBRANCH  23  25
ENDBRANCH  14  23
ENDBRANCH   9  12
ENDBRANCH   7   8
ENDBRANCH   1   7
BRANCH   6  27
HETATM   27  N7  UNL     1      16.009  16.489   8.518  1.00  0.00    -0.231 N 
ATOM     28  H72 UNL     1      16.695  15.967   9.062  1.00  0.00     0.174 HD
ATOM     29  H71 UNL     1      16.519  17.250   8.070  1.00  0.00     0.174 HD
ENDBRANCH   6  27
BRANCH   4  30
HETATM   30  C8  UNL     1      11.611  14.579   9.281  1.00  0.00     0.162 A 
HETATM   31  O4  UNL     1      11.504  14.167  10.538  1.00  0.00    -0.279 OA
HETATM   32  C9  UNL     1      10.387  13.508  10.714  1.00  0.00     0.221 A 
HETATM   33  C10 UNL     1       9.696  13.459   9.542  1.00  0.00     0.161 A 
HETATM   34  C11 UNL     1      10.495  14.152   8.624  1.00  0.00     0.142 A 
BRANCH  32  35
HETATM   35  O5  UNL     1       9.992  12.949  11.938  1.00  0.00    -0.339 OA
ATOM     36  H5  UNL     1       9.299  13.302  12.484  1.00  0.00     0.220 HD
ENDBRANCH  32  35
BRANCH  33  37
HETATM   37  O6  UNL     1       8.464  12.858   9.287  1.00  0.00    -0.354 OA
ATOM     38  H6  UNL     1       7.669  12.900   9.804  1.00  0.00     0.218 HD
ENDBRANCH  33  37
BRANCH  34  39
HETATM   39  O7  UNL     1      10.136  14.319   7.322  1.00  0.00    -0.355 OA
ATOM     40  H7  UNL     1      10.346  15.025   6.721  1.00  0.00     0.218 HD
ENDBRANCH  34  39
ENDBRANCH   4  30
BRANCH   5  41
HETATM   41  N6  UNL     1      14.619  14.632  10.201  1.00  0.00    -0.322 N 
ATOM     42  H62 UNL     1      14.096  14.322  11.019  1.00  0.00     0.178 HD
ATOM     43  H61 UNL     1      15.591  14.326  10.248  1.00  0.00     0.178 HD
ENDBRANCH   5  41
TORSDOF 11
ENDMDL
MODEL 4
REMARK VINA RESULT: -7.340406574      2.229      3.109
REMARK  11 active torsions:
REMARK  status: ('A' for Active; 'I' for Inactive)
REMARK    1  A    between atoms: O1_2  and  C2_3 
REMARK    2  A    between atoms: C2_3  and  C3_5 
REMARK    3  A    between atoms: N1_7  and  N2_8 
REMARK       I    between atoms: N2_8  and  C5_10 
REMARK    4  A    between atoms: C5_10  and  C6_12 
REMARK    5  A    between atoms: C6_12  and  N3_13 
REMARK    6  A    between atoms: C7_16  and  C8_17 
REMARK    7  A    between atoms: C9_19  and  O5_20 
REMARK    8  A    between atoms: C10_22  and  O6_23 
REMARK    9  A    between atoms: C11_25  and  O7_26 
REMARK   10  A    between atoms: N5_28  and  N6_29 
REMARK   11  A    between atoms: C12_32  and  N7_33 
ROOT
HETATM    1  N3  UNL     1      14.127  17.446   8.474  1.00  0.00    -0.112 N 
HETATM    2  N4  UNL     1      13.583  16.358   8.999  1.00  0.00    -0.264 N 
ATOM      3  H4  UNL     1      13.821  15.401   8.737  1.00  0.00     0.189 HD
HETATM    4  C7  UNL     1      12.653  16.706   9.945  1.00  0.00     0.197 A 
HETATM    5  N5  UNL     1      12.685  18.041   9.942  1.00  0.00    -0.071 N 
HETATM    6  C12 UNL     1      13.587  18.508   9.040  1.00  0.00     0.715 A 
ENDROOT
BRANCH   1   7
HETATM    7  C6  UNL     1      15.168  17.376   7.437  1.00  0.00     0.272 C 
BRANCH   7   8
HETATM    8  C5  UNL     1      14.647  16.311   6.465  1.00  0.00     0.257 C 
HETATM    9  N2  UNL     1      15.226  15.064   6.380  1.00  0.00    -0.258 N 
ATOM     10  H2  UNL     1      16.011  14.946   7.021  1.00  0.00     0.190 HD
HETATM   11  O3  UNL     1      13.668  16.691   5.777  1.00  0.00    -0.270 OA
BRANCH   9  12
HETATM   12  N1  UNL     1      14.981  13.952   5.629  1.00  0.00    -0.213 N 
HETATM   13  C4  UNL     1      15.961  13.595   4.719  1.00  0.00     0.143 A 
HETATM   14  C3  UNL     1      15.833  12.475   3.908  1.00  0.00     0.100 A 
HETATM   15  C14 UNL     1      14.698  11.742   4.047  1.00  0.00     0.120 A 
HETATM   16  N8  UNL     1      13.737  12.121   4.962  1.00  0.00    -0.292 N 
HETATM   17  N9  UNL     1      14.465  10.702   3.379  1.00  0.00    -0.384 N 
HETATM   18  C13 UNL     1      13.884  13.210   5.736  1.00  0.00     0.346 A 
ATOM     19  H8  UNL     1      12.890  11.559   5.052  1.00  0.00     0.172 HD
HETATM   20  O8  UNL     1      12.921  13.449   6.540  1.00  0.00    -0.245 OA
ATOM     21  H92 UNL     1      15.175  10.421   2.704  1.00  0.00     0.157 HD
ATOM     22  H91 UNL     1      13.612  10.151   3.484  1.00  0.00     0.157 HD
BRANCH  14  23
HETATM   23  C2  UNL     1      16.888  12.144   2.960  1.00  0.00     0.298 C 
HETATM   24  O2  UNL     1      18.069  12.433   3.259  1.00  0.00    -0.259 OA
BRANCH  23  25
HETATM   25  O1  UNL     1      16.680  11.535   1.751  1.00  0.00    -0.322 OA
HETATM   26  C1  UNL     1      16.371  12.171   0.537  1.00  0.00     0.213 C 
ENDBRANCH  23  25
ENDBRANCH  14  23
ENDBRANCH   9  12
ENDBRANCH   7   8
ENDBRANCH   1   7
BRANCH   6  27
HETATM   27  N7  UNL     1      13.855  19.739   8.794  1.00  0.00    -0.231 N 
ATOM     28  H72 UNL     1      13.192  20.513   8.777  1.00  0.00     0.174 HD
ATOM     29  H71 UNL     1      14.767  20.139   8.577  1.00  0.00     0.174 HD
ENDBRANCH   6  27
BRANCH   4  30
HETATM   30  C8  UNL     1      11.913  15.732  10.729  1.00  0.00     0.162 A 
HETATM   31  O4  UNL     1      11.628  15.938  12.008  1.00  0.00    -0.279 OA
HETATM   32  C9  UNL     1      10.952  14.930  12.499  1.00  0.00     0.221 A 
HETATM   33  C10 UNL     1      10.760  13.993  11.530  1.00  0.00     0.161 A 
HETATM   34  C11 UNL     1      11.385  14.520  10.392  1.00  0.00     0.142 A 
BRANCH  32  35
HETATM   35  O5  UNL     1      10.506  14.858  13.827  1.00  0.00    -0.339 OA
ATOM     36  H5  UNL     1       9.665  14.502  14.087  1.00  0.00     0.220 HD
ENDBRANCH  32  35
BRANCH  33  37
HETATM   37  O6  UNL     1      10.094  12.773  11.624  1.00  0.00    -0.354 OA
ATOM     38  H6  UNL     1      10.348  11.997  12.110  1.00  0.00     0.218 HD
ENDBRANCH  33  37
BRANCH  34  39
HETATM   39  O7  UNL     1      11.409  13.863   9.201  1.00  0.00    -0.355 OA
ATOM     40  H7  UNL     1      11.169  12.966   8.998  1.00  0.00     0.218 HD
ENDBRANCH  34  39
ENDBRANCH   4  30
BRANCH   5  41
HETATM   41  N6  UNL     1      11.927  18.878  10.731  1.00  0.00    -0.322 N 
ATOM     42  H62 UNL     1      11.076  18.567  11.199  1.00  0.00     0.178 HD
ATOM     43  H61 UNL     1      12.118  19.860  10.929  1.00  0.00     0.178 HD
ENDBRANCH   5  41
TORSDOF 11
ENDMDL
MODEL 5
REMARK VINA RESULT: -7.288195461      3.176      5.536
REMARK  11 active torsions:
REMARK  status: ('A' for Active; 'I' for Inactive)
REMARK    1  A    between atoms: O1_2  and  C2_3 
REMARK    2  A    between atoms: C2_3  and  C3_5 
REMARK    3  A    between atoms: N1_7  and  N2_8 
REMARK       I    between atoms: N2_8  and  C5_10 
REMARK    4  A    between atoms: C5_10  and  C6_12 
REMARK    5  A    between atoms: C6_12  and  N3_13 
REMARK    6  A    between atoms: C7_16  and  C8_17 
REMARK    7  A    between atoms: C9_19  and  O5_20 
REMARK    8  A    between atoms: C10_22  and  O6_23 
REMARK    9  A    between atoms: C11_25  and  O7_26 
REMARK   10  A    between atoms: N5_28  and  N6_29 
REMARK   11  A    between atoms: C12_32  and  N7_33 
ROOT
HETATM    1  N3  UNL     1      14.559  14.986   8.510  1.00  0.00    -0.112 N 
HETATM    2  N4  UNL     1      15.350  16.047   8.467  1.00  0.00    -0.264 N 
ATOM      3  H4  UNL     1      16.337  16.030   8.209  1.00  0.00     0.189 HD
HETATM    4  C7  UNL     1      14.650  17.172   8.821  1.00  0.00     0.197 A 
HETATM    5  N5  UNL     1      13.421  16.713   9.069  1.00  0.00    -0.071 N 
HETATM    6  C12 UNL     1      13.352  15.370   8.883  1.00  0.00     0.715 A 
ENDROOT
BRANCH   1   7
HETATM    7  C6  UNL     1      15.039  13.639   8.168  1.00  0.00     0.272 C 
BRANCH   7   8
HETATM    8  C5  UNL     1      14.955  13.598   6.638  1.00  0.00     0.257 C 
HETATM    9  N2  UNL     1      15.950  13.028   5.874  1.00  0.00    -0.258 N 
ATOM     10  H2  UNL     1      16.716  12.653   6.435  1.00  0.00     0.190 HD
HETATM   11  O3  UNL     1      13.915  14.126   6.174  1.00  0.00    -0.270 OA
BRANCH   9  12
HETATM   12  N1  UNL     1      16.138  12.855   4.534  1.00  0.00    -0.213 N 
HETATM   13  C4  UNL     1      16.508  13.977   3.813  1.00  0.00     0.143 A 
HETATM   14  C3  UNL     1      16.742  13.924   2.446  1.00  0.00     0.100 A 
HETATM   15  C14 UNL     1      16.590  12.716   1.843  1.00  0.00     0.120 A 
HETATM   16  N8  UNL     1      16.220  11.614   2.585  1.00  0.00    -0.292 N 
HETATM   17  N9  UNL     1      16.780  12.533   0.613  1.00  0.00    -0.384 N 
HETATM   18  C13 UNL     1      16.000  11.691   3.909  1.00  0.00     0.346 A 
ATOM     19  H8  UNL     1      16.110  10.715   2.116  1.00  0.00     0.172 HD
HETATM   20  O8  UNL     1      15.662  10.597   4.476  1.00  0.00    -0.245 OA
ATOM     21  H92 UNL     1      17.054  13.348   0.064  1.00  0.00     0.157 HD
ATOM     22  H91 UNL     1      16.667  11.626   0.160  1.00  0.00     0.157 HD
BRANCH  14  23
HETATM   23  C2  UNL     1      17.121  15.134   1.729  1.00  0.00     0.298 C 
HETATM   24  O2  UNL     1      18.006  15.048   0.846  1.00  0.00    -0.259 OA
BRANCH  23  25
HETATM   25  O1  UNL     1      16.578  16.370   1.952  1.00  0.00    -0.322 OA
HETATM   26  C1  UNL     1      15.425  16.899   1.348  1.00  0.00     0.213 C 
ENDBRANCH  23  25
ENDBRANCH  14  23
ENDBRANCH   9  12
ENDBRANCH   7   8
ENDBRANCH   1   7
BRANCH   6  27
HETATM   27  N7  UNL     1      12.317  14.627   9.041  1.00  0.00    -0.231 N 
ATOM     28  H72 UNL     1      11.680  14.636   9.837  1.00  0.00     0.174 HD
ATOM     29  H71 UNL     1      11.967  13.915   8.401  1.00  0.00     0.174 HD
ENDBRANCH   6  27
BRANCH   4  30
HETATM   30  C8  UNL     1      15.235  18.503   8.830  1.00  0.00     0.162 A 
HETATM   31  O4  UNL     1      14.944  19.385   9.777  1.00  0.00    -0.279 OA
HETATM   32  C9  UNL     1      15.593  20.505   9.581  1.00  0.00     0.221 A 
HETATM   33  C10 UNL     1      16.359  20.397   8.461  1.00  0.00     0.161 A 
HETATM   34  C11 UNL     1      16.120  19.103   7.984  1.00  0.00     0.142 A 
BRANCH  32  35
HETATM   35  O5  UNL     1      15.491  21.626  10.417  1.00  0.00    -0.339 OA
ATOM     36  H5  UNL     1      14.673  22.060  10.628  1.00  0.00     0.220 HD
ENDBRANCH  32  35
BRANCH  33  37
HETATM   37  O6  UNL     1      17.203  21.351   7.894  1.00  0.00    -0.354 OA
ATOM     38  H6  UNL     1      17.882  21.864   8.316  1.00  0.00     0.218 HD
ENDBRANCH  33  37
BRANCH  34  39
HETATM   39  O7  UNL     1      16.715  18.615   6.861  1.00  0.00    -0.355 OA
ATOM     40  H7  UNL     1      16.776  18.997   5.993  1.00  0.00     0.218 HD
ENDBRANCH  34  39
ENDBRANCH   4  30
BRANCH   5  41
HETATM   41  N6  UNL     1      12.334  17.462   9.463  1.00  0.00    -0.322 N 
ATOM     42  H62 UNL     1      11.928  17.392  10.395  1.00  0.00     0.178 HD
ATOM     43  H61 UNL     1      11.831  18.142   8.893  1.00  0.00     0.178 HD
ENDBRANCH   5  41
TORSDOF 11
ENDMDL
