MODEL 1
REMARK VINA RESULT: -7.977903063      0.000      0.000
REMARK  9 active torsions:
REMARK  status: ('A' for Active; 'I' for Inactive)
REMARK    1  A    between atoms: N2_3  and  N3_5 
REMARK    2  A    between atoms: N4_7  and  O1_8 
REMARK       I    between atoms: N4_7  and  C2_10 
REMARK       I    between atoms: C2_10  and  N5_11 
REMARK    3  A    between atoms: N5_11  and  N6_13 
REMARK    4  A    between atoms: N6_13  and  C3_15 
REMARK    5  A    between atoms: N11_24  and  N12_26 
REMARK       I    between atoms: N12_26  and  C4_28 
REMARK    6  A    between atoms: C4_28  and  C5_30 
REMARK    7  A    between atoms: C6_32  and  N13_33 
REMARK    8  A    between atoms: N13_33  and  C7_35 
REMARK    9  A    between atoms: C10_44  and  O3_45 
ROOT
HETATM    1  N1  UNL     1      16.058  12.923  12.392  1.00  0.00    -0.170 NA
HETATM    2  C1  UNL     1      15.478  13.623  11.678  1.00  0.00     0.199 C 
HETATM    3  N2  UNL     1      14.756  14.456  10.806  1.00  0.00    -0.219 N 
ATOM      4  H2  UNL     1      13.937  14.965  11.136  1.00  0.00     0.201 HD
ENDROOT
BRANCH   3   5
HETATM    5  N3  UNL     1      15.175  14.576   9.488  1.00  0.00    -0.192 N 
HETATM    6  N4  UNL     1      14.718  13.826   8.592  1.00  0.00     0.034 N 
HETATM    7  C2  UNL     1      15.162  13.973   7.266  1.00  0.00     0.755 C 
HETATM    8  N5  UNL     1      15.290  15.223   6.635  1.00  0.00    -0.113 N 
HETATM    9  N11 UNL     1      15.464  12.909   6.606  1.00  0.00    -0.124 N 
ATOM     10  H5  UNL     1      15.808  15.243   5.756  1.00  0.00     0.206 HD
ATOM     11  H11 UNL     1      15.370  12.003   7.066  1.00  0.00     0.206 HD
ATOM     12  H3  UNL     1      15.865  15.286   9.243  1.00  0.00     0.212 HD
BRANCH   6  13
HETATM   13  O1  UNL     1      13.797  12.873   8.895  1.00  0.00    -0.253 OA
ATOM     14  H1  UNL     1      13.774  12.482   9.760  1.00  0.00     0.247 HD
ENDBRANCH   6  13
BRANCH   8  15
HETATM   15  N6  UNL     1      14.785  16.422   7.086  1.00  0.00    -0.115 N 
ATOM     16  H6  UNL     1      13.787  16.473   7.293  1.00  0.00     0.206 HD
BRANCH  15  17
HETATM   17  C3  UNL     1      15.495  17.483   7.264  1.00  0.00     0.728 A 
HETATM   18  N7  UNL     1      16.552  17.580   8.074  1.00  0.00    -0.114 N 
HETATM   19  N8  UNL     1      17.007  18.827   7.981  1.00  0.00    -0.213 N 
ATOM     20  H7  UNL     1      16.939  16.838   8.656  1.00  0.00     0.207 HD
HETATM   21  N9  UNL     1      16.265  19.509   7.138  1.00  0.00    -0.213 N 
ATOM     22  H8  UNL     1      17.810  19.198   8.489  1.00  0.00     0.210 HD
HETATM   23  N10 UNL     1      15.326  18.685   6.689  1.00  0.00    -0.114 N 
ATOM     24  H9  UNL     1      16.388  20.487   6.877  1.00  0.00     0.210 HD
ATOM     25  H10 UNL     1      14.597  18.926   6.018  1.00  0.00     0.207 HD
ENDBRANCH  15  17
ENDBRANCH   8  15
BRANCH   9  26
HETATM   26  N12 UNL     1      15.920  12.948   5.269  1.00  0.00    -0.251 N 
HETATM   27  C4  UNL     1      15.186  12.258   4.300  1.00  0.00     0.281 C 
HETATM   28  O2  UNL     1      14.137  11.619   4.642  1.00  0.00    -0.265 OA
ATOM     29  H12 UNL     1      16.762  13.466   5.018  1.00  0.00     0.191 HD
BRANCH  27  30
HETATM   30  C5  UNL     1      15.515  12.193   2.867  1.00  0.00     0.128 A 
HETATM   31  S1  UNL     1      14.448  12.401   1.521  1.00  0.00    -0.044 SA
HETATM   32  C6  UNL     1      15.579  12.180   0.263  1.00  0.00     0.154 A 
HETATM   33  N16 UNL     1      16.701  11.962   0.927  1.00  0.00    -0.316 N 
HETATM   34  C10 UNL     1      16.703  11.962   2.223  1.00  0.00     0.165 A 
ATOM     35  H16 UNL     1      17.569  11.793   0.418  1.00  0.00     0.170 HD
BRANCH  32  36
HETATM   36  N13 UNL     1      15.379  12.219  -1.168  1.00  0.00    -0.308 N 
ATOM     37  H13 UNL     1      14.681  12.847  -1.567  1.00  0.00     0.171 HD
BRANCH  36  38
HETATM   38  C7  UNL     1      16.153  11.382  -2.023  1.00  0.00     0.177 C 
HETATM   39  N14 UNL     1      15.676  10.371  -2.627  1.00  0.00    -0.361 N 
HETATM   40  C8  UNL     1      16.656   9.690  -3.429  1.00  0.00     0.142 C 
ATOM     41  H14 UNL     1      14.703  10.074  -2.552  1.00  0.00     0.162 HD
HETATM   42  C9  UNL     1      17.966  10.281  -2.944  1.00  0.00     0.142 C 
HETATM   43  N15 UNL     1      17.522  11.517  -2.339  1.00  0.00    -0.361 N 
ATOM     44  H15 UNL     1      18.097  12.342  -2.169  1.00  0.00     0.162 HD
ENDBRANCH  36  38
ENDBRANCH  32  36
BRANCH  34  45
HETATM   45  O3  UNL     1      17.884  11.731   2.991  1.00  0.00    -0.345 OA
ATOM     46  H3  UNL     1      18.639  12.296   2.868  1.00  0.00     0.219 HD
ENDBRANCH  34  45
ENDBRANCH  27  30
ENDBRANCH   9  26
ENDBRANCH   3   5
TORSDOF 9
ENDMDL
MODEL 2
REMARK VINA RESULT: -7.647487362      1.772      2.141
REMARK  9 active torsions:
REMARK  status: ('A' for Active; 'I' for Inactive)
REMARK    1  A    between atoms: N2_3  and  N3_5 
REMARK    2  A    between atoms: N4_7  and  O1_8 
REMARK       I    between atoms: N4_7  and  C2_10 
REMARK       I    between atoms: C2_10  and  N5_11 
REMARK    3  A    between atoms: N5_11  and  N6_13 
REMARK    4  A    between atoms: N6_13  and  C3_15 
REMARK    5  A    between atoms: N11_24  and  N12_26 
REMARK       I    between atoms: N12_26  and  C4_28 
REMARK    6  A    between atoms: C4_28  and  C5_30 
REMARK    7  A    between atoms: C6_32  and  N13_33 
REMARK    8  A    between atoms: N13_33  and  C7_35 
REMARK    9  A    between atoms: C10_44  and  O3_45 
ROOT
HETATM    1  N1  UNL     1      15.268  13.223  13.584  1.00  0.00    -0.170 NA
HETATM    2  C1  UNL     1      14.672  13.724  12.729  1.00  0.00     0.199 C 
HETATM    3  N2  UNL     1      13.939  14.309  11.683  1.00  0.00    -0.219 N 
ATOM      4  H2  UNL     1      12.954  14.543  11.810  1.00  0.00     0.201 HD
ENDROOT
BRANCH   3   5
HETATM    5  N3  UNL     1      14.573  14.566  10.475  1.00  0.00    -0.192 N 
HETATM    6  N4  UNL     1      14.171  14.042   9.409  1.00  0.00     0.034 N 
HETATM    7  C2  UNL     1      14.835  14.321   8.202  1.00  0.00     0.755 C 
HETATM    8  N5  UNL     1      15.223  15.619   7.822  1.00  0.00    -0.113 N 
HETATM    9  N11 UNL     1      15.098  13.339   7.412  1.00  0.00    -0.124 N 
ATOM     10  H5  UNL     1      15.872  15.694   7.039  1.00  0.00     0.206 HD
ATOM     11  H11 UNL     1      14.815  12.398   7.688  1.00  0.00     0.206 HD
ATOM     12  H3  UNL     1      15.379  15.189  10.455  1.00  0.00     0.212 HD
BRANCH   6  13
HETATM   13  O1  UNL     1      13.098  13.208   9.413  1.00  0.00    -0.253 OA
ATOM     14  H1  UNL     1      12.219  13.554   9.507  1.00  0.00     0.247 HD
ENDBRANCH   6  13
BRANCH   8  15
HETATM   15  N6  UNL     1      14.812  16.797   8.405  1.00  0.00    -0.115 N 
ATOM     16  H6  UNL     1      13.858  16.846   8.763  1.00  0.00     0.206 HD
BRANCH  15  17
HETATM   17  C3  UNL     1      15.558  17.842   8.525  1.00  0.00     0.728 A 
HETATM   18  N7  UNL     1      16.781  17.982   8.007  1.00  0.00    -0.114 N 
HETATM   19  N8  UNL     1      17.218  19.191   8.351  1.00  0.00    -0.213 N 
ATOM     20  H7  UNL     1      17.286  17.292   7.451  1.00  0.00     0.207 HD
HETATM   21  N9  UNL     1      16.305  19.807   9.067  1.00  0.00    -0.213 N 
ATOM     22  H8  UNL     1      18.126  19.581   8.097  1.00  0.00     0.210 HD
HETATM   23  N10 UNL     1      15.274  18.979   9.180  1.00  0.00    -0.114 N 
ATOM     24  H9  UNL     1      16.375  20.744   9.461  1.00  0.00     0.210 HD
ATOM     25  H10 UNL     1      14.408  19.174   9.683  1.00  0.00     0.207 HD
ENDBRANCH  15  17
ENDBRANCH   8  15
BRANCH   9  26
HETATM   26  N12 UNL     1      15.761  13.513   6.176  1.00  0.00    -0.251 N 
HETATM   27  C4  UNL     1      15.471  12.622   5.138  1.00  0.00     0.281 C 
HETATM   28  O2  UNL     1      14.626  11.687   5.330  1.00  0.00    -0.265 OA
ATOM     29  H12 UNL     1      16.435  14.268   6.045  1.00  0.00     0.191 HD
BRANCH  27  30
HETATM   30  C5  UNL     1      16.067  12.657   3.794  1.00  0.00     0.128 A 
HETATM   31  S1  UNL     1      15.468  11.920   2.347  1.00  0.00    -0.044 SA
HETATM   32  C6  UNL     1      16.699  12.421   1.277  1.00  0.00     0.154 A 
HETATM   33  N16 UNL     1      17.495  13.119   2.070  1.00  0.00    -0.316 N 
HETATM   34  C10 UNL     1      17.208  13.254   3.327  1.00  0.00     0.165 A 
ATOM     35  H16 UNL     1      18.337  13.551   1.691  1.00  0.00     0.170 HD
BRANCH  32  36
HETATM   36  N13 UNL     1      16.848  12.161  -0.136  1.00  0.00    -0.308 N 
ATOM     37  H13 UNL     1      16.698  11.219  -0.498  1.00  0.00     0.171 HD
BRANCH  36  38
HETATM   38  C7  UNL     1      17.205  13.215  -1.026  1.00  0.00     0.177 C 
HETATM   39  N14 UNL     1      18.382  13.374  -1.481  1.00  0.00    -0.361 N 
HETATM   40  C8  UNL     1      18.488  14.509  -2.358  1.00  0.00     0.142 C 
ATOM     41  H14 UNL     1      19.165  12.764  -1.250  1.00  0.00     0.162 HD
HETATM   42  C9  UNL     1      17.194  15.261  -2.105  1.00  0.00     0.142 C 
HETATM   43  N15 UNL     1      16.361  14.224  -1.537  1.00  0.00    -0.361 N 
ATOM     44  H15 UNL     1      15.342  14.222  -1.510  1.00  0.00     0.162 HD
ENDBRANCH  36  38
ENDBRANCH  32  36
BRANCH  34  45
HETATM   45  O3  UNL     1      18.032  13.995   4.228  1.00  0.00    -0.345 OA
ATOM     46  H3  UNL     1      18.622  14.657   3.885  1.00  0.00     0.219 HD
ENDBRANCH  34  45
ENDBRANCH  27  30
ENDBRANCH   9  26
ENDBRANCH   3   5
TORSDOF 9
ENDMDL
MODEL 3
REMARK VINA RESULT: -7.619447362      2.636      3.000
REMARK  9 active torsions:
REMARK  status: ('A' for Active; 'I' for Inactive)
REMARK    1  A    between atoms: N2_3  and  N3_5 
REMARK    2  A    between atoms: N4_7  and  O1_8 
REMARK       I    between atoms: N4_7  and  C2_10 
REMARK       I    between atoms: C2_10  and  N5_11 
REMARK    3  A    between atoms: N5_11  and  N6_13 
REMARK    4  A    between atoms: N6_13  and  C3_15 
REMARK    5  A    between atoms: N11_24  and  N12_26 
REMARK       I    between atoms: N12_26  and  C4_28 
REMARK    6  A    between atoms: C4_28  and  C5_30 
REMARK    7  A    between atoms: C6_32  and  N13_33 
REMARK    8  A    between atoms: N13_33  and  C7_35 
REMARK    9  A    between atoms: C10_44  and  O3_45 
ROOT
HETATM    1  N1  UNL     1      11.147  16.496  12.203  1.00  0.00    -0.170 NA
HETATM    2  C1  UNL     1      11.916  15.650  12.031  1.00  0.00     0.199 C 
HETATM    3  N2  UNL     1      12.865  14.633  11.839  1.00  0.00    -0.219 N 
ATOM      4  H2  UNL     1      12.912  13.840  12.480  1.00  0.00     0.201 HD
ENDROOT
BRANCH   3   5
HETATM    5  N3  UNL     1      13.740  14.720  10.765  1.00  0.00    -0.192 N 
HETATM    6  N4  UNL     1      13.471  14.180   9.665  1.00  0.00     0.034 N 
HETATM    7  C2  UNL     1      14.379  14.287   8.596  1.00  0.00     0.755 C 
HETATM    8  N5  UNL     1      15.007  15.494   8.241  1.00  0.00    -0.113 N 
HETATM    9  N11 UNL     1      14.642  13.226   7.915  1.00  0.00    -0.124 N 
ATOM     10  H5  UNL     1      15.793  15.431   7.594  1.00  0.00     0.206 HD
ATOM     11  H11 UNL     1      14.185  12.351   8.174  1.00  0.00     0.206 HD
ATOM     12  H3  UNL     1      14.615  15.232  10.871  1.00  0.00     0.212 HD
BRANCH   6  13
HETATM   13  O1  UNL     1      12.311  13.493   9.500  1.00  0.00    -0.253 OA
ATOM     14  H1  UNL     1      11.526  13.752   9.969  1.00  0.00     0.247 HD
ENDBRANCH   6  13
BRANCH   8  15
HETATM   15  N6  UNL     1      14.664  16.753   8.682  1.00  0.00    -0.115 N 
ATOM     16  H6  UNL     1      13.734  16.884   9.080  1.00  0.00     0.206 HD
BRANCH  15  17
HETATM   17  C3  UNL     1      15.446  17.777   8.621  1.00  0.00     0.728 A 
HETATM   18  N7  UNL     1      16.660  17.790   8.065  1.00  0.00    -0.114 N 
HETATM   19  N8  UNL     1      17.144  19.022   8.205  1.00  0.00    -0.213 N 
ATOM     20  H7  UNL     1      17.130  17.004   7.617  1.00  0.00     0.207 HD
HETATM   21  N9  UNL     1      16.268  19.775   8.831  1.00  0.00    -0.213 N 
ATOM     22  H8  UNL     1      18.057  19.335   7.876  1.00  0.00     0.210 HD
HETATM   23  N10 UNL     1      15.214  19.012   9.094  1.00  0.00    -0.114 N 
ATOM     24  H9  UNL     1      16.378  20.760   9.071  1.00  0.00     0.210 HD
ATOM     25  H10 UNL     1      14.367  19.315   9.575  1.00  0.00     0.207 HD
ENDBRANCH  15  17
ENDBRANCH   8  15
BRANCH   9  26
HETATM   26  N12 UNL     1      15.539  13.227   6.823  1.00  0.00    -0.251 N 
HETATM   27  C4  UNL     1      15.060  12.823   5.574  1.00  0.00     0.281 C 
HETATM   28  O2  UNL     1      13.842  12.466   5.453  1.00  0.00    -0.265 OA
ATOM     29  H12 UNL     1      16.510  13.515   6.943  1.00  0.00     0.191 HD
BRANCH  27  30
HETATM   30  C5  UNL     1      15.852  12.763   4.335  1.00  0.00     0.128 A 
HETATM   31  S1  UNL     1      16.846  14.003   3.649  1.00  0.00    -0.044 SA
HETATM   32  C6  UNL     1      17.391  13.159   2.270  1.00  0.00     0.154 A 
HETATM   33  N16 UNL     1      16.793  11.986   2.403  1.00  0.00    -0.316 N 
HETATM   34  C10 UNL     1      16.022  11.758   3.419  1.00  0.00     0.165 A 
ATOM     35  H16 UNL     1      16.940  11.259   1.703  1.00  0.00     0.170 HD
BRANCH  32  36
HETATM   36  N13 UNL     1      18.278  13.597   1.218  1.00  0.00    -0.308 N 
ATOM     37  H13 UNL     1      19.269  13.360   1.257  1.00  0.00     0.171 HD
BRANCH  36  38
HETATM   38  C7  UNL     1      17.773  14.359   0.125  1.00  0.00     0.177 C 
HETATM   39  N14 UNL     1      16.619  14.892   0.121  1.00  0.00    -0.361 N 
HETATM   40  C8  UNL     1      16.343  15.608  -1.095  1.00  0.00     0.142 C 
ATOM     41  H14 UNL     1      15.960  14.821   0.896  1.00  0.00     0.162 HD
HETATM   42  C9  UNL     1      17.443  15.136  -2.028  1.00  0.00     0.142 C 
HETATM   43  N15 UNL     1      18.429  14.646  -1.092  1.00  0.00    -0.361 N 
ATOM     44  H15 UNL     1      19.425  14.527  -1.277  1.00  0.00     0.162 HD
ENDBRANCH  36  38
ENDBRANCH  32  36
BRANCH  34  45
HETATM   45  O3  UNL     1      15.352  10.512   3.612  1.00  0.00    -0.345 OA
ATOM     46  H3  UNL     1      14.786  10.175   2.927  1.00  0.00     0.219 HD
ENDBRANCH  34  45
ENDBRANCH  27  30
ENDBRANCH   9  26
ENDBRANCH   3   5
TORSDOF 9
ENDMDL
MODEL 4
REMARK VINA RESULT: -7.597653052      1.414      2.180
REMARK  9 active torsions:
REMARK  status: ('A' for Active; 'I' for Inactive)
REMARK    1  A    between atoms: N2_3  and  N3_5 
REMARK    2  A    between atoms: N4_7  and  O1_8 
REMARK       I    between atoms: N4_7  and  C2_10 
REMARK       I    between atoms: C2_10  and  N5_11 
REMARK    3  A    between atoms: N5_11  and  N6_13 
REMARK    4  A    between atoms: N6_13  and  C3_15 
REMARK    5  A    between atoms: N11_24  and  N12_26 
REMARK       I    between atoms: N12_26  and  C4_28 
REMARK    6  A    between atoms: C4_28  and  C5_30 
REMARK    7  A    between atoms: C6_32  and  N13_33 
REMARK    8  A    between atoms: N13_33  and  C7_35 
REMARK    9  A    between atoms: C10_44  and  O3_45 
ROOT
HETATM    1  N1  UNL     1      16.063  12.905  12.431  1.00  0.00    -0.170 NA
HETATM    2  C1  UNL     1      15.472  13.612  11.733  1.00  0.00     0.199 C 
HETATM    3  N2  UNL     1      14.738  14.454  10.881  1.00  0.00    -0.219 N 
ATOM      4  H2  UNL     1      13.923  14.958  11.229  1.00  0.00     0.201 HD
ENDROOT
BRANCH   3   5
HETATM    5  N3  UNL     1      15.138  14.589   9.559  1.00  0.00    -0.192 N 
HETATM    6  N4  UNL     1      14.659  13.859   8.659  1.00  0.00     0.034 N 
HETATM    7  C2  UNL     1      15.085  14.021   7.329  1.00  0.00     0.755 C 
HETATM    8  N5  UNL     1      15.218  15.279   6.715  1.00  0.00    -0.113 N 
HETATM    9  N11 UNL     1      15.364  12.964   6.648  1.00  0.00    -0.124 N 
ATOM     10  H5  UNL     1      15.723  15.307   5.828  1.00  0.00     0.206 HD
ATOM     11  H11 UNL     1      15.267  12.052   7.095  1.00  0.00     0.206 HD
ATOM     12  H3  UNL     1      15.832  15.295   9.315  1.00  0.00     0.212 HD
BRANCH   6  13
HETATM   13  O1  UNL     1      13.732  12.912   8.961  1.00  0.00    -0.253 OA
ATOM     14  H1  UNL     1      13.989  12.107   9.395  1.00  0.00     0.247 HD
ENDBRANCH   6  13
BRANCH   8  15
HETATM   15  N6  UNL     1      14.733  16.476   7.192  1.00  0.00    -0.115 N 
ATOM     16  H6  UNL     1      13.741  16.533   7.422  1.00  0.00     0.206 HD
BRANCH  15  17
HETATM   17  C3  UNL     1      15.456  17.530   7.366  1.00  0.00     0.728 A 
HETATM   18  N7  UNL     1      15.240  18.718   6.796  1.00  0.00    -0.114 N 
HETATM   19  N8  UNL     1      16.197  19.539   7.222  1.00  0.00    -0.213 N 
ATOM     20  H7  UNL     1      14.483  18.954   6.155  1.00  0.00     0.207 HD
HETATM   21  N9  UNL     1      17.002  18.897   8.038  1.00  0.00    -0.213 N 
ATOM     22  H8  UNL     1      16.292  20.518   6.954  1.00  0.00     0.210 HD
HETATM   23  N10 UNL     1      16.551  17.652   8.133  1.00  0.00    -0.114 N 
ATOM     24  H9  UNL     1      17.819  19.283   8.511  1.00  0.00     0.210 HD
ATOM     25  H10 UNL     1      16.968  16.911   8.696  1.00  0.00     0.207 HD
ENDBRANCH  15  17
ENDBRANCH   8  15
BRANCH   9  26
HETATM   26  N12 UNL     1      15.800  13.019   5.305  1.00  0.00    -0.251 N 
HETATM   27  C4  UNL     1      15.114  12.256   4.355  1.00  0.00     0.281 C 
HETATM   28  O2  UNL     1      14.126  11.539   4.720  1.00  0.00    -0.265 OA
ATOM     29  H12 UNL     1      16.595  13.599   5.035  1.00  0.00     0.191 HD
BRANCH  27  30
HETATM   30  C5  UNL     1      15.432  12.195   2.920  1.00  0.00     0.128 A 
HETATM   31  S1  UNL     1      14.344  12.356   1.583  1.00  0.00    -0.044 SA
HETATM   32  C6  UNL     1      15.470  12.169   0.315  1.00  0.00     0.154 A 
HETATM   33  N16 UNL     1      16.607  11.996   0.970  1.00  0.00    -0.316 N 
HETATM   34  C10 UNL     1      16.621  12.003   2.265  1.00  0.00     0.165 A 
ATOM     35  H16 UNL     1      17.474  11.856   0.452  1.00  0.00     0.170 HD
BRANCH  32  36
HETATM   36  N13 UNL     1      15.255  12.193  -1.113  1.00  0.00    -0.308 N 
ATOM     37  H13 UNL     1      15.584  11.419  -1.690  1.00  0.00     0.171 HD
BRANCH  36  38
HETATM   38  C7  UNL     1      14.586  13.295  -1.719  1.00  0.00     0.177 C 
HETATM   39  N14 UNL     1      15.113  14.444  -1.852  1.00  0.00    -0.361 N 
HETATM   40  C8  UNL     1      14.237  15.387  -2.493  1.00  0.00     0.142 C 
ATOM     41  H14 UNL     1      16.056  14.673  -1.537  1.00  0.00     0.162 HD
HETATM   42  C9  UNL     1      12.889  14.691  -2.443  1.00  0.00     0.142 C 
HETATM   43  N15 UNL     1      13.280  13.311  -2.256  1.00  0.00    -0.361 N 
ATOM     44  H15 UNL     1      12.712  12.493  -2.474  1.00  0.00     0.162 HD
ENDBRANCH  36  38
ENDBRANCH  32  36
BRANCH  34  45
HETATM   45  O3  UNL     1      17.817  11.820   3.022  1.00  0.00    -0.345 OA
ATOM     46  H3  UNL     1      18.523  11.294   2.662  1.00  0.00     0.219 HD
ENDBRANCH  34  45
ENDBRANCH  27  30
ENDBRANCH   9  26
ENDBRANCH   3   5
TORSDOF 9
ENDMDL
MODEL 5
REMARK VINA RESULT: -7.546157980      3.448      4.501
REMARK  9 active torsions:
REMARK  status: ('A' for Active; 'I' for Inactive)
REMARK    1  A    between atoms: N2_3  and  N3_5 
REMARK    2  A    between atoms: N4_7  and  O1_8 
REMARK       I    between atoms: N4_7  and  C2_10 
REMARK       I    between atoms: C2_10  and  N5_11 
REMARK    3  A    between atoms: N5_11  and  N6_13 
REMARK    4  A    between atoms: N6_13  and  C3_15 
REMARK    5  A    between atoms: N11_24  and  N12_26 
REMARK       I    between atoms: N12_26  and  C4_28 
REMARK    6  A    between atoms: C4_28  and  C5_30 
REMARK    7  A    between atoms: C6_32  and  N13_33 
REMARK    8  A    between atoms: N13_33  and  C7_35 
REMARK    9  A    between atoms: C10_44  and  O3_45 
ROOT
HETATM    1  N1  UNL     1       9.705  13.231  10.929  1.00  0.00    -0.170 NA
HETATM    2  C1  UNL     1      10.751  13.687  10.741  1.00  0.00     0.199 C 
HETATM    3  N2  UNL     1      12.013  14.262  10.518  1.00  0.00    -0.219 N 
ATOM      4  H2  UNL     1      12.641  14.449  11.299  1.00  0.00     0.201 HD
ENDROOT
BRANCH   3   5
HETATM    5  N3  UNL     1      12.392  14.573   9.220  1.00  0.00    -0.192 N 
HETATM    6  N4  UNL     1      13.248  13.886   8.613  1.00  0.00     0.034 N 
HETATM    7  C2  UNL     1      13.612  14.227   7.298  1.00  0.00     0.755 C 
HETATM    8  N5  UNL     1      12.673  14.562   6.306  1.00  0.00    -0.113 N 
HETATM    9  N11 UNL     1      14.864  14.232   6.996  1.00  0.00    -0.124 N 
ATOM     10  H5  UNL     1      13.037  14.988   5.454  1.00  0.00     0.206 HD
ATOM     11  H11 UNL     1      15.543  13.989   7.718  1.00  0.00     0.206 HD
ATOM     12  H3  UNL     1      11.969  15.374   8.751  1.00  0.00     0.212 HD
BRANCH   6  13
HETATM   13  O1  UNL     1      13.826  12.814   9.217  1.00  0.00    -0.253 OA
ATOM     14  H1  UNL     1      14.771  12.750   9.283  1.00  0.00     0.247 HD
ENDBRANCH   6  13
BRANCH   8  15
HETATM   15  N6  UNL     1      11.311  14.368   6.371  1.00  0.00    -0.115 N 
ATOM     16  H6  UNL     1      10.811  14.753   7.173  1.00  0.00     0.206 HD
BRANCH  15  17
HETATM   17  C3  UNL     1      10.629  13.732   5.481  1.00  0.00     0.728 A 
HETATM   18  N7  UNL     1       9.298  13.628   5.455  1.00  0.00    -0.114 N 
HETATM   19  N8  UNL     1       8.980  12.896   4.390  1.00  0.00    -0.213 N 
ATOM     20  H7  UNL     1       8.646  14.033   6.126  1.00  0.00     0.207 HD
HETATM   21  N9  UNL     1      10.073  12.542   3.753  1.00  0.00    -0.213 N 
ATOM     22  H8  UNL     1       8.031  12.648   4.110  1.00  0.00     0.210 HD
HETATM   23  N10 UNL     1      11.099  13.054   4.421  1.00  0.00    -0.114 N 
ATOM     24  H9  UNL     1      10.124  11.979   2.904  1.00  0.00     0.210 HD
ATOM     25  H10 UNL     1      12.082  12.950   4.171  1.00  0.00     0.207 HD
ENDBRANCH  15  17
ENDBRANCH   8  15
BRANCH   9  26
HETATM   26  N12 UNL     1      15.333  14.560   5.704  1.00  0.00    -0.251 N 
HETATM   27  C4  UNL     1      15.945  13.557   4.948  1.00  0.00     0.281 C 
HETATM   28  O2  UNL     1      16.065  12.385   5.437  1.00  0.00    -0.265 OA
ATOM     29  H12 UNL     1      15.227  15.505   5.333  1.00  0.00     0.191 HD
BRANCH  27  30
HETATM   30  C5  UNL     1      16.489  13.723   3.591  1.00  0.00     0.128 A 
HETATM   31  S1  UNL     1      16.418  15.129   2.584  1.00  0.00    -0.044 SA
HETATM   32  C6  UNL     1      17.251  14.513   1.229  1.00  0.00     0.154 A 
HETATM   33  N16 UNL     1      17.538  13.279   1.610  1.00  0.00    -0.316 N 
HETATM   34  C10 UNL     1      17.172  12.857   2.779  1.00  0.00     0.165 A 
ATOM     35  H16 UNL     1      18.049  12.659   0.982  1.00  0.00     0.170 HD
BRANCH  32  36
HETATM   36  N13 UNL     1      17.571  15.159  -0.023  1.00  0.00    -0.308 N 
ATOM     37  H13 UNL     1      17.568  16.177  -0.085  1.00  0.00     0.171 HD
BRANCH  36  38
HETATM   38  C7  UNL     1      17.891  14.379  -1.172  1.00  0.00     0.177 C 
HETATM   39  N14 UNL     1      17.012  13.862  -1.930  1.00  0.00    -0.361 N 
HETATM   40  C8  UNL     1      17.586  13.121  -3.021  1.00  0.00     0.142 C 
ATOM     41  H14 UNL     1      16.008  13.961  -1.782  1.00  0.00     0.162 HD
HETATM   42  C9  UNL     1      19.041  12.982  -2.613  1.00  0.00     0.142 C 
HETATM   43  N15 UNL     1      19.178  14.055  -1.653  1.00  0.00    -0.361 N 
ATOM     44  H15 UNL     1      20.052  14.499  -1.372  1.00  0.00     0.162 HD
ENDBRANCH  36  38
ENDBRANCH  32  36
BRANCH  34  45
HETATM   45  O3  UNL     1      17.454  11.536   3.242  1.00  0.00    -0.345 OA
ATOM     46  H3  UNL     1      17.926  10.933   2.678  1.00  0.00     0.219 HD
ENDBRANCH  34  45
ENDBRANCH  27  30
ENDBRANCH   9  26
ENDBRANCH   3   5
TORSDOF 9
ENDMDL
