MODEL 1
REMARK VINA RESULT: -9.097955554      0.000      0.000
REMARK  16 active torsions:
REMARK  status: ('A' for Active; 'I' for Inactive)
REMARK    1  A    between atoms: C2_2  and  C3_3 
REMARK    2  A    between atoms: C3_3  and  C4_4 
REMARK    3  A    between atoms: C4_4  and  N1_5 
REMARK       I    between atoms: N1_5  and  C5_7 
REMARK    4  A    between atoms: C5_7  and  C6_9 
REMARK    5  A    between atoms: C6_9  and  C7_10 
REMARK    6  A    between atoms: C7_10  and  C8_11 
REMARK    7  A    between atoms: C8_11  and  C9_12 
REMARK    8  A    between atoms: C9_12  and  C10_13 
REMARK    9  A    between atoms: C10_13  and  C11_14 
REMARK   10  A    between atoms: C12_18  and  C13_19 
REMARK   11  A    between atoms: C13_19  and  C14_20 
REMARK   12  A    between atoms: C14_20  and  C15_21 
REMARK   13  A    between atoms: C15_21  and  N3_22 
REMARK       I    between atoms: N3_22  and  C16_23 
REMARK   14  A    between atoms: N6_28  and  C18_29 
REMARK   15  A    between atoms: C18_29  and  O3_30 
REMARK   16  A    between atoms: C19_32  and  C20_33 
ROOT
HETATM    1  C11 UNL     1       7.146  -3.177  14.542  1.00  0.00     0.278 C 
HETATM    2  N2  UNL     1       8.127  -2.167  14.002  1.00  0.00    -0.050 N 
ATOM      3  H21 UNL     1       8.530  -2.417  13.099  1.00  0.00     0.279 HD
ATOM      4  H22 UNL     1       9.011  -2.128  14.511  1.00  0.00     0.279 HD
HETATM    5  C12 UNL     1       7.371  -0.894  13.998  1.00  0.00     0.279 C 
HETATM    6  C17 UNL     1       5.946  -1.077  13.643  1.00  0.00     0.258 C 
HETATM    7  O2  UNL     1       5.692  -1.065  12.437  1.00  0.00    -0.271 OA
HETATM    8  N6  UNL     1       4.701  -1.273  14.439  1.00  0.00    -0.275 N 
HETATM    9  C28 UNL     1       4.556  -1.397  15.871  1.00  0.00     0.192 C 
HETATM   10  C29 UNL     1       3.644  -2.458  16.406  1.00  0.00     0.056 C 
HETATM   11  N8  UNL     1       5.868  -1.761  16.428  1.00  0.00    -0.338 N 
ATOM     12  H8  UNL     1       6.104  -1.315  17.315  1.00  0.00     0.164 HD
HETATM   13  C30 UNL     1       6.868  -2.653  15.904  1.00  0.00     0.250 C 
HETATM   14  O4  UNL     1       7.627  -3.026  16.821  1.00  0.00    -0.271 OA
ENDROOT
BRANCH   8  15
HETATM   15  C18 UNL     1       3.594  -1.280  13.621  1.00  0.00     0.147 C 
HETATM   16  C19 UNL     1       2.402  -0.533  13.455  1.00  0.00     0.070 C 
BRANCH  15  17
HETATM   17  O3  UNL     1       3.617  -2.288  12.658  1.00  0.00    -0.346 OA
ATOM     18  H3  UNL     1       3.315  -2.004  11.803  1.00  0.00     0.219 HD
ENDBRANCH  15  17
BRANCH  16  19
HETATM   19  C20 UNL     1       2.417   0.469  12.312  1.00  0.00    -0.004 A 
HETATM   20  C21 UNL     1       3.594   1.009  11.809  1.00  0.00     0.101 A 
HETATM   21  N7  UNL     1       3.232   1.902  10.830  1.00  0.00    -0.364 N 
HETATM   22  C22 UNL     1       1.906   1.948  10.689  1.00  0.00     0.043 A 
ATOM     23  H7  UNL     1       3.891   2.457  10.283  1.00  0.00     0.165 HD
HETATM   24  C23 UNL     1       1.051   2.657   9.849  1.00  0.00     0.030 A 
HETATM   25  C27 UNL     1       1.400   1.044  11.628  1.00  0.00     0.002 A 
HETATM   26  C24 UNL     1      -0.297   2.449   9.956  1.00  0.00     0.002 A 
HETATM   27  C25 UNL     1      -0.794   1.543  10.889  1.00  0.00     0.001 A 
HETATM   28  C26 UNL     1       0.029   0.853  11.709  1.00  0.00     0.014 A 
ENDBRANCH  16  19
ENDBRANCH   8  15
BRANCH   5  29
HETATM   29  C13 UNL     1       8.091  -0.067  12.936  1.00  0.00     0.049 C 
BRANCH  29  30
HETATM   30  C14 UNL     1       7.899   1.413  13.249  1.00  0.00     0.062 C 
BRANCH  30  31
HETATM   31  C15 UNL     1       8.458   2.214  12.055  1.00  0.00     0.158 C 
BRANCH  31  32
HETATM   32  N3  UNL     1       7.675   2.897  11.262  1.00  0.00    -0.393 NA
HETATM   33  C16 UNL     1       6.980   3.518  10.527  1.00  0.00     0.274 C 
HETATM   34  N4  UNL     1       7.379   3.949   9.241  1.00  0.00    -0.052 NA
HETATM   35  N5  UNL     1       5.639   3.958  10.937  1.00  0.00    -0.052 NA
ENDBRANCH  31  32
ENDBRANCH  30  31
ENDBRANCH  29  30
ENDBRANCH   5  29
BRANCH   1  36
HETATM   36  C10 UNL     1       7.662  -4.552  14.424  1.00  0.00     0.043 C 
BRANCH  36  37
HETATM   37  C9  UNL     1       9.105  -4.784  14.467  1.00  0.00     0.002 C 
BRANCH  37  38
HETATM   38  C8  UNL     1       9.885  -5.170  15.637  1.00  0.00     0.001 C 
BRANCH  38  39
HETATM   39  C7  UNL     1       9.492  -6.478  16.268  1.00  0.00     0.009 C 
BRANCH  39  40
HETATM   40  C6  UNL     1       9.216  -6.280  17.769  1.00  0.00     0.103 C 
BRANCH  40  41
HETATM   41  C5  UNL     1       7.746  -6.327  17.936  1.00  0.00     0.217 C 
HETATM   42  N1  UNL     1       6.927  -6.977  17.005  1.00  0.00    -0.361 N 
ATOM     43  H1  UNL     1       7.325  -7.448  16.192  1.00  0.00     0.162 HD
HETATM   44  O1  UNL     1       7.200  -5.775  18.937  1.00  0.00    -0.274 OA
BRANCH  42  45
HETATM   45  C4  UNL     1       5.475  -6.960  17.237  1.00  0.00     0.122 C 
BRANCH  45  46
HETATM   46  C3  UNL     1       4.770  -5.998  16.333  1.00  0.00     0.019 C 
BRANCH  46  47
HETATM   47  C2  UNL     1       3.653  -6.690  15.555  1.00  0.00    -0.003 C 
HETATM   48  C1  UNL     1       2.631  -5.673  15.083  1.00  0.00     0.005 C 
ENDBRANCH  46  47
ENDBRANCH  45  46
ENDBRANCH  42  45
ENDBRANCH  40  41
ENDBRANCH  39  40
ENDBRANCH  38  39
ENDBRANCH  37  38
ENDBRANCH  36  37
ENDBRANCH   1  36
TORSDOF 16
ENDMDL
MODEL 2
REMARK VINA RESULT: -8.834967001      1.970      8.621
REMARK  16 active torsions:
REMARK  status: ('A' for Active; 'I' for Inactive)
REMARK    1  A    between atoms: C2_2  and  C3_3 
REMARK    2  A    between atoms: C3_3  and  C4_4 
REMARK    3  A    between atoms: C4_4  and  N1_5 
REMARK       I    between atoms: N1_5  and  C5_7 
REMARK    4  A    between atoms: C5_7  and  C6_9 
REMARK    5  A    between atoms: C6_9  and  C7_10 
REMARK    6  A    between atoms: C7_10  and  C8_11 
REMARK    7  A    between atoms: C8_11  and  C9_12 
REMARK    8  A    between atoms: C9_12  and  C10_13 
REMARK    9  A    between atoms: C10_13  and  C11_14 
REMARK   10  A    between atoms: C12_18  and  C13_19 
REMARK   11  A    between atoms: C13_19  and  C14_20 
REMARK   12  A    between atoms: C14_20  and  C15_21 
REMARK   13  A    between atoms: C15_21  and  N3_22 
REMARK       I    between atoms: N3_22  and  C16_23 
REMARK   14  A    between atoms: N6_28  and  C18_29 
REMARK   15  A    between atoms: C18_29  and  O3_30 
REMARK   16  A    between atoms: C19_32  and  C20_33 
ROOT
HETATM    1  C11 UNL     1       6.210  -0.405  13.930  1.00  0.00     0.278 C 
HETATM    2  N2  UNL     1       7.348  -1.386  13.792  1.00  0.00    -0.050 N 
ATOM      3  H21 UNL     1       8.079  -1.280  14.495  1.00  0.00     0.279 HD
ATOM      4  H22 UNL     1       7.947  -1.221  12.983  1.00  0.00     0.279 HD
HETATM    5  C12 UNL     1       6.687  -2.711  13.799  1.00  0.00     0.279 C 
HETATM    6  C17 UNL     1       5.528  -2.766  14.718  1.00  0.00     0.258 C 
HETATM    7  O2  UNL     1       5.790  -3.051  15.889  1.00  0.00    -0.271 OA
HETATM    8  N6  UNL     1       4.062  -2.556  14.545  1.00  0.00    -0.275 N 
HETATM    9  C28 UNL     1       3.342  -2.163  13.356  1.00  0.00     0.192 C 
HETATM   10  C29 UNL     1       2.269  -1.126  13.484  1.00  0.00     0.056 C 
HETATM   11  N8  UNL     1       4.304  -1.547  12.428  1.00  0.00    -0.338 N 
ATOM     12  H8  UNL     1       4.165  -1.775  11.443  1.00  0.00     0.164 HD
HETATM   13  C30 UNL     1       5.410  -0.672  12.707  1.00  0.00     0.250 C 
HETATM   14  O4  UNL     1       5.720  -0.038  11.678  1.00  0.00    -0.271 OA
ENDROOT
BRANCH   8  15
HETATM   15  C18 UNL     1       3.387  -2.841  15.710  1.00  0.00     0.147 C 
HETATM   16  C19 UNL     1       2.414  -3.764  16.165  1.00  0.00     0.070 C 
BRANCH  15  17
HETATM   17  O3  UNL     1       3.739  -2.013  16.777  1.00  0.00    -0.346 OA
ATOM     18  H3  UNL     1       4.666  -2.033  16.983  1.00  0.00     0.219 HD
ENDBRANCH  15  17
BRANCH  16  19
HETATM   19  C20 UNL     1       2.955  -4.929  16.977  1.00  0.00    -0.004 A 
HETATM   20  C21 UNL     1       3.188  -4.843  18.343  1.00  0.00     0.101 A 
HETATM   21  N7  UNL     1       3.717  -6.050  18.732  1.00  0.00    -0.364 N 
HETATM   22  C22 UNL     1       3.824  -6.883  17.695  1.00  0.00     0.043 A 
ATOM     23  H7  UNL     1       3.993  -6.279  19.687  1.00  0.00     0.165 HD
HETATM   24  C23 UNL     1       4.270  -8.194  17.555  1.00  0.00     0.030 A 
HETATM   25  C27 UNL     1       3.343  -6.169  16.592  1.00  0.00     0.002 A 
HETATM   26  C24 UNL     1       4.226  -8.775  16.316  1.00  0.00     0.002 A 
HETATM   27  C25 UNL     1       3.741  -8.061  15.225  1.00  0.00     0.001 A 
HETATM   28  C26 UNL     1       3.309  -6.787  15.352  1.00  0.00     0.014 A 
ENDBRANCH  16  19
ENDBRANCH   8  15
BRANCH   5  29
HETATM   29  C13 UNL     1       7.796  -3.648  14.271  1.00  0.00     0.049 C 
BRANCH  29  30
HETATM   30  C14 UNL     1       8.949  -2.815  14.817  1.00  0.00     0.062 C 
BRANCH  30  31
HETATM   31  C15 UNL     1       9.835  -3.750  15.665  1.00  0.00     0.158 C 
BRANCH  31  32
HETATM   32  N3  UNL     1       9.323  -4.541  16.571  1.00  0.00    -0.393 NA
HETATM   33  C16 UNL     1       8.838  -5.258  17.385  1.00  0.00     0.274 C 
HETATM   34  N4  UNL     1       7.470  -5.614  17.407  1.00  0.00    -0.052 NA
HETATM   35  N5  UNL     1       9.632  -5.788  18.502  1.00  0.00    -0.052 NA
ENDBRANCH  31  32
ENDBRANCH  30  31
ENDBRANCH  29  30
ENDBRANCH   5  29
BRANCH   1  36
HETATM   36  C10 UNL     1       6.699   0.966  14.150  1.00  0.00     0.043 C 
BRANCH  36  37
HETATM   37  C9  UNL     1       8.050   1.326  13.719  1.00  0.00     0.002 C 
BRANCH  37  38
HETATM   38  C8  UNL     1       8.416   1.953  12.454  1.00  0.00     0.001 C 
BRANCH  38  39
HETATM   39  C7  UNL     1       7.587   3.147  12.066  1.00  0.00     0.009 C 
BRANCH  39  40
HETATM   40  C6  UNL     1       7.247   3.089  10.566  1.00  0.00     0.103 C 
BRANCH  40  41
HETATM   41  C5  UNL     1       5.786   3.307  10.458  1.00  0.00     0.217 C 
HETATM   42  N1  UNL     1       4.927   3.029  11.527  1.00  0.00    -0.361 N 
ATOM     43  H1  UNL     1       5.288   2.680  12.415  1.00  0.00     0.162 HD
HETATM   44  O1  UNL     1       5.286   3.757   9.384  1.00  0.00    -0.274 OA
BRANCH  42  45
HETATM   45  C4  UNL     1       3.488   3.257  11.329  1.00  0.00     0.122 C 
BRANCH  45  46
HETATM   46  C3  UNL     1       2.689   2.004  11.502  1.00  0.00     0.019 C 
BRANCH  46  47
HETATM   47  C2  UNL     1       1.194   2.278  11.353  1.00  0.00    -0.003 C 
HETATM   48  C1  UNL     1       0.465   1.015  10.933  1.00  0.00     0.005 C 
ENDBRANCH  46  47
ENDBRANCH  45  46
ENDBRANCH  42  45
ENDBRANCH  40  41
ENDBRANCH  39  40
ENDBRANCH  38  39
ENDBRANCH  37  38
ENDBRANCH  36  37
ENDBRANCH   1  36
TORSDOF 16
ENDMDL
MODEL 3
REMARK VINA RESULT: -8.748140997      1.319      2.072
REMARK  16 active torsions:
REMARK  status: ('A' for Active; 'I' for Inactive)
REMARK    1  A    between atoms: C2_2  and  C3_3 
REMARK    2  A    between atoms: C3_3  and  C4_4 
REMARK    3  A    between atoms: C4_4  and  N1_5 
REMARK       I    between atoms: N1_5  and  C5_7 
REMARK    4  A    between atoms: C5_7  and  C6_9 
REMARK    5  A    between atoms: C6_9  and  C7_10 
REMARK    6  A    between atoms: C7_10  and  C8_11 
REMARK    7  A    between atoms: C8_11  and  C9_12 
REMARK    8  A    between atoms: C9_12  and  C10_13 
REMARK    9  A    between atoms: C10_13  and  C11_14 
REMARK   10  A    between atoms: C12_18  and  C13_19 
REMARK   11  A    between atoms: C13_19  and  C14_20 
REMARK   12  A    between atoms: C14_20  and  C15_21 
REMARK   13  A    between atoms: C15_21  and  N3_22 
REMARK       I    between atoms: N3_22  and  C16_23 
REMARK   14  A    between atoms: N6_28  and  C18_29 
REMARK   15  A    between atoms: C18_29  and  O3_30 
REMARK   16  A    between atoms: C19_32  and  C20_33 
ROOT
HETATM    1  C11 UNL     1       7.242  -3.254  14.547  1.00  0.00     0.278 C 
HETATM    2  N2  UNL     1       8.206  -2.189  14.084  1.00  0.00    -0.050 N 
ATOM      3  H21 UNL     1       8.671  -2.401  13.202  1.00  0.00     0.279 HD
ATOM      4  H22 UNL     1       9.055  -2.121  14.645  1.00  0.00     0.279 HD
HETATM    5  C12 UNL     1       7.393  -0.951  14.060  1.00  0.00     0.279 C 
HETATM    6  C17 UNL     1       6.001  -1.190  13.617  1.00  0.00     0.258 C 
HETATM    7  O2  UNL     1       5.818  -1.164  12.399  1.00  0.00    -0.271 OA
HETATM    8  N6  UNL     1       4.722  -1.458  14.334  1.00  0.00    -0.275 N 
HETATM    9  C28 UNL     1       4.499  -1.619  15.752  1.00  0.00     0.192 C 
HETATM   10  C29 UNL     1       3.607  -2.731  16.212  1.00  0.00     0.056 C 
HETATM   11  N8  UNL     1       5.792  -1.936  16.380  1.00  0.00    -0.338 N 
ATOM     12  H8  UNL     1       5.955  -1.499  17.287  1.00  0.00     0.164 HD
HETATM   13  C30 UNL     1       6.860  -2.771  15.899  1.00  0.00     0.250 C 
HETATM   14  O4  UNL     1       7.581  -3.129  16.853  1.00  0.00    -0.271 OA
ENDROOT
BRANCH   8  15
HETATM   15  C18 UNL     1       3.666  -1.497  13.452  1.00  0.00     0.147 C 
HETATM   16  C19 UNL     1       2.433  -0.827  13.254  1.00  0.00     0.070 C 
BRANCH  15  17
HETATM   17  O3  UNL     1       3.817  -2.446  12.441  1.00  0.00    -0.346 OA
ATOM     18  H3  UNL     1       4.094  -2.077  11.611  1.00  0.00     0.219 HD
ENDBRANCH  15  17
BRANCH  16  19
HETATM   19  C20 UNL     1       2.440   0.235  12.167  1.00  0.00    -0.004 A 
HETATM   20  C21 UNL     1       3.614   0.759  11.642  1.00  0.00     0.101 A 
HETATM   21  N7  UNL     1       3.247   1.717  10.729  1.00  0.00    -0.364 N 
HETATM   22  C22 UNL     1       1.919   1.820  10.650  1.00  0.00     0.043 A 
ATOM     23  H7  UNL     1       3.903   2.278  10.184  1.00  0.00     0.165 HD
HETATM   24  C23 UNL     1       1.057   2.605   9.888  1.00  0.00     0.030 A 
HETATM   25  C27 UNL     1       1.417   0.884  11.560  1.00  0.00     0.002 A 
HETATM   26  C24 UNL     1      -0.292   2.441  10.044  1.00  0.00     0.002 A 
HETATM   27  C25 UNL     1      -0.784   1.504  10.947  1.00  0.00     0.001 A 
HETATM   28  C26 UNL     1       0.045   0.740  11.692  1.00  0.00     0.014 A 
ENDBRANCH  16  19
ENDBRANCH   8  15
BRANCH   5  29
HETATM   29  C13 UNL     1       8.135  -0.070  13.057  1.00  0.00     0.049 C 
BRANCH  29  30
HETATM   30  C14 UNL     1       7.806   1.390  13.345  1.00  0.00     0.062 C 
BRANCH  30  31
HETATM   31  C15 UNL     1       8.378   2.230  12.185  1.00  0.00     0.158 C 
BRANCH  31  32
HETATM   32  N3  UNL     1       7.601   2.918  11.390  1.00  0.00    -0.393 NA
HETATM   33  C16 UNL     1       6.880   3.542  10.683  1.00  0.00     0.274 C 
HETATM   34  N4  UNL     1       5.570   3.934  11.042  1.00  0.00    -0.052 NA
HETATM   35  N5  UNL     1       7.280   3.904   9.316  1.00  0.00    -0.052 NA
ENDBRANCH  31  32
ENDBRANCH  30  31
ENDBRANCH  29  30
ENDBRANCH   5  29
BRANCH   1  36
HETATM   36  C10 UNL     1       7.825  -4.601  14.433  1.00  0.00     0.043 C 
BRANCH  36  37
HETATM   37  C9  UNL     1       9.277  -4.749  14.338  1.00  0.00     0.002 C 
BRANCH  37  38
HETATM   38  C8  UNL     1      10.220  -4.760  15.451  1.00  0.00     0.001 C 
BRANCH  38  39
HETATM   39  C7  UNL     1      10.252  -6.032  16.254  1.00  0.00     0.009 C 
BRANCH  39  40
HETATM   40  C6  UNL     1       9.820  -5.752  17.705  1.00  0.00     0.103 C 
BRANCH  40  41
HETATM   41  C5  UNL     1       8.647  -6.616  17.969  1.00  0.00     0.217 C 
HETATM   42  N1  UNL     1       8.476  -7.835  17.302  1.00  0.00    -0.361 N 
ATOM     43  H1  UNL     1       9.163  -8.165  16.624  1.00  0.00     0.162 HD
HETATM   44  O1  UNL     1       7.773  -6.263  18.814  1.00  0.00    -0.274 OA
BRANCH  42  45
HETATM   45  C4  UNL     1       7.273  -8.623  17.610  1.00  0.00     0.122 C 
BRANCH  45  46
HETATM   46  C3  UNL     1       7.483 -10.086  17.382  1.00  0.00     0.019 C 
BRANCH  46  47
HETATM   47  C2  UNL     1       8.971 -10.430  17.334  1.00  0.00    -0.003 C 
HETATM   48  C1  UNL     1       9.168 -11.855  16.853  1.00  0.00     0.005 C 
ENDBRANCH  46  47
ENDBRANCH  45  46
ENDBRANCH  42  45
ENDBRANCH  40  41
ENDBRANCH  39  40
ENDBRANCH  38  39
ENDBRANCH  37  38
ENDBRANCH  36  37
ENDBRANCH   1  36
TORSDOF 16
ENDMDL
MODEL 4
REMARK VINA RESULT: -8.690931176      1.791      5.300
REMARK  16 active torsions:
REMARK  status: ('A' for Active; 'I' for Inactive)
REMARK    1  A    between atoms: C2_2  and  C3_3 
REMARK    2  A    between atoms: C3_3  and  C4_4 
REMARK    3  A    between atoms: C4_4  and  N1_5 
REMARK       I    between atoms: N1_5  and  C5_7 
REMARK    4  A    between atoms: C5_7  and  C6_9 
REMARK    5  A    between atoms: C6_9  and  C7_10 
REMARK    6  A    between atoms: C7_10  and  C8_11 
REMARK    7  A    between atoms: C8_11  and  C9_12 
REMARK    8  A    between atoms: C9_12  and  C10_13 
REMARK    9  A    between atoms: C10_13  and  C11_14 
REMARK   10  A    between atoms: C12_18  and  C13_19 
REMARK   11  A    between atoms: C13_19  and  C14_20 
REMARK   12  A    between atoms: C14_20  and  C15_21 
REMARK   13  A    between atoms: C15_21  and  N3_22 
REMARK       I    between atoms: N3_22  and  C16_23 
REMARK   14  A    between atoms: N6_28  and  C18_29 
REMARK   15  A    between atoms: C18_29  and  O3_30 
REMARK   16  A    between atoms: C19_32  and  C20_33 
ROOT
HETATM    1  C11 UNL     1       4.731  -2.098  15.121  1.00  0.00     0.278 C 
HETATM    2  N2  UNL     1       3.811  -2.197  13.929  1.00  0.00    -0.050 N 
ATOM      3  H21 UNL     1       2.958  -1.645  14.013  1.00  0.00     0.279 HD
ATOM      4  H22 UNL     1       3.350  -3.101  13.831  1.00  0.00     0.279 HD
HETATM    5  C12 UNL     1       4.666  -1.822  12.780  1.00  0.00     0.279 C 
HETATM    6  C17 UNL     1       5.634  -0.752  13.112  1.00  0.00     0.258 C 
HETATM    7  O2  UNL     1       5.214   0.401  12.992  1.00  0.00    -0.271 OA
HETATM    8  N6  UNL     1       7.053  -0.748  13.569  1.00  0.00    -0.275 N 
HETATM    9  C28 UNL     1       7.902  -1.874  13.880  1.00  0.00     0.192 C 
HETATM   10  C29 UNL     1       8.752  -1.806  15.112  1.00  0.00     0.056 C 
HETATM   11  N8  UNL     1       7.037  -3.039  14.126  1.00  0.00    -0.338 N 
ATOM     12  H8  UNL     1       7.386  -3.926  13.761  1.00  0.00     0.164 HD
HETATM   13  C30 UNL     1       5.772  -3.110  14.805  1.00  0.00     0.250 C 
HETATM   14  O4  UNL     1       5.554  -4.281  15.177  1.00  0.00    -0.271 OA
ENDROOT
BRANCH   8  15
HETATM   15  C18 UNL     1       7.543   0.536  13.629  1.00  0.00     0.147 C 
HETATM   16  C19 UNL     1       8.516   1.324  12.967  1.00  0.00     0.070 C 
BRANCH  15  17
HETATM   17  O3  UNL     1       6.926   1.325  14.600  1.00  0.00    -0.346 OA
ATOM     18  H3  UNL     1       7.521   1.633  15.274  1.00  0.00     0.219 HD
ENDBRANCH  15  17
BRANCH  16  19
HETATM   19  C20 UNL     1       7.970   2.291  11.929  1.00  0.00    -0.004 A 
HETATM   20  C21 UNL     1       7.338   3.479  12.275  1.00  0.00     0.101 A 
HETATM   21  N7  UNL     1       6.935   4.068  11.101  1.00  0.00    -0.364 N 
HETATM   22  C22 UNL     1       7.279   3.325  10.048  1.00  0.00     0.043 A 
ATOM     23  H7  UNL     1       6.437   4.957  11.043  1.00  0.00     0.165 HD
HETATM   24  C23 UNL     1       7.125   3.474   8.672  1.00  0.00     0.030 A 
HETATM   25  C27 UNL     1       7.930   2.206  10.578  1.00  0.00     0.002 A 
HETATM   26  C24 UNL     1       7.626   2.506   7.845  1.00  0.00     0.002 A 
HETATM   27  C25 UNL     1       8.277   1.398   8.379  1.00  0.00     0.001 A 
HETATM   28  C26 UNL     1       8.429   1.244   9.713  1.00  0.00     0.014 A 
ENDBRANCH  16  19
ENDBRANCH   8  15
BRANCH   5  29
HETATM   29  C13 UNL     1       3.658  -1.336  11.742  1.00  0.00     0.049 C 
BRANCH  29  30
HETATM   30  C14 UNL     1       2.356  -0.977  12.449  1.00  0.00     0.062 C 
BRANCH  30  31
HETATM   31  C15 UNL     1       1.508  -0.148  11.463  1.00  0.00     0.158 C 
BRANCH  31  32
HETATM   32  N3  UNL     1       1.557   1.158  11.448  1.00  0.00    -0.393 NA
HETATM   33  C16 UNL     1       1.623   2.344  11.435  1.00  0.00     0.274 C 
HETATM   34  N4  UNL     1       2.839   3.065  11.464  1.00  0.00    -0.052 NA
HETATM   35  N5  UNL     1       0.411   3.174  11.460  1.00  0.00    -0.052 NA
ENDBRANCH  31  32
ENDBRANCH  30  31
ENDBRANCH  29  30
ENDBRANCH   5  29
BRANCH   1  36
HETATM   36  C10 UNL     1       3.995  -2.237  16.389  1.00  0.00     0.043 C 
BRANCH  36  37
HETATM   37  C9  UNL     1       2.770  -3.035  16.424  1.00  0.00     0.002 C 
BRANCH  37  38
HETATM   38  C8  UNL     1       2.448  -4.084  17.386  1.00  0.00     0.001 C 
BRANCH  38  39
HETATM   39  C7  UNL     1       3.200  -5.374  17.204  1.00  0.00     0.009 C 
BRANCH  39  40
HETATM   40  C6  UNL     1       3.904  -5.765  18.516  1.00  0.00     0.103 C 
BRANCH  40  41
HETATM   41  C5  UNL     1       5.247  -6.263  18.140  1.00  0.00     0.217 C 
HETATM   42  N1  UNL     1       6.331  -5.391  17.990  1.00  0.00    -0.361 N 
ATOM     43  H1  UNL     1       6.227  -4.389  18.149  1.00  0.00     0.162 HD
HETATM   44  O1  UNL     1       5.437  -7.500  17.949  1.00  0.00    -0.274 OA
BRANCH  42  45
HETATM   45  C4  UNL     1       7.626  -5.966  17.596  1.00  0.00     0.122 C 
BRANCH  45  46
HETATM   46  C3  UNL     1       8.510  -4.963  16.925  1.00  0.00     0.019 C 
BRANCH  46  47
HETATM   47  C2  UNL     1       9.689  -5.643  16.232  1.00  0.00    -0.003 C 
HETATM   48  C1  UNL     1       9.585  -5.475  14.728  1.00  0.00     0.005 C 
ENDBRANCH  46  47
ENDBRANCH  45  46
ENDBRANCH  42  45
ENDBRANCH  40  41
ENDBRANCH  39  40
ENDBRANCH  38  39
ENDBRANCH  37  38
ENDBRANCH  36  37
ENDBRANCH   1  36
TORSDOF 16
ENDMDL
MODEL 5
REMARK VINA RESULT: -8.638993602      2.089      8.516
REMARK  16 active torsions:
REMARK  status: ('A' for Active; 'I' for Inactive)
REMARK    1  A    between atoms: C2_2  and  C3_3 
REMARK    2  A    between atoms: C3_3  and  C4_4 
REMARK    3  A    between atoms: C4_4  and  N1_5 
REMARK       I    between atoms: N1_5  and  C5_7 
REMARK    4  A    between atoms: C5_7  and  C6_9 
REMARK    5  A    between atoms: C6_9  and  C7_10 
REMARK    6  A    between atoms: C7_10  and  C8_11 
REMARK    7  A    between atoms: C8_11  and  C9_12 
REMARK    8  A    between atoms: C9_12  and  C10_13 
REMARK    9  A    between atoms: C10_13  and  C11_14 
REMARK   10  A    between atoms: C12_18  and  C13_19 
REMARK   11  A    between atoms: C13_19  and  C14_20 
REMARK   12  A    between atoms: C14_20  and  C15_21 
REMARK   13  A    between atoms: C15_21  and  N3_22 
REMARK       I    between atoms: N3_22  and  C16_23 
REMARK   14  A    between atoms: N6_28  and  C18_29 
REMARK   15  A    between atoms: C18_29  and  O3_30 
REMARK   16  A    between atoms: C19_32  and  C20_33 
ROOT
HETATM    1  C11 UNL     1       7.308   0.041  13.763  1.00  0.00     0.278 C 
HETATM    2  N2  UNL     1       8.347  -0.864  14.379  1.00  0.00    -0.050 N 
ATOM      3  H21 UNL     1       8.688  -0.550  15.287  1.00  0.00     0.279 HD
ATOM      4  H22 UNL     1       9.251  -0.844  13.907  1.00  0.00     0.279 HD
HETATM    5  C12 UNL     1       7.700  -2.195  14.400  1.00  0.00     0.279 C 
HETATM    6  C17 UNL     1       6.251  -2.122  14.691  1.00  0.00     0.258 C 
HETATM    7  O2  UNL     1       5.948  -2.115  15.886  1.00  0.00    -0.271 OA
HETATM    8  N6  UNL     1       5.028  -2.060  13.840  1.00  0.00    -0.275 N 
HETATM    9  C28 UNL     1       4.935  -1.997  12.400  1.00  0.00     0.192 C 
HETATM   10  C29 UNL     1       3.961  -1.036  11.791  1.00  0.00     0.056 C 
HETATM   11  N8  UNL     1       6.235  -1.542  11.882  1.00  0.00    -0.338 N 
ATOM     12  H8  UNL     1       6.544  -1.995  11.022  1.00  0.00     0.164 HD
HETATM   13  C30 UNL     1       7.133  -0.551  12.411  1.00  0.00     0.250 C 
HETATM   14  O4  UNL     1       7.897  -0.146  11.512  1.00  0.00    -0.271 OA
ENDROOT
BRANCH   8  15
HETATM   15  C18 UNL     1       3.891  -2.119  14.613  1.00  0.00     0.147 C 
HETATM   16  C19 UNL     1       2.803  -3.003  14.820  1.00  0.00     0.070 C 
BRANCH  15  17
HETATM   17  O3  UNL     1       3.730  -1.020  15.456  1.00  0.00    -0.346 OA
ATOM     18  H3  UNL     1       3.225  -0.315  15.069  1.00  0.00     0.219 HD
ENDBRANCH  15  17
BRANCH  16  19
HETATM   19  C20 UNL     1       2.896  -3.864  16.069  1.00  0.00    -0.004 A 
HETATM   20  C21 UNL     1       2.773  -3.339  17.349  1.00  0.00     0.101 A 
HETATM   21  N7  UNL     1       2.958  -4.381  18.224  1.00  0.00    -0.364 N 
HETATM   22  C22 UNL     1       3.184  -5.522  17.570  1.00  0.00     0.043 A 
ATOM     23  H7  UNL     1       2.927  -4.294  19.240  1.00  0.00     0.165 HD
HETATM   24  C23 UNL     1       3.411  -6.835  17.975  1.00  0.00     0.030 A 
HETATM   25  C27 UNL     1       3.145  -5.188  16.213  1.00  0.00     0.002 A 
HETATM   26  C24 UNL     1       3.592  -7.796  17.017  1.00  0.00     0.002 A 
HETATM   27  C25 UNL     1       3.547  -7.457  15.668  1.00  0.00     0.001 A 
HETATM   28  C26 UNL     1       3.330  -6.185  15.267  1.00  0.00     0.014 A 
ENDBRANCH  16  19
ENDBRANCH   8  15
BRANCH   5  29
HETATM   29  C13 UNL     1       8.440  -2.922  15.520  1.00  0.00     0.049 C 
BRANCH  29  30
HETATM   30  C14 UNL     1       9.839  -3.284  15.034  1.00  0.00     0.062 C 
BRANCH  30  31
HETATM   31  C15 UNL     1       9.935  -4.823  15.005  1.00  0.00     0.158 C 
BRANCH  31  32
HETATM   32  N3  UNL     1       9.790  -5.538  16.090  1.00  0.00    -0.393 NA
HETATM   33  C16 UNL     1       9.653  -6.205  17.063  1.00  0.00     0.274 C 
HETATM   34  N4  UNL     1       9.257  -7.562  17.039  1.00  0.00    -0.052 NA
HETATM   35  N5  UNL     1       9.821  -5.634  18.407  1.00  0.00    -0.052 NA
ENDBRANCH  31  32
ENDBRANCH  30  31
ENDBRANCH  29  30
ENDBRANCH   5  29
BRANCH   1  36
HETATM   36  C10 UNL     1       7.701   1.458  13.851  1.00  0.00     0.043 C 
BRANCH  36  37
HETATM   37  C9  UNL     1       6.923   2.466  13.132  1.00  0.00     0.002 C 
BRANCH  37  38
HETATM   38  C8  UNL     1       7.311   3.141  11.899  1.00  0.00     0.001 C 
BRANCH  38  39
HETATM   39  C7  UNL     1       6.176   3.500  10.978  1.00  0.00     0.009 C 
BRANCH  39  40
HETATM   40  C6  UNL     1       5.184   2.328  10.880  1.00  0.00     0.103 C 
BRANCH  40  41
HETATM   41  C5  UNL     1       3.829   2.913  10.998  1.00  0.00     0.217 C 
HETATM   42  N1  UNL     1       2.693   2.212  10.578  1.00  0.00    -0.361 N 
ATOM     43  H1  UNL     1       2.768   1.272  10.189  1.00  0.00     0.162 HD
HETATM   44  O1  UNL     1       3.675   4.070  11.491  1.00  0.00    -0.274 OA
BRANCH  42  45
HETATM   45  C4  UNL     1       1.387   2.874  10.714  1.00  0.00     0.122 C 
BRANCH  45  46
HETATM   46  C3  UNL     1       0.490   2.161  11.676  1.00  0.00     0.019 C 
BRANCH  46  47
HETATM   47  C2  UNL     1       0.590   0.647  11.505  1.00  0.00    -0.003 C 
HETATM   48  C1  UNL     1       0.459  -0.045  12.848  1.00  0.00     0.005 C 
ENDBRANCH  46  47
ENDBRANCH  45  46
ENDBRANCH  42  45
ENDBRANCH  40  41
ENDBRANCH  39  40
ENDBRANCH  38  39
ENDBRANCH  37  38
ENDBRANCH  36  37
ENDBRANCH   1  36
TORSDOF 16
ENDMDL
