MODEL 1
REMARK VINA RESULT: -8.756912880      0.000      0.000
REMARK  17 active torsions:
REMARK  status: ('A' for Active; 'I' for Inactive)
REMARK    1  A    between atoms: C2_2  and  C3_3 
REMARK    2  A    between atoms: C5_7  and  N2_8 
REMARK    3  A    between atoms: C7_11  and  N3_12 
REMARK       I    between atoms: N3_12  and  C8_14 
REMARK    4  A    between atoms: C8_14  and  C9_16 
REMARK    5  A    between atoms: C9_16  and  C10_17 
REMARK    6  A    between atoms: C10_17  and  C11_18 
REMARK    7  A    between atoms: C11_18  and  C12_19 
REMARK    8  A    between atoms: C11_18  and  S1_31 
REMARK    9  A    between atoms: C12_19  and  N4_20 
REMARK       I    between atoms: N4_20  and  C13_22 
REMARK   10  A    between atoms: C13_22  and  C14_24 
REMARK   11  A    between atoms: C14_24  and  C15_25 
REMARK   12  A    between atoms: C15_25  and  N5_26 
REMARK   13  A    between atoms: N5_26  and  C18_29 
REMARK   14  A    between atoms: S1_31  and  C20_33 
REMARK   15  A    between atoms: C20_33  and  C21_34 
REMARK   16  A    between atoms: C21_34  and  C22_35 
REMARK   17  A    between atoms: C25_38  and  C26_39 
ROOT
HETATM    1  C11 UNL     1       4.720  -4.620  15.054  1.00  0.00     0.097 C 
ENDROOT
BRANCH   1   2
HETATM    2  C10 UNL     1       4.716  -5.871  15.865  1.00  0.00     0.028 C 
BRANCH   2   3
HETATM    3  C9  UNL     1       4.747  -5.625  17.343  1.00  0.00     0.104 C 
BRANCH   3   4
HETATM    4  C8  UNL     1       5.766  -6.556  17.981  1.00  0.00     0.223 C 
HETATM    5  N3  UNL     1       6.913  -5.994  18.482  1.00  0.00    -0.310 N 
ATOM      6  H3  UNL     1       6.825  -5.563  19.403  1.00  0.00     0.170 HD
HETATM    7  O1  UNL     1       5.471  -7.790  18.004  1.00  0.00    -0.273 OA
BRANCH   5   8
HETATM    8  C7  UNL     1       8.067  -5.935  17.962  1.00  0.00     0.152 A 
HETATM    9  C5  UNL     1       8.981  -6.947  18.102  1.00  0.00     0.145 A 
HETATM   10  N1  UNL     1      10.195  -6.783  17.509  1.00  0.00    -0.348 N 
HETATM   11  C4  UNL     1      10.518  -5.676  16.803  1.00  0.00     0.114 A 
ATOM     12  H1  UNL     1      10.889  -7.524  17.601  1.00  0.00     0.167 HD
HETATM   13  C3  UNL     1       9.597  -4.655  16.661  1.00  0.00     0.026 A 
HETATM   14  N8  UNL     1       8.409  -4.810  17.237  1.00  0.00    -0.342 N 
ATOM     15  H8  UNL     1       7.719  -4.065  17.140  1.00  0.00     0.167 HD
BRANCH   9  16
HETATM   16  N2  UNL     1       8.743  -8.031  18.758  1.00  0.00    -0.378 N 
HETATM   17  C6  UNL     1       8.645  -9.330  18.128  1.00  0.00     0.148 C 
ATOM     18  H2  UNL     1       8.618  -7.969  19.768  1.00  0.00     0.160 HD
ENDBRANCH   9  16
BRANCH  13  19
HETATM   19  C2  UNL     1       9.945  -3.418  15.879  1.00  0.00     0.054 C 
HETATM   20  C1  UNL     1      10.272  -3.786  14.450  1.00  0.00     0.011 C 
ENDBRANCH  13  19
ENDBRANCH   5   8
ENDBRANCH   3   4
ENDBRANCH   2   3
ENDBRANCH   1   2
BRANCH   1  21
HETATM   21  C12 UNL     1       5.522  -3.559  15.751  1.00  0.00     0.140 C 
BRANCH  21  22
HETATM   22  N4  UNL     1       6.482  -2.911  14.864  1.00  0.00    -0.360 N 
HETATM   23  C13 UNL     1       6.502  -1.496  14.759  1.00  0.00     0.219 C 
HETATM   24  O2  UNL     1       5.706  -0.804  15.418  1.00  0.00    -0.274 OA
ATOM     25  H4  UNL     1       7.137  -3.474  14.320  1.00  0.00     0.162 HD
BRANCH  23  26
HETATM   26  C14 UNL     1       7.471  -0.841  13.860  1.00  0.00     0.130 C 
BRANCH  26  27
HETATM   27  C15 UNL     1       6.891  -0.753  12.469  1.00  0.00     0.245 C 
BRANCH  27  28
HETATM   28  N5  UNL     1       7.333   0.467  11.846  1.00  0.00    -0.075 N 
HETATM   29  C16 UNL     1       7.977   1.388  12.746  1.00  0.00     0.272 C 
HETATM   30  C17 UNL     1       6.204   1.120  11.221  1.00  0.00     0.272 C 
BRANCH  28  31
HETATM   31  C18 UNL     1       8.222   0.074  10.752  1.00  0.00     0.232 C 
HETATM   32  C19 UNL     1       9.405   1.007  10.609  1.00  0.00     0.034 C 
ENDBRANCH  28  31
ENDBRANCH  27  28
ENDBRANCH  26  27
ENDBRANCH  23  26
ENDBRANCH  21  22
ENDBRANCH   1  21
BRANCH   1  33
HETATM   33  S1  UNL     1       3.096  -4.040  14.740  1.00  0.00     0.021 S 
HETATM   34  O3  UNL     1       1.976  -5.187  14.363  1.00  0.00    -0.258 OA
BRANCH  33  35
HETATM   35  C20 UNL     1       3.042  -2.645  13.682  1.00  0.00     0.114 C 
BRANCH  35  36
HETATM   36  C21 UNL     1       2.682  -1.351  14.318  1.00  0.00     0.051 C 
BRANCH  36  37
HETATM   37  C22 UNL     1       2.061  -0.366  13.413  1.00  0.00    -0.057 A 
HETATM   38  C23 UNL     1       2.815   0.568  12.765  1.00  0.00     0.008 A 
HETATM   39  C24 UNL     1       2.262   1.508  11.913  1.00  0.00     0.015 A 
HETATM   40  C25 UNL     1       0.887   1.522  11.693  1.00  0.00     0.004 A 
HETATM   41  C27 UNL     1       0.145   0.574  12.355  1.00  0.00     0.015 A 
HETATM   42  C28 UNL     1       0.716  -0.373  13.215  1.00  0.00     0.008 A 
BRANCH  40  43
HETATM   43  C26 UNL     1       0.338   2.523  10.802  1.00  0.00     0.120 C 
HETATM   44  N6  UNL     1      -0.715   2.280  10.125  1.00  0.00    -0.387 N 
ATOM     45  H62 UNL     1      -1.165   1.369  10.218  1.00  0.00     0.157 HD
ATOM     46  H61 UNL     1      -1.101   2.984   9.497  1.00  0.00     0.157 HD
HETATM   47  N7  UNL     1       0.967   3.797  10.673  1.00  0.00    -0.082 NA
ENDBRANCH  40  43
ENDBRANCH  36  37
ENDBRANCH  35  36
ENDBRANCH  33  35
ENDBRANCH   1  33
TORSDOF 17
ENDMDL
MODEL 2
REMARK VINA RESULT: -8.530994142      2.524     10.187
REMARK  17 active torsions:
REMARK  status: ('A' for Active; 'I' for Inactive)
REMARK    1  A    between atoms: C2_2  and  C3_3 
REMARK    2  A    between atoms: C5_7  and  N2_8 
REMARK    3  A    between atoms: C7_11  and  N3_12 
REMARK       I    between atoms: N3_12  and  C8_14 
REMARK    4  A    between atoms: C8_14  and  C9_16 
REMARK    5  A    between atoms: C9_16  and  C10_17 
REMARK    6  A    between atoms: C10_17  and  C11_18 
REMARK    7  A    between atoms: C11_18  and  C12_19 
REMARK    8  A    between atoms: C11_18  and  S1_31 
REMARK    9  A    between atoms: C12_19  and  N4_20 
REMARK       I    between atoms: N4_20  and  C13_22 
REMARK   10  A    between atoms: C13_22  and  C14_24 
REMARK   11  A    between atoms: C14_24  and  C15_25 
REMARK   12  A    between atoms: C15_25  and  N5_26 
REMARK   13  A    between atoms: N5_26  and  C18_29 
REMARK   14  A    between atoms: S1_31  and  C20_33 
REMARK   15  A    between atoms: C20_33  and  C21_34 
REMARK   16  A    between atoms: C21_34  and  C22_35 
REMARK   17  A    between atoms: C25_38  and  C26_39 
ROOT
HETATM    1  C11 UNL     1       3.242  -2.063  13.615  1.00  0.00     0.097 C 
ENDROOT
BRANCH   1   2
HETATM    2  C10 UNL     1       2.716  -0.687  13.848  1.00  0.00     0.028 C 
BRANCH   2   3
HETATM    3  C9  UNL     1       1.379  -0.444  13.214  1.00  0.00     0.104 C 
BRANCH   3   4
HETATM    4  C8  UNL     1       1.571  -0.205  11.725  1.00  0.00     0.223 C 
HETATM    5  N3  UNL     1       2.784   0.288  11.311  1.00  0.00    -0.310 N 
ATOM      6  H3  UNL     1       3.533  -0.401  11.233  1.00  0.00     0.170 HD
HETATM    7  O1  UNL     1       0.588  -0.486  10.973  1.00  0.00    -0.273 OA
BRANCH   5   8
HETATM    8  C7  UNL     1       3.103   1.477  11.014  1.00  0.00     0.152 A 
HETATM    9  C5  UNL     1       4.259   2.056  11.471  1.00  0.00     0.145 A 
HETATM   10  N1  UNL     1       4.506   3.341  11.100  1.00  0.00    -0.348 N 
HETATM   11  C4  UNL     1       3.665   4.048  10.311  1.00  0.00     0.114 A 
ATOM     12  H1  UNL     1       5.361   3.791  11.429  1.00  0.00     0.167 HD
HETATM   13  C3  UNL     1       2.499   3.465   9.850  1.00  0.00     0.026 A 
HETATM   14  N8  UNL     1       2.253   2.209  10.209  1.00  0.00    -0.342 N 
ATOM     15  H8  UNL     1       1.397   1.765   9.875  1.00  0.00     0.167 HD
BRANCH   9  16
HETATM   16  N2  UNL     1       5.108   1.444  12.223  1.00  0.00    -0.378 N 
HETATM   17  C6  UNL     1       6.516   1.340  11.904  1.00  0.00     0.148 C 
ATOM     18  H2  UNL     1       4.772   1.012  13.084  1.00  0.00     0.160 HD
ENDBRANCH   9  16
BRANCH  13  19
HETATM   19  C2  UNL     1       1.555   4.241   8.974  1.00  0.00     0.054 C 
HETATM   20  C1  UNL     1       1.145   3.401   7.785  1.00  0.00     0.011 C 
ENDBRANCH  13  19
ENDBRANCH   5   8
ENDBRANCH   3   4
ENDBRANCH   2   3
ENDBRANCH   1   2
BRANCH   1  21
HETATM   21  C12 UNL     1       3.030  -2.907  14.839  1.00  0.00     0.140 C 
BRANCH  21  22
HETATM   22  N4  UNL     1       3.716  -4.192  14.756  1.00  0.00    -0.360 N 
HETATM   23  C13 UNL     1       3.860  -4.991  15.920  1.00  0.00     0.219 C 
HETATM   24  O2  UNL     1       3.405  -4.603  17.011  1.00  0.00    -0.274 OA
ATOM     25  H4  UNL     1       4.092  -4.516  13.864  1.00  0.00     0.162 HD
BRANCH  23  26
HETATM   26  C14 UNL     1       4.556  -6.289  15.837  1.00  0.00     0.130 C 
BRANCH  26  27
HETATM   27  C15 UNL     1       4.348  -7.057  17.120  1.00  0.00     0.245 C 
BRANCH  27  28
HETATM   28  N5  UNL     1       3.904  -8.391  16.809  1.00  0.00    -0.075 N 
HETATM   29  C16 UNL     1       2.659  -8.758  17.432  1.00  0.00     0.272 C 
HETATM   30  C17 UNL     1       4.929  -9.336  17.194  1.00  0.00     0.272 C 
BRANCH  28  31
HETATM   31  C18 UNL     1       3.819  -8.467  15.350  1.00  0.00     0.232 C 
HETATM   32  C19 UNL     1       3.838  -9.894  14.847  1.00  0.00     0.034 C 
ENDBRANCH  28  31
ENDBRANCH  27  28
ENDBRANCH  26  27
ENDBRANCH  23  26
ENDBRANCH  21  22
ENDBRANCH   1  21
BRANCH   1  33
HETATM   33  S1  UNL     1       4.939  -2.048  13.179  1.00  0.00     0.021 S 
HETATM   34  O3  UNL     1       5.518  -3.416  12.469  1.00  0.00    -0.258 OA
BRANCH  33  35
HETATM   35  C20 UNL     1       5.983  -1.429  14.443  1.00  0.00     0.114 C 
BRANCH  35  36
HETATM   36  C21 UNL     1       7.444  -1.608  14.235  1.00  0.00     0.051 C 
BRANCH  36  37
HETATM   37  C22 UNL     1       8.067  -2.649  15.072  1.00  0.00    -0.057 A 
HETATM   38  C23 UNL     1       9.423  -2.744  15.187  1.00  0.00     0.008 A 
HETATM   39  C24 UNL     1      10.037  -3.712  15.961  1.00  0.00     0.015 A 
HETATM   40  C25 UNL     1       9.265  -4.637  16.658  1.00  0.00     0.004 A 
HETATM   41  C27 UNL     1       7.902  -4.526  16.530  1.00  0.00     0.015 A 
HETATM   42  C28 UNL     1       7.290  -3.541  15.744  1.00  0.00     0.008 A 
BRANCH  40  43
HETATM   43  C26 UNL     1       9.939  -5.642  17.454  1.00  0.00     0.120 C 
HETATM   44  N6  UNL     1      11.072  -6.103  17.092  1.00  0.00    -0.387 N 
ATOM     45  H62 UNL     1      11.496  -5.756  16.232  1.00  0.00     0.157 HD
ATOM     46  H61 UNL     1      11.546  -6.810  17.652  1.00  0.00     0.157 HD
HETATM   47  N7  UNL     1       9.345  -6.127  18.657  1.00  0.00    -0.082 NA
ENDBRANCH  40  43
ENDBRANCH  36  37
ENDBRANCH  35  36
ENDBRANCH  33  35
ENDBRANCH   1  33
TORSDOF 17
ENDMDL
MODEL 3
REMARK VINA RESULT: -8.469276669      1.946      3.588
REMARK  17 active torsions:
REMARK  status: ('A' for Active; 'I' for Inactive)
REMARK    1  A    between atoms: C2_2  and  C3_3 
REMARK    2  A    between atoms: C5_7  and  N2_8 
REMARK    3  A    between atoms: C7_11  and  N3_12 
REMARK       I    between atoms: N3_12  and  C8_14 
REMARK    4  A    between atoms: C8_14  and  C9_16 
REMARK    5  A    between atoms: C9_16  and  C10_17 
REMARK    6  A    between atoms: C10_17  and  C11_18 
REMARK    7  A    between atoms: C11_18  and  C12_19 
REMARK    8  A    between atoms: C11_18  and  S1_31 
REMARK    9  A    between atoms: C12_19  and  N4_20 
REMARK       I    between atoms: N4_20  and  C13_22 
REMARK   10  A    between atoms: C13_22  and  C14_24 
REMARK   11  A    between atoms: C14_24  and  C15_25 
REMARK   12  A    between atoms: C15_25  and  N5_26 
REMARK   13  A    between atoms: N5_26  and  C18_29 
REMARK   14  A    between atoms: S1_31  and  C20_33 
REMARK   15  A    between atoms: C20_33  and  C21_34 
REMARK   16  A    between atoms: C21_34  and  C22_35 
REMARK   17  A    between atoms: C25_38  and  C26_39 
ROOT
HETATM    1  C11 UNL     1       6.867  -1.580  14.009  1.00  0.00     0.097 C 
ENDROOT
BRANCH   1   2
HETATM    2  C10 UNL     1       7.592  -2.223  15.142  1.00  0.00     0.028 C 
BRANCH   2   3
HETATM    3  C9  UNL     1       8.599  -3.244  14.705  1.00  0.00     0.104 C 
BRANCH   3   4
HETATM    4  C8  UNL     1       8.741  -4.300  15.790  1.00  0.00     0.223 C 
HETATM    5  N3  UNL     1       7.804  -5.302  15.827  1.00  0.00    -0.310 N 
ATOM      6  H3  UNL     1       7.946  -6.060  15.159  1.00  0.00     0.170 HD
HETATM    7  O1  UNL     1       9.725  -4.173  16.580  1.00  0.00    -0.273 OA
BRANCH   5   8
HETATM    8  C7  UNL     1       6.787  -5.418  16.573  1.00  0.00     0.152 A 
HETATM    9  C5  UNL     1       6.878  -5.881  17.861  1.00  0.00     0.145 A 
HETATM   10  N1  UNL     1       5.725  -5.973  18.577  1.00  0.00    -0.348 N 
HETATM   11  C4  UNL     1       4.520  -5.630  18.069  1.00  0.00     0.114 A 
ATOM     12  H1  UNL     1       5.771  -6.316  19.537  1.00  0.00     0.167 HD
HETATM   13  C3  UNL     1       4.428  -5.163  16.771  1.00  0.00     0.026 A 
HETATM   14  N8  UNL     1       5.551  -5.069  16.066  1.00  0.00    -0.342 N 
ATOM     15  H8  UNL     1       5.497  -4.724  15.108  1.00  0.00     0.167 HD
BRANCH   9  16
HETATM   16  N2  UNL     1       7.991  -6.224  18.413  1.00  0.00    -0.378 N 
HETATM   17  C6  UNL     1       8.476  -7.587  18.432  1.00  0.00     0.148 C 
ATOM     18  H2  UNL     1       8.557  -5.500  18.856  1.00  0.00     0.160 HD
ENDBRANCH   9  16
BRANCH  13  19
HETATM   19  C2  UNL     1       3.093  -4.778  16.194  1.00  0.00     0.054 C 
HETATM   20  C1  UNL     1       2.449  -3.709  17.046  1.00  0.00     0.011 C 
ENDBRANCH  13  19
ENDBRANCH   5   8
ENDBRANCH   3   4
ENDBRANCH   2   3
ENDBRANCH   1   2
BRANCH   1  21
HETATM   21  C12 UNL     1       6.640  -0.126  14.304  1.00  0.00     0.140 C 
BRANCH  21  22
HETATM   22  N4  UNL     1       6.284   0.637  13.111  1.00  0.00    -0.360 N 
HETATM   23  C13 UNL     1       7.193   1.592  12.588  1.00  0.00     0.219 C 
HETATM   24  O2  UNL     1       8.292   1.785  13.138  1.00  0.00    -0.274 OA
ATOM     25  H4  UNL     1       5.385   0.483  12.656  1.00  0.00     0.162 HD
BRANCH  23  26
HETATM   26  C14 UNL     1       6.833   2.365  11.384  1.00  0.00     0.130 C 
BRANCH  26  27
HETATM   27  C15 UNL     1       6.594   1.421  10.230  1.00  0.00     0.245 C 
BRANCH  27  28
HETATM   28  N5  UNL     1       7.668   1.552   9.280  1.00  0.00    -0.075 N 
HETATM   29  C16 UNL     1       8.445   2.755   9.431  1.00  0.00     0.272 C 
HETATM   30  C17 UNL     1       7.128   1.497   7.940  1.00  0.00     0.272 C 
BRANCH  28  31
HETATM   31  C18 UNL     1       8.496   0.355   9.425  1.00  0.00     0.232 C 
HETATM   32  C19 UNL     1       9.797   0.639  10.145  1.00  0.00     0.034 C 
ENDBRANCH  28  31
ENDBRANCH  27  28
ENDBRANCH  26  27
ENDBRANCH  23  26
ENDBRANCH  21  22
ENDBRANCH   1  21
BRANCH   1  33
HETATM   33  S1  UNL     1       5.341  -2.374  13.675  1.00  0.00     0.021 S 
HETATM   34  O3  UNL     1       5.105  -2.869  12.123  1.00  0.00    -0.258 OA
BRANCH  33  35
HETATM   35  C20 UNL     1       3.956  -1.544  14.355  1.00  0.00     0.114 C 
BRANCH  35  36
HETATM   36  C21 UNL     1       2.632  -1.889  13.774  1.00  0.00     0.051 C 
BRANCH  36  37
HETATM   37  C22 UNL     1       1.983  -0.800  13.022  1.00  0.00    -0.057 A 
HETATM   38  C23 UNL     1       2.625  -0.172  11.995  1.00  0.00     0.008 A 
HETATM   39  C24 UNL     1       2.044   0.857  11.274  1.00  0.00     0.015 A 
HETATM   40  C25 UNL     1       0.758   1.286  11.590  1.00  0.00     0.004 A 
HETATM   41  C27 UNL     1       0.128   0.642  12.627  1.00  0.00     0.015 A 
HETATM   42  C28 UNL     1       0.725  -0.398  13.349  1.00  0.00     0.008 A 
BRANCH  40  43
HETATM   43  C26 UNL     1       0.181   2.370  10.821  1.00  0.00     0.120 C 
HETATM   44  N6  UNL     1      -0.868   2.180  10.120  1.00  0.00    -0.387 N 
ATOM     45  H62 UNL     1      -1.294   1.254  10.106  1.00  0.00     0.157 HD
ATOM     46  H61 UNL     1      -1.274   2.943   9.579  1.00  0.00     0.157 HD
HETATM   47  N7  UNL     1       0.777   3.665  10.842  1.00  0.00    -0.082 NA
ENDBRANCH  40  43
ENDBRANCH  36  37
ENDBRANCH  35  36
ENDBRANCH  33  35
ENDBRANCH   1  33
TORSDOF 17
ENDMDL
MODEL 4
REMARK VINA RESULT: -8.447448661      2.500      9.883
REMARK  17 active torsions:
REMARK  status: ('A' for Active; 'I' for Inactive)
REMARK    1  A    between atoms: C2_2  and  C3_3 
REMARK    2  A    between atoms: C5_7  and  N2_8 
REMARK    3  A    between atoms: C7_11  and  N3_12 
REMARK       I    between atoms: N3_12  and  C8_14 
REMARK    4  A    between atoms: C8_14  and  C9_16 
REMARK    5  A    between atoms: C9_16  and  C10_17 
REMARK    6  A    between atoms: C10_17  and  C11_18 
REMARK    7  A    between atoms: C11_18  and  C12_19 
REMARK    8  A    between atoms: C11_18  and  S1_31 
REMARK    9  A    between atoms: C12_19  and  N4_20 
REMARK       I    between atoms: N4_20  and  C13_22 
REMARK   10  A    between atoms: C13_22  and  C14_24 
REMARK   11  A    between atoms: C14_24  and  C15_25 
REMARK   12  A    between atoms: C15_25  and  N5_26 
REMARK   13  A    between atoms: N5_26  and  C18_29 
REMARK   14  A    between atoms: S1_31  and  C20_33 
REMARK   15  A    between atoms: C20_33  and  C21_34 
REMARK   16  A    between atoms: C21_34  and  C22_35 
REMARK   17  A    between atoms: C25_38  and  C26_39 
ROOT
HETATM    1  C11 UNL     1       3.686  -0.938  12.591  1.00  0.00     0.097 C 
ENDROOT
BRANCH   1   2
HETATM    2  C10 UNL     1       3.773   0.551  12.613  1.00  0.00     0.028 C 
BRANCH   2   3
HETATM    3  C9  UNL     1       2.922   1.214  11.572  1.00  0.00     0.104 C 
BRANCH   3   4
HETATM    4  C8  UNL     1       3.643   2.446  11.051  1.00  0.00     0.223 C 
HETATM    5  N3  UNL     1       4.386   2.311   9.905  1.00  0.00    -0.310 N 
ATOM      6  H3  UNL     1       3.855   2.331   9.033  1.00  0.00     0.170 HD
HETATM    7  O1  UNL     1       3.497   3.515  11.720  1.00  0.00    -0.273 OA
BRANCH   5   8
HETATM    8  C7  UNL     1       5.638   2.164   9.777  1.00  0.00     0.152 A 
HETATM    9  C5  UNL     1       6.235   2.037   8.549  1.00  0.00     0.145 A 
HETATM   10  N1  UNL     1       7.585   1.877   8.521  1.00  0.00    -0.348 N 
HETATM   11  C4  UNL     1       8.339   1.840   9.643  1.00  0.00     0.114 A 
ATOM     12  H1  UNL     1       8.048   1.781   7.618  1.00  0.00     0.167 HD
HETATM   13  C3  UNL     1       7.738   1.968  10.882  1.00  0.00     0.026 A 
HETATM   14  N8  UNL     1       6.419   2.126  10.915  1.00  0.00    -0.342 N 
ATOM     15  H8  UNL     1       5.962   2.223  11.823  1.00  0.00     0.167 HD
BRANCH   9  16
HETATM   16  N2  UNL     1       5.581   2.066   7.438  1.00  0.00    -0.378 N 
HETATM   17  C6  UNL     1       6.147   1.636   6.177  1.00  0.00     0.148 C 
ATOM     18  H2  UNL     1       4.619   2.406   7.449  1.00  0.00     0.160 HD
ENDBRANCH   9  16
BRANCH  13  19
HETATM   19  C2  UNL     1       8.566   1.927  12.137  1.00  0.00     0.054 C 
HETATM   20  C1  UNL     1       7.664   1.863  13.349  1.00  0.00     0.011 C 
ENDBRANCH  13  19
ENDBRANCH   5   8
ENDBRANCH   3   4
ENDBRANCH   2   3
ENDBRANCH   1   2
BRANCH   1  21
HETATM   21  C12 UNL     1       2.864  -1.421  13.750  1.00  0.00     0.140 C 
BRANCH  21  22
HETATM   22  N4  UNL     1       2.917  -2.871  13.906  1.00  0.00    -0.360 N 
HETATM   23  C13 UNL     1       3.103  -3.435  15.195  1.00  0.00     0.219 C 
HETATM   24  O2  UNL     1       3.222  -2.702  16.193  1.00  0.00    -0.274 OA
ATOM     25  H4  UNL     1       2.820  -3.477  13.092  1.00  0.00     0.162 HD
BRANCH  23  26
HETATM   26  C14 UNL     1       3.159  -4.901  15.353  1.00  0.00     0.130 C 
BRANCH  26  27
HETATM   27  C15 UNL     1       3.981  -5.247  16.571  1.00  0.00     0.245 C 
BRANCH  27  28
HETATM   28  N5  UNL     1       4.026  -6.678  16.722  1.00  0.00    -0.075 N 
HETATM   29  C16 UNL     1       3.787  -7.407  15.504  1.00  0.00     0.272 C 
HETATM   30  C17 UNL     1       3.062  -7.083  17.720  1.00  0.00     0.272 C 
BRANCH  28  31
HETATM   31  C18 UNL     1       5.340  -6.991  17.286  1.00  0.00     0.232 C 
HETATM   32  C19 UNL     1       5.662  -6.145  18.499  1.00  0.00     0.034 C 
ENDBRANCH  28  31
ENDBRANCH  27  28
ENDBRANCH  26  27
ENDBRANCH  23  26
ENDBRANCH  21  22
ENDBRANCH   1  21
BRANCH   1  33
HETATM   33  S1  UNL     1       5.271  -1.686  12.622  1.00  0.00     0.021 S 
HETATM   34  O3  UNL     1       5.351  -3.240  12.085  1.00  0.00    -0.258 OA
BRANCH  33  35
HETATM   35  C20 UNL     1       6.140  -1.426  14.121  1.00  0.00     0.114 C 
BRANCH  35  36
HETATM   36  C21 UNL     1       7.619  -1.552  14.053  1.00  0.00     0.051 C 
BRANCH  36  37
HETATM   37  C22 UNL     1       8.194  -2.585  14.934  1.00  0.00    -0.057 A 
HETATM   38  C23 UNL     1       9.545  -2.736  15.055  1.00  0.00     0.008 A 
HETATM   39  C24 UNL     1      10.115  -3.698  15.870  1.00  0.00     0.015 A 
HETATM   40  C25 UNL     1       9.301  -4.558  16.604  1.00  0.00     0.004 A 
HETATM   41  C27 UNL     1       7.944  -4.390  16.468  1.00  0.00     0.015 A 
HETATM   42  C28 UNL     1       7.378  -3.412  15.641  1.00  0.00     0.008 A 
BRANCH  40  43
HETATM   43  C26 UNL     1       9.928  -5.558  17.441  1.00  0.00     0.120 C 
HETATM   44  N6  UNL     1      11.087  -6.009  17.156  1.00  0.00    -0.387 N 
ATOM     45  H62 UNL     1      11.566  -5.657  16.327  1.00  0.00     0.157 HD
ATOM     46  H61 UNL     1      11.529  -6.714  17.745  1.00  0.00     0.157 HD
HETATM   47  N7  UNL     1       9.259  -6.050  18.601  1.00  0.00    -0.082 NA
ENDBRANCH  40  43
ENDBRANCH  36  37
ENDBRANCH  35  36
ENDBRANCH  33  35
ENDBRANCH   1  33
TORSDOF 17
ENDMDL
MODEL 5
REMARK VINA RESULT: -8.426680756      2.576      6.852
REMARK  17 active torsions:
REMARK  status: ('A' for Active; 'I' for Inactive)
REMARK    1  A    between atoms: C2_2  and  C3_3 
REMARK    2  A    between atoms: C5_7  and  N2_8 
REMARK    3  A    between atoms: C7_11  and  N3_12 
REMARK       I    between atoms: N3_12  and  C8_14 
REMARK    4  A    between atoms: C8_14  and  C9_16 
REMARK    5  A    between atoms: C9_16  and  C10_17 
REMARK    6  A    between atoms: C10_17  and  C11_18 
REMARK    7  A    between atoms: C11_18  and  C12_19 
REMARK    8  A    between atoms: C11_18  and  S1_31 
REMARK    9  A    between atoms: C12_19  and  N4_20 
REMARK       I    between atoms: N4_20  and  C13_22 
REMARK   10  A    between atoms: C13_22  and  C14_24 
REMARK   11  A    between atoms: C14_24  and  C15_25 
REMARK   12  A    between atoms: C15_25  and  N5_26 
REMARK   13  A    between atoms: N5_26  and  C18_29 
REMARK   14  A    between atoms: S1_31  and  C20_33 
REMARK   15  A    between atoms: C20_33  and  C21_34 
REMARK   16  A    between atoms: C21_34  and  C22_35 
REMARK   17  A    between atoms: C25_38  and  C26_39 
ROOT
HETATM    1  C11 UNL     1       4.276  -1.397  14.099  1.00  0.00     0.097 C 
ENDROOT
BRANCH   1   2
HETATM    2  C10 UNL     1       3.304  -2.506  14.322  1.00  0.00     0.028 C 
BRANCH   2   3
HETATM    3  C9  UNL     1       3.720  -3.455  15.406  1.00  0.00     0.104 C 
BRANCH   3   4
HETATM    4  C8  UNL     1       2.932  -4.748  15.265  1.00  0.00     0.223 C 
HETATM    5  N3  UNL     1       2.998  -5.648  16.298  1.00  0.00    -0.310 N 
ATOM      6  H3  UNL     1       2.397  -5.443  17.097  1.00  0.00     0.170 HD
HETATM    7  O1  UNL     1       2.266  -4.892  14.194  1.00  0.00    -0.273 OA
BRANCH   5   8
HETATM    8  C7  UNL     1       3.701  -6.697  16.400  1.00  0.00     0.152 A 
HETATM    9  C5  UNL     1       4.729  -6.800  17.301  1.00  0.00     0.145 A 
HETATM   10  N1  UNL     1       5.427  -7.968  17.326  1.00  0.00    -0.348 N 
HETATM   11  C4  UNL     1       5.141  -9.006  16.508  1.00  0.00     0.114 A 
ATOM     12  H1  UNL     1       6.196  -8.065  17.989  1.00  0.00     0.167 HD
HETATM   13  C3  UNL     1       4.105  -8.903  15.599  1.00  0.00     0.026 A 
HETATM   14  N8  UNL     1       3.419  -7.765  15.571  1.00  0.00    -0.342 N 
ATOM     15  H8  UNL     1       2.650  -7.676  14.906  1.00  0.00     0.167 HD
BRANCH   9  16
HETATM   16  N2  UNL     1       5.056  -5.854  18.113  1.00  0.00    -0.378 N 
HETATM   17  C6  UNL     1       6.161  -5.957  19.042  1.00  0.00     0.148 C 
ATOM     18  H2  UNL     1       4.511  -4.992  18.099  1.00  0.00     0.160 HD
ENDBRANCH   9  16
BRANCH  13  19
HETATM   19  C2  UNL     1       3.779 -10.051  14.683  1.00  0.00     0.054 C 
HETATM   20  C1  UNL     1       4.547 -11.283  15.103  1.00  0.00     0.011 C 
ENDBRANCH  13  19
ENDBRANCH   5   8
ENDBRANCH   3   4
ENDBRANCH   2   3
ENDBRANCH   1   2
BRANCH   1  21
HETATM   21  C12 UNL     1       3.547  -0.088  14.004  1.00  0.00     0.140 C 
BRANCH  21  22
HETATM   22  N4  UNL     1       4.145   0.814  13.025  1.00  0.00    -0.360 N 
HETATM   23  C13 UNL     1       3.318   1.490  12.091  1.00  0.00     0.219 C 
HETATM   24  O2  UNL     1       2.086   1.318  12.100  1.00  0.00    -0.274 OA
ATOM     25  H4  UNL     1       5.155   0.959  13.013  1.00  0.00     0.162 HD
BRANCH  23  26
HETATM   26  C14 UNL     1       3.923   2.400  11.100  1.00  0.00     0.130 C 
BRANCH  26  27
HETATM   27  C15 UNL     1       5.131   1.742  10.479  1.00  0.00     0.245 C 
BRANCH  27  28
HETATM   28  N5  UNL     1       6.241   2.659  10.512  1.00  0.00    -0.075 N 
HETATM   29  C16 UNL     1       6.020   3.822  11.332  1.00  0.00     0.272 C 
HETATM   30  C17 UNL     1       6.554   3.076   9.164  1.00  0.00     0.272 C 
BRANCH  28  31
HETATM   31  C18 UNL     1       7.398   1.889  10.971  1.00  0.00     0.232 C 
HETATM   32  C19 UNL     1       7.853   2.303  12.354  1.00  0.00     0.034 C 
ENDBRANCH  28  31
ENDBRANCH  27  28
ENDBRANCH  26  27
ENDBRANCH  23  26
ENDBRANCH  21  22
ENDBRANCH   1  21
BRANCH   1  33
HETATM   33  S1  UNL     1       5.242  -1.655  12.660  1.00  0.00     0.021 S 
HETATM   34  O3  UNL     1       5.009  -3.084  11.876  1.00  0.00    -0.258 OA
BRANCH  33  35
HETATM   35  C20 UNL     1       6.933  -1.248  12.868  1.00  0.00     0.114 C 
BRANCH  35  36
HETATM   36  C21 UNL     1       7.384  -1.006  14.264  1.00  0.00     0.051 C 
BRANCH  36  37
HETATM   37  C22 UNL     1       7.915  -2.194  14.959  1.00  0.00    -0.057 A 
HETATM   38  C23 UNL     1       7.122  -2.944  15.777  1.00  0.00     0.008 A 
HETATM   39  C24 UNL     1       7.592  -4.061  16.446  1.00  0.00     0.015 A 
HETATM   40  C25 UNL     1       8.919  -4.454  16.296  1.00  0.00     0.004 A 
HETATM   41  C27 UNL     1       9.701  -3.685  15.468  1.00  0.00     0.015 A 
HETATM   42  C28 UNL     1       9.215  -2.557  14.796  1.00  0.00     0.008 A 
BRANCH  40  43
HETATM   43  C26 UNL     1       9.381  -5.622  17.015  1.00  0.00     0.120 C 
HETATM   44  N6  UNL     1       9.283  -6.783  16.496  1.00  0.00    -0.387 N 
ATOM     45  H62 UNL     1       8.871  -6.878  15.568  1.00  0.00     0.157 HD
ATOM     46  H61 UNL     1       9.608  -7.606  17.002  1.00  0.00     0.157 HD
HETATM   47  N7  UNL     1       9.958  -5.489  18.313  1.00  0.00    -0.082 NA
ENDBRANCH  40  43
ENDBRANCH  36  37
ENDBRANCH  35  36
ENDBRANCH  33  35
ENDBRANCH   1  33
TORSDOF 17
ENDMDL
