MODEL 1
REMARK VINA RESULT: -9.270425874      0.000      0.000
REMARK  15 active torsions:
REMARK  status: ('A' for Active; 'I' for Inactive)
REMARK    1  A    between atoms: N2_9  and  C7_11 
REMARK    2  A    between atoms: C7_11  and  C8_12 
REMARK    3  A    between atoms: C8_12  and  C9_13 
REMARK    4  A    between atoms: C9_13  and  C10_14 
REMARK    5  A    between atoms: C10_14  and  O1_15 
REMARK    6  A    between atoms: O1_15  and  C11_16 
REMARK    7  A    between atoms: C14_19  and  C15_20 
REMARK    8  A    between atoms: C15_20  and  C16_21 
REMARK    9  A    between atoms: C16_21  and  N3_22 
REMARK   10  A    between atoms: C16_21  and  C27_42 
REMARK       I    between atoms: N3_22  and  C17_24 
REMARK   11  A    between atoms: C17_24  and  C18_26 
REMARK   12  A    between atoms: C18_26  and  C19_27 
REMARK   13  A    between atoms: C21_29  and  C22_30 
REMARK   14  A    between atoms: C22_30  and  C23_31 
REMARK   15  A    between atoms: C23_31  and  C24_32 
REMARK       I    between atoms: C24_32  and  N4_34 
ROOT
HETATM    1  C16 UNL     1      14.155  29.565  12.871  1.00  0.00     0.178 C 
ENDROOT
BRANCH   1   2
HETATM    2  C15 UNL     1      13.334  30.594  13.573  1.00  0.00     0.073 C 
BRANCH   2   3
HETATM    3  C14 UNL     1      14.136  31.390  14.538  1.00  0.00    -0.056 A 
HETATM    4  C13 UNL     1      14.440  30.837  15.756  1.00  0.00     0.010 A 
HETATM    5  C12 UNL     1      15.162  31.589  16.655  1.00  0.00     0.037 A 
HETATM    6  C11 UNL     1      15.601  32.890  16.393  1.00  0.00     0.068 A 
HETATM    7  C29 UNL     1      15.244  33.381  15.118  1.00  0.00     0.037 A 
HETATM    8  C28 UNL     1      14.538  32.678  14.205  1.00  0.00     0.010 A 
BRANCH   6   9
HETATM    9  O1  UNL     1      16.274  33.569  17.259  1.00  0.00    -0.351 OA
BRANCH   9  10
HETATM   10  C10 UNL     1      16.898  34.247  18.167  1.00  0.00     0.175 C 
BRANCH  10  11
HETATM   11  C9  UNL     1      17.848  35.351  17.721  1.00  0.00     0.028 C 
BRANCH  11  12
HETATM   12  C8  UNL     1      17.698  35.762  16.302  1.00  0.00     0.022 C 
BRANCH  12  13
HETATM   13  C7  UNL     1      18.880  35.381  15.438  1.00  0.00     0.121 C 
BRANCH  13  14
HETATM   14  N2  UNL     1      18.539  34.527  14.357  1.00  0.00    -0.376 N 
HETATM   15  C6  UNL     1      18.123  34.802  13.198  1.00  0.00     0.101 A 
HETATM   16  N1  UNL     1      17.884  33.736  12.377  1.00  0.00    -0.347 N 
HETATM   17  C30 UNL     1      17.885  36.033  12.660  1.00  0.00     0.054 A 
HETATM   18  C4  UNL     1      17.442  33.907  11.121  1.00  0.00     0.007 A 
ATOM     19  H1  UNL     1      18.045  32.792  12.726  1.00  0.00     0.167 HD
HETATM   20  C3  UNL     1      17.203  35.161  10.576  1.00  0.00     0.031 A 
HETATM   21  C5  UNL     1      17.199  32.703  10.274  1.00  0.00     0.068 C 
HETATM   22  C2  UNL     1      17.433  36.260  11.373  1.00  0.00    -0.057 A 
HETATM   23  C1  UNL     1      17.192  37.615  10.841  1.00  0.00     0.048 C 
ATOM     24  H2  UNL     1      18.649  33.531  14.547  1.00  0.00     0.161 HD
ENDBRANCH  13  14
ENDBRANCH  12  13
ENDBRANCH  11  12
ENDBRANCH  10  11
ENDBRANCH   9  10
ENDBRANCH   6   9
ENDBRANCH   2   3
ENDBRANCH   1   2
BRANCH   1  25
HETATM   25  N3  UNL     1      14.254  29.759  11.448  1.00  0.00    -0.348 N 
HETATM   26  C17 UNL     1      15.351  29.476  10.628  1.00  0.00     0.223 C 
HETATM   27  O2  UNL     1      16.404  28.993  11.077  1.00  0.00    -0.273 OA
ATOM     28  H3  UNL     1      13.432  30.146  10.985  1.00  0.00     0.163 HD
BRANCH  26  29
HETATM   29  C18 UNL     1      15.287  29.755   9.171  1.00  0.00     0.159 C 
BRANCH  29  30
HETATM   30  C19 UNL     1      14.802  28.507   8.528  1.00  0.00     0.018 A 
HETATM   31  C20 UNL     1      13.926  27.576   9.034  1.00  0.00     0.034 A 
HETATM   32  C21 UNL     1      13.748  26.557   8.116  1.00  0.00    -0.041 A 
HETATM   33  C26 UNL     1      14.543  26.904   7.037  1.00  0.00     0.095 A 
HETATM   34  N7  UNL     1      15.162  28.063   7.297  1.00  0.00    -0.368 N 
ATOM     35  H7  UNL     1      15.805  28.539   6.664  1.00  0.00     0.165 HD
BRANCH  32  36
HETATM   36  C22 UNL     1      12.939  25.314   8.179  1.00  0.00     0.049 C 
BRANCH  36  37
HETATM   37  C23 UNL     1      12.724  24.902   9.623  1.00  0.00     0.108 C 
BRANCH  37  38
HETATM   38  C24 UNL     1      11.290  24.952   9.924  1.00  0.00     0.224 C 
HETATM   39  O3  UNL     1      10.513  24.118   9.431  1.00  0.00    -0.273 OA
HETATM   40  N4  UNL     1      10.860  26.001  10.801  1.00  0.00    -0.304 N 
HETATM   41  C25 UNL     1      10.030  25.814  11.770  1.00  0.00     0.203 C 
ATOM     42  H4  UNL     1      11.229  26.940  10.651  1.00  0.00     0.171 HD
HETATM   43  N5  UNL     1       9.679  26.926  12.574  1.00  0.00    -0.066 NA
HETATM   44  N6  UNL     1       9.519  24.501  11.962  1.00  0.00    -0.066 NA
ENDBRANCH  37  38
ENDBRANCH  36  37
ENDBRANCH  32  36
ENDBRANCH  29  30
ENDBRANCH  26  29
ENDBRANCH   1  25
BRANCH   1  45
HETATM   45  C27 UNL     1      13.671  28.199  13.167  1.00  0.00     0.254 C 
HETATM   46  N8  UNL     1      13.950  27.617  14.436  1.00  0.00    -0.060 NA
HETATM   47  O4  UNL     1      13.021  27.574  12.301  1.00  0.00    -0.275 OA
ENDBRANCH   1  45
TORSDOF 15
ENDMDL
MODEL 2
REMARK VINA RESULT: -9.268824462      2.541      8.008
REMARK  15 active torsions:
REMARK  status: ('A' for Active; 'I' for Inactive)
REMARK    1  A    between atoms: N2_9  and  C7_11 
REMARK    2  A    between atoms: C7_11  and  C8_12 
REMARK    3  A    between atoms: C8_12  and  C9_13 
REMARK    4  A    between atoms: C9_13  and  C10_14 
REMARK    5  A    between atoms: C10_14  and  O1_15 
REMARK    6  A    between atoms: O1_15  and  C11_16 
REMARK    7  A    between atoms: C14_19  and  C15_20 
REMARK    8  A    between atoms: C15_20  and  C16_21 
REMARK    9  A    between atoms: C16_21  and  N3_22 
REMARK   10  A    between atoms: C16_21  and  C27_42 
REMARK       I    between atoms: N3_22  and  C17_24 
REMARK   11  A    between atoms: C17_24  and  C18_26 
REMARK   12  A    between atoms: C18_26  and  C19_27 
REMARK   13  A    between atoms: C21_29  and  C22_30 
REMARK   14  A    between atoms: C22_30  and  C23_31 
REMARK   15  A    between atoms: C23_31  and  C24_32 
REMARK       I    between atoms: C24_32  and  N4_34 
ROOT
HETATM    1  C16 UNL     1      17.484  34.579  14.205  1.00  0.00     0.178 C 
ENDROOT
BRANCH   1   2
HETATM    2  C15 UNL     1      16.996  34.098  15.529  1.00  0.00     0.073 C 
BRANCH   2   3
HETATM    3  C14 UNL     1      15.988  33.014  15.397  1.00  0.00    -0.056 A 
HETATM    4  C13 UNL     1      15.067  33.090  14.383  1.00  0.00     0.010 A 
HETATM    5  C12 UNL     1      14.121  32.096  14.279  1.00  0.00     0.037 A 
HETATM    6  C11 UNL     1      14.048  31.010  15.157  1.00  0.00     0.068 A 
HETATM    7  C29 UNL     1      15.031  31.010  16.170  1.00  0.00     0.037 A 
HETATM    8  C28 UNL     1      15.978  31.964  16.308  1.00  0.00     0.010 A 
BRANCH   6   9
HETATM    9  O1  UNL     1      13.146  30.095  15.035  1.00  0.00    -0.351 OA
BRANCH   9  10
HETATM   10  C10 UNL     1      12.209  29.206  14.958  1.00  0.00     0.175 C 
BRANCH  10  11
HETATM   11  C9  UNL     1      12.601  27.736  15.010  1.00  0.00     0.028 C 
BRANCH  11  12
HETATM   12  C8  UNL     1      11.888  26.869  14.039  1.00  0.00     0.022 C 
BRANCH  12  13
HETATM   13  C7  UNL     1      10.496  27.359  13.705  1.00  0.00     0.121 C 
BRANCH  13  14
HETATM   14  N2  UNL     1       9.950  26.762  12.539  1.00  0.00    -0.376 N 
HETATM   15  C6  UNL     1       8.834  26.937  11.977  1.00  0.00     0.101 A 
HETATM   16  N1  UNL     1       8.605  26.198  10.851  1.00  0.00    -0.347 N 
HETATM   17  C30 UNL     1       7.827  27.779  12.352  1.00  0.00     0.054 A 
HETATM   18  C4  UNL     1       7.456  26.304  10.167  1.00  0.00     0.007 A 
ATOM     19  H1  UNL     1       9.324  25.553  10.523  1.00  0.00     0.167 HD
HETATM   20  C3  UNL     1       6.434  27.162  10.549  1.00  0.00     0.031 A 
HETATM   21  C5  UNL     1       7.266  25.469   8.945  1.00  0.00     0.068 C 
HETATM   22  C2  UNL     1       6.627  27.924  11.680  1.00  0.00    -0.057 A 
HETATM   23  C1  UNL     1       5.570  28.850  12.129  1.00  0.00     0.048 C 
ATOM     24  H2  UNL     1      10.556  26.080  12.083  1.00  0.00     0.161 HD
ENDBRANCH  13  14
ENDBRANCH  12  13
ENDBRANCH  11  12
ENDBRANCH  10  11
ENDBRANCH   9  10
ENDBRANCH   6   9
ENDBRANCH   2   3
ENDBRANCH   1   2
BRANCH   1  25
HETATM   25  N3  UNL     1      17.809  33.527  13.277  1.00  0.00    -0.348 N 
HETATM   26  C17 UNL     1      17.472  33.456  11.922  1.00  0.00     0.223 C 
HETATM   27  O2  UNL     1      16.828  34.355  11.355  1.00  0.00    -0.273 OA
ATOM     28  H3  UNL     1      18.346  32.744  13.651  1.00  0.00     0.163 HD
BRANCH  26  29
HETATM   29  C18 UNL     1      17.878  32.282  11.110  1.00  0.00     0.159 C 
BRANCH  29  30
HETATM   30  C19 UNL     1      17.085  31.132  11.614  1.00  0.00     0.018 A 
HETATM   31  C20 UNL     1      15.862  30.683  11.173  1.00  0.00     0.034 A 
HETATM   32  C21 UNL     1      15.470  29.589  11.921  1.00  0.00    -0.041 A 
HETATM   33  C26 UNL     1      16.495  29.388  12.828  1.00  0.00     0.095 A 
HETATM   34  N7  UNL     1      17.446  30.311  12.634  1.00  0.00    -0.368 N 
ATOM     35  H7  UNL     1      18.310  30.385  13.170  1.00  0.00     0.165 HD
BRANCH  32  36
HETATM   36  C22 UNL     1      14.238  28.761  11.870  1.00  0.00     0.049 C 
BRANCH  36  37
HETATM   37  C23 UNL     1      13.565  28.904  10.518  1.00  0.00     0.108 C 
BRANCH  37  38
HETATM   38  C24 UNL     1      13.558  27.600   9.849  1.00  0.00     0.224 C 
HETATM   39  O3  UNL     1      14.494  27.269   9.102  1.00  0.00    -0.273 OA
HETATM   40  N4  UNL     1      12.428  26.758  10.109  1.00  0.00    -0.304 N 
HETATM   41  C25 UNL     1      12.531  25.498  10.363  1.00  0.00     0.203 C 
ATOM     42  H4  UNL     1      11.498  27.175  10.091  1.00  0.00     0.171 HD
HETATM   43  N5  UNL     1      11.344  24.765  10.607  1.00  0.00    -0.066 NA
HETATM   44  N6  UNL     1      13.835  24.928  10.376  1.00  0.00    -0.066 NA
ENDBRANCH  37  38
ENDBRANCH  36  37
ENDBRANCH  32  36
ENDBRANCH  29  30
ENDBRANCH  26  29
ENDBRANCH   1  25
BRANCH   1  45
HETATM   45  C27 UNL     1      18.634  35.496  14.358  1.00  0.00     0.254 C 
HETATM   46  N8  UNL     1      19.476  35.378  15.501  1.00  0.00    -0.060 NA
HETATM   47  O4  UNL     1      18.855  36.361  13.483  1.00  0.00    -0.275 OA
ENDBRANCH   1  45
TORSDOF 15
ENDMDL
MODEL 3
REMARK VINA RESULT: -9.235671874      2.638      9.487
REMARK  15 active torsions:
REMARK  status: ('A' for Active; 'I' for Inactive)
REMARK    1  A    between atoms: N2_9  and  C7_11 
REMARK    2  A    between atoms: C7_11  and  C8_12 
REMARK    3  A    between atoms: C8_12  and  C9_13 
REMARK    4  A    between atoms: C9_13  and  C10_14 
REMARK    5  A    between atoms: C10_14  and  O1_15 
REMARK    6  A    between atoms: O1_15  and  C11_16 
REMARK    7  A    between atoms: C14_19  and  C15_20 
REMARK    8  A    between atoms: C15_20  and  C16_21 
REMARK    9  A    between atoms: C16_21  and  N3_22 
REMARK   10  A    between atoms: C16_21  and  C27_42 
REMARK       I    between atoms: N3_22  and  C17_24 
REMARK   11  A    between atoms: C17_24  and  C18_26 
REMARK   12  A    between atoms: C18_26  and  C19_27 
REMARK   13  A    between atoms: C21_29  and  C22_30 
REMARK   14  A    between atoms: C22_30  and  C23_31 
REMARK   15  A    between atoms: C23_31  and  C24_32 
REMARK       I    between atoms: C24_32  and  N4_34 
ROOT
HETATM    1  C16 UNL     1      12.397  28.618  14.582  1.00  0.00     0.178 C 
ENDROOT
BRANCH   1   2
HETATM    2  C15 UNL     1      12.617  27.174  14.283  1.00  0.00     0.073 C 
BRANCH   2   3
HETATM    3  C14 UNL     1      12.953  26.939  12.855  1.00  0.00    -0.056 A 
HETATM    4  C13 UNL     1      13.262  28.018  12.066  1.00  0.00     0.010 A 
HETATM    5  C12 UNL     1      13.549  27.797  10.738  1.00  0.00     0.037 A 
HETATM    6  C11 UNL     1      13.541  26.529  10.149  1.00  0.00     0.068 A 
HETATM    7  C29 UNL     1      13.213  25.477  11.032  1.00  0.00     0.037 A 
HETATM    8  C28 UNL     1      12.925  25.648  12.342  1.00  0.00     0.010 A 
BRANCH   6   9
HETATM    9  O1  UNL     1      13.812  26.357   8.900  1.00  0.00    -0.351 OA
BRANCH   9  10
HETATM   10  C10 UNL     1      14.094  26.246   7.642  1.00  0.00     0.175 C 
BRANCH  10  11
HETATM   11  C9  UNL     1      14.206  27.516   6.811  1.00  0.00     0.028 C 
BRANCH  11  12
HETATM   12  C8  UNL     1      15.595  27.996   6.594  1.00  0.00     0.022 C 
BRANCH  12  13
HETATM   13  C7  UNL     1      15.906  29.285   7.321  1.00  0.00     0.121 C 
BRANCH  13  14
HETATM   14  N2  UNL     1      16.146  29.110   8.708  1.00  0.00    -0.376 N 
HETATM   15  C6  UNL     1      16.383  29.960   9.611  1.00  0.00     0.101 A 
HETATM   16  N1  UNL     1      16.571  29.463  10.870  1.00  0.00    -0.347 N 
HETATM   17  C30 UNL     1      16.471  31.316   9.486  1.00  0.00     0.054 A 
HETATM   18  C4  UNL     1      16.826  30.273  11.909  1.00  0.00     0.007 A 
ATOM     19  H1  UNL     1      16.515  28.456  11.022  1.00  0.00     0.167 HD
HETATM   20  C3  UNL     1      16.914  31.652  11.780  1.00  0.00     0.031 A 
HETATM   21  C5  UNL     1      17.022  29.669  13.260  1.00  0.00     0.068 C 
HETATM   22  C2  UNL     1      16.730  32.190  10.525  1.00  0.00    -0.057 A 
HETATM   23  C1  UNL     1      16.815  33.651  10.335  1.00  0.00     0.048 C 
ATOM     24  H2  UNL     1      16.123  28.142   9.028  1.00  0.00     0.161 HD
ENDBRANCH  13  14
ENDBRANCH  12  13
ENDBRANCH  11  12
ENDBRANCH  10  11
ENDBRANCH   9  10
ENDBRANCH   6   9
ENDBRANCH   2   3
ENDBRANCH   1   2
BRANCH   1  25
HETATM   25  N3  UNL     1      13.411  29.209  15.418  1.00  0.00    -0.348 N 
HETATM   26  C17 UNL     1      14.085  30.416  15.209  1.00  0.00     0.223 C 
HETATM   27  O2  UNL     1      13.852  31.140  14.227  1.00  0.00    -0.273 OA
ATOM     28  H3  UNL     1      13.665  28.688  16.257  1.00  0.00     0.163 HD
BRANCH  26  29
HETATM   29  C18 UNL     1      15.120  30.871  16.171  1.00  0.00     0.159 C 
BRANCH  29  30
HETATM   30  C19 UNL     1      15.523  32.233  15.738  1.00  0.00     0.018 A 
HETATM   31  C20 UNL     1      16.733  32.638  15.227  1.00  0.00     0.034 A 
HETATM   32  C21 UNL     1      16.695  33.994  14.960  1.00  0.00    -0.041 A 
HETATM   33  C26 UNL     1      15.422  34.396  15.325  1.00  0.00     0.095 A 
HETATM   34  N7  UNL     1      14.738  33.340  15.784  1.00  0.00    -0.368 N 
ATOM     35  H7  UNL     1      13.774  33.364  16.117  1.00  0.00     0.165 HD
BRANCH  32  36
HETATM   36  C22 UNL     1      17.732  34.917  14.433  1.00  0.00     0.049 C 
BRANCH  36  37
HETATM   37  C23 UNL     1      18.819  35.130  15.469  1.00  0.00     0.108 C 
BRANCH  37  38
HETATM   38  C24 UNL     1      18.318  36.038  16.506  1.00  0.00     0.224 C 
HETATM   39  O3  UNL     1      18.493  35.780  17.708  1.00  0.00    -0.273 OA
HETATM   40  N4  UNL     1      17.631  37.209  16.047  1.00  0.00    -0.304 N 
HETATM   41  C25 UNL     1      17.835  38.384  16.538  1.00  0.00     0.203 C 
ATOM     42  H4  UNL     1      16.948  37.108  15.297  1.00  0.00     0.171 HD
HETATM   43  N5  UNL     1      17.098  39.469  16.004  1.00  0.00    -0.066 NA
HETATM   44  N6  UNL     1      18.786  38.508  17.589  1.00  0.00    -0.066 NA
ENDBRANCH  37  38
ENDBRANCH  36  37
ENDBRANCH  32  36
ENDBRANCH  29  30
ENDBRANCH  26  29
ENDBRANCH   1  25
BRANCH   1  45
HETATM   45  C27 UNL     1      11.058  28.848  15.165  1.00  0.00     0.254 C 
HETATM   46  N8  UNL     1      10.824  28.518  16.531  1.00  0.00    -0.060 NA
HETATM   47  O4  UNL     1      10.150  29.331  14.455  1.00  0.00    -0.275 OA
ENDBRANCH   1  45
TORSDOF 15
ENDMDL
MODEL 4
REMARK VINA RESULT: -9.192483323      2.433      8.121
REMARK  15 active torsions:
REMARK  status: ('A' for Active; 'I' for Inactive)
REMARK    1  A    between atoms: N2_9  and  C7_11 
REMARK    2  A    between atoms: C7_11  and  C8_12 
REMARK    3  A    between atoms: C8_12  and  C9_13 
REMARK    4  A    between atoms: C9_13  and  C10_14 
REMARK    5  A    between atoms: C10_14  and  O1_15 
REMARK    6  A    between atoms: O1_15  and  C11_16 
REMARK    7  A    between atoms: C14_19  and  C15_20 
REMARK    8  A    between atoms: C15_20  and  C16_21 
REMARK    9  A    between atoms: C16_21  and  N3_22 
REMARK   10  A    between atoms: C16_21  and  C27_42 
REMARK       I    between atoms: N3_22  and  C17_24 
REMARK   11  A    between atoms: C17_24  and  C18_26 
REMARK   12  A    between atoms: C18_26  and  C19_27 
REMARK   13  A    between atoms: C21_29  and  C22_30 
REMARK   14  A    between atoms: C22_30  and  C23_31 
REMARK   15  A    between atoms: C23_31  and  C24_32 
REMARK       I    between atoms: C24_32  and  N4_34 
ROOT
HETATM    1  C16 UNL     1      17.398  34.367  14.275  1.00  0.00     0.178 C 
ENDROOT
BRANCH   1   2
HETATM    2  C15 UNL     1      17.048  33.742  15.582  1.00  0.00     0.073 C 
BRANCH   2   3
HETATM    3  C14 UNL     1      15.926  32.775  15.462  1.00  0.00    -0.056 A 
HETATM    4  C13 UNL     1      15.758  31.834  16.446  1.00  0.00     0.010 A 
HETATM    5  C12 UNL     1      14.732  30.927  16.317  1.00  0.00     0.037 A 
HETATM    6  C11 UNL     1      13.850  30.912  15.232  1.00  0.00     0.068 A 
HETATM    7  C29 UNL     1      14.094  31.912  14.267  1.00  0.00     0.037 A 
HETATM    8  C28 UNL     1      15.088  32.824  14.354  1.00  0.00     0.010 A 
BRANCH   6   9
HETATM    9  O1  UNL     1      12.899  30.044  15.140  1.00  0.00    -0.351 OA
BRANCH   9  10
HETATM   10  C10 UNL     1      11.913  29.217  15.014  1.00  0.00     0.175 C 
BRANCH  10  11
HETATM   11  C9  UNL     1      12.228  27.743  14.794  1.00  0.00     0.028 C 
BRANCH  11  12
HETATM   12  C8  UNL     1      12.737  27.413  13.439  1.00  0.00     0.022 C 
BRANCH  12  13
HETATM   13  C7  UNL     1      11.763  26.604  12.612  1.00  0.00     0.121 C 
BRANCH  13  14
HETATM   14  N2  UNL     1      10.602  27.328  12.234  1.00  0.00    -0.376 N 
HETATM   15  C6  UNL     1       9.381  27.037  12.360  1.00  0.00     0.101 A 
HETATM   16  N1  UNL     1       8.491  27.961  11.889  1.00  0.00    -0.347 N 
HETATM   17  C30 UNL     1       8.836  25.915  12.914  1.00  0.00     0.054 A 
HETATM   18  C4  UNL     1       7.166  27.762  11.972  1.00  0.00     0.007 A 
ATOM     19  H1  UNL     1       8.841  28.820  11.465  1.00  0.00     0.167 HD
HETATM   20  C3  UNL     1       6.616  26.620  12.537  1.00  0.00     0.031 A 
HETATM   21  C5  UNL     1       6.247  28.808  11.438  1.00  0.00     0.068 C 
HETATM   22  C2  UNL     1       7.481  25.665  13.024  1.00  0.00    -0.057 A 
HETATM   23  C1  UNL     1       6.945  24.433  13.633  1.00  0.00     0.048 C 
ATOM     24  H2  UNL     1      10.784  28.228  11.789  1.00  0.00     0.161 HD
ENDBRANCH  13  14
ENDBRANCH  12  13
ENDBRANCH  11  12
ENDBRANCH  10  11
ENDBRANCH   9  10
ENDBRANCH   6   9
ENDBRANCH   2   3
ENDBRANCH   1   2
BRANCH   1  25
HETATM   25  N3  UNL     1      17.812  33.428  13.264  1.00  0.00    -0.348 N 
HETATM   26  C17 UNL     1      17.455  33.424  11.912  1.00  0.00     0.223 C 
HETATM   27  O2  UNL     1      16.707  34.289  11.425  1.00  0.00    -0.273 OA
ATOM     28  H3  UNL     1      18.438  32.682  13.568  1.00  0.00     0.163 HD
BRANCH  26  29
HETATM   29  C18 UNL     1      17.965  32.364  11.006  1.00  0.00     0.159 C 
BRANCH  29  30
HETATM   30  C19 UNL     1      17.084  31.186  11.205  1.00  0.00     0.018 A 
HETATM   31  C20 UNL     1      16.105  30.706  10.367  1.00  0.00     0.034 A 
HETATM   32  C21 UNL     1      15.512  29.592  10.932  1.00  0.00    -0.041 A 
HETATM   33  C26 UNL     1      16.166  29.412  12.139  1.00  0.00     0.095 A 
HETATM   34  N7  UNL     1      17.095  30.365  12.286  1.00  0.00    -0.368 N 
ATOM     35  H7  UNL     1      17.717  30.459  13.089  1.00  0.00     0.165 HD
BRANCH  32  36
HETATM   36  C22 UNL     1      14.401  28.728  10.458  1.00  0.00     0.049 C 
BRANCH  36  37
HETATM   37  C23 UNL     1      13.665  29.402   9.314  1.00  0.00     0.108 C 
BRANCH  37  38
HETATM   38  C24 UNL     1      13.650  28.498   8.161  1.00  0.00     0.224 C 
HETATM   39  O3  UNL     1      14.120  28.859   7.070  1.00  0.00    -0.273 OA
HETATM   40  N4  UNL     1      13.069  27.205   8.374  1.00  0.00    -0.304 N 
HETATM   41  C25 UNL     1      13.604  26.112   7.946  1.00  0.00     0.203 C 
ATOM     42  H4  UNL     1      12.190  27.146   8.888  1.00  0.00     0.171 HD
HETATM   43  N5  UNL     1      12.941  24.891   8.218  1.00  0.00    -0.066 NA
HETATM   44  N6  UNL     1      14.827  26.210   7.224  1.00  0.00    -0.066 NA
ENDBRANCH  37  38
ENDBRANCH  36  37
ENDBRANCH  32  36
ENDBRANCH  29  30
ENDBRANCH  26  29
ENDBRANCH   1  25
BRANCH   1  45
HETATM   45  C27 UNL     1      18.421  35.421  14.440  1.00  0.00     0.254 C 
HETATM   46  N8  UNL     1      19.336  35.344  15.529  1.00  0.00    -0.060 NA
HETATM   47  O4  UNL     1      18.473  36.365  13.622  1.00  0.00    -0.275 OA
ENDBRANCH   1  45
TORSDOF 15
ENDMDL
MODEL 5
REMARK VINA RESULT: -9.177527165      2.358      7.738
REMARK  15 active torsions:
REMARK  status: ('A' for Active; 'I' for Inactive)
REMARK    1  A    between atoms: N2_9  and  C7_11 
REMARK    2  A    between atoms: C7_11  and  C8_12 
REMARK    3  A    between atoms: C8_12  and  C9_13 
REMARK    4  A    between atoms: C9_13  and  C10_14 
REMARK    5  A    between atoms: C10_14  and  O1_15 
REMARK    6  A    between atoms: O1_15  and  C11_16 
REMARK    7  A    between atoms: C14_19  and  C15_20 
REMARK    8  A    between atoms: C15_20  and  C16_21 
REMARK    9  A    between atoms: C16_21  and  N3_22 
REMARK   10  A    between atoms: C16_21  and  C27_42 
REMARK       I    between atoms: N3_22  and  C17_24 
REMARK   11  A    between atoms: C17_24  and  C18_26 
REMARK   12  A    between atoms: C18_26  and  C19_27 
REMARK   13  A    between atoms: C21_29  and  C22_30 
REMARK   14  A    between atoms: C22_30  and  C23_31 
REMARK   15  A    between atoms: C23_31  and  C24_32 
REMARK       I    between atoms: C24_32  and  N4_34 
ROOT
HETATM    1  C16 UNL     1      16.945  33.619  13.632  1.00  0.00     0.178 C 
ENDROOT
BRANCH   1   2
HETATM    2  C15 UNL     1      17.074  32.936  14.952  1.00  0.00     0.073 C 
BRANCH   2   3
HETATM    3  C14 UNL     1      15.904  32.070  15.254  1.00  0.00    -0.056 A 
HETATM    4  C13 UNL     1      15.178  31.557  14.210  1.00  0.00     0.010 A 
HETATM    5  C12 UNL     1      14.082  30.775  14.495  1.00  0.00     0.037 A 
HETATM    6  C11 UNL     1      13.668  30.478  15.797  1.00  0.00     0.068 A 
HETATM    7  C29 UNL     1      14.470  31.046  16.810  1.00  0.00     0.037 A 
HETATM    8  C28 UNL     1      15.555  31.817  16.575  1.00  0.00     0.010 A 
BRANCH   6   9
HETATM    9  O1  UNL     1      12.632  29.744  16.031  1.00  0.00    -0.351 OA
BRANCH   9  10
HETATM   10  C10 UNL     1      11.586  29.003  16.204  1.00  0.00     0.175 C 
BRANCH  10  11
HETATM   11  C9  UNL     1      11.032  28.243  15.007  1.00  0.00     0.028 C 
BRANCH  11  12
HETATM   12  C8  UNL     1      12.029  27.418  14.280  1.00  0.00     0.022 C 
BRANCH  12  13
HETATM   13  C7  UNL     1      11.647  27.140  12.843  1.00  0.00     0.121 C 
BRANCH  13  14
HETATM   14  N2  UNL     1      10.425  27.746  12.454  1.00  0.00    -0.376 N 
HETATM   15  C6  UNL     1       9.246  27.298  12.474  1.00  0.00     0.101 A 
HETATM   16  N1  UNL     1       8.272  28.145  12.025  1.00  0.00    -0.347 N 
HETATM   17  C30 UNL     1       8.821  26.070  12.893  1.00  0.00     0.054 A 
HETATM   18  C4  UNL     1       6.982  27.777  12.004  1.00  0.00     0.007 A 
ATOM     19  H1  UNL     1       8.532  29.076  11.700  1.00  0.00     0.167 HD
HETATM   20  C3  UNL     1       6.552  26.529  12.432  1.00  0.00     0.031 A 
HETATM   21  C5  UNL     1       5.966  28.748  11.502  1.00  0.00     0.068 C 
HETATM   22  C2  UNL     1       7.505  25.646  12.892  1.00  0.00    -0.057 A 
HETATM   23  C1  UNL     1       7.100  24.306  13.357  1.00  0.00     0.048 C 
ATOM     24  H2  UNL     1      10.514  28.699  12.100  1.00  0.00     0.161 HD
ENDBRANCH  13  14
ENDBRANCH  12  13
ENDBRANCH  11  12
ENDBRANCH  10  11
ENDBRANCH   9  10
ENDBRANCH   6   9
ENDBRANCH   2   3
ENDBRANCH   1   2
BRANCH   1  25
HETATM   25  N3  UNL     1      17.468  32.864  12.523  1.00  0.00    -0.348 N 
HETATM   26  C17 UNL     1      16.841  32.610  11.299  1.00  0.00     0.223 C 
HETATM   27  O2  UNL     1      15.708  33.047  11.035  1.00  0.00    -0.273 OA
ATOM     28  H3  UNL     1      18.401  32.469  12.644  1.00  0.00     0.163 HD
BRANCH  26  29
HETATM   29  C18 UNL     1      17.524  31.793  10.265  1.00  0.00     0.159 C 
BRANCH  29  30
HETATM   30  C19 UNL     1      16.544  30.765   9.831  1.00  0.00     0.018 A 
HETATM   31  C20 UNL     1      16.417  30.180   8.594  1.00  0.00     0.034 A 
HETATM   32  C21 UNL     1      15.369  29.278   8.610  1.00  0.00    -0.041 A 
HETATM   33  C26 UNL     1      14.867  29.334   9.898  1.00  0.00     0.095 A 
HETATM   34  N7  UNL     1      15.574  30.221  10.611  1.00  0.00    -0.368 N 
ATOM     35  H7  UNL     1      15.409  30.451  11.590  1.00  0.00     0.165 HD
BRANCH  32  36
HETATM   36  C22 UNL     1      14.804  28.416   7.541  1.00  0.00     0.049 C 
BRANCH  36  37
HETATM   37  C23 UNL     1      13.405  27.964   7.916  1.00  0.00     0.108 C 
BRANCH  37  38
HETATM   38  C24 UNL     1      13.428  26.525   8.195  1.00  0.00     0.224 C 
HETATM   39  O3  UNL     1      14.429  25.844   7.914  1.00  0.00    -0.273 OA
HETATM   40  N4  UNL     1      12.250  25.975   8.797  1.00  0.00    -0.304 N 
HETATM   41  C25 UNL     1      12.283  25.143   9.782  1.00  0.00     0.203 C 
ATOM     42  H4  UNL     1      11.341  26.254   8.429  1.00  0.00     0.171 HD
HETATM   43  N5  UNL     1      11.054  24.667  10.298  1.00  0.00    -0.066 NA
HETATM   44  N6  UNL     1      13.559  24.756  10.281  1.00  0.00    -0.066 NA
ENDBRANCH  37  38
ENDBRANCH  36  37
ENDBRANCH  32  36
ENDBRANCH  29  30
ENDBRANCH  26  29
ENDBRANCH   1  25
BRANCH   1  45
HETATM   45  C27 UNL     1      17.554  34.966  13.663  1.00  0.00     0.254 C 
HETATM   46  N8  UNL     1      17.561  35.758  12.480  1.00  0.00    -0.060 NA
HETATM   47  O4  UNL     1      18.052  35.394  14.727  1.00  0.00    -0.275 OA
ENDBRANCH   1  45
TORSDOF 15
ENDMDL
