MODEL 1
REMARK VINA RESULT: -6.396527122      0.000      0.000
REMARK  18 active torsions:
REMARK  status: ('A' for Active; 'I' for Inactive)
REMARK    1  A    between atoms: C2_2  and  C3_3 
REMARK    2  A    between atoms: C3_3  and  C4_4 
REMARK    3  A    between atoms: C3_3  and  C6_6 
REMARK    4  A    between atoms: C7_8  and  C8_9 
REMARK    5  A    between atoms: C8_9  and  C9_10 
REMARK    6  A    between atoms: C9_10  and  C10_11 
REMARK       I    between atoms: C10_11  and  N1_13 
REMARK    7  A    between atoms: N1_13  and  C11_15 
REMARK    8  A    between atoms: C11_15  and  C12_16 
REMARK    9  A    between atoms: C12_16  and  C13_17 
REMARK   10  A    between atoms: C13_17  and  C14_18 
REMARK   11  A    between atoms: C14_18  and  C15_19 
REMARK   12  A    between atoms: C15_19  and  C16_20 
REMARK   13  A    between atoms: C16_20  and  C17_21 
REMARK   14  A    between atoms: C17_21  and  N2_22 
REMARK   15  A    between atoms: C26_31  and  C27_32 
REMARK   16  A    between atoms: C30_35  and  O3_36 
REMARK   17  A    between atoms: C35_42  and  N3_43 
REMARK   18  A    between atoms: C38_47  and  O4_48 
ROOT
HETATM    1  C6  UNL     1     -13.112   9.728  35.044  1.00  0.00     0.154 C 
HETATM    2  O1  UNL     1     -12.928   9.790  33.688  1.00  0.00    -0.378 OA
HETATM    3  C7  UNL     1     -13.731  10.389  32.855  1.00  0.00     0.122 C 
HETATM    4  C20 UNL     1     -15.193  10.065  32.858  1.00  0.00     0.032 C 
HETATM    5  C21 UNL     1     -15.616   8.860  32.104  1.00  0.00     0.007 C 
HETATM    6  C22 UNL     1     -16.934   8.284  32.579  1.00  0.00     0.033 C 
HETATM    7  C23 UNL     1     -17.938   9.327  32.863  1.00  0.00    -0.087 C 
HETATM    8  C24 UNL     1     -18.309  10.207  31.685  1.00  0.00     0.043 C 
HETATM    9  C25 UNL     1     -18.543   9.580  33.988  1.00  0.00    -0.017 C 
HETATM   10  C26 UNL     1     -18.377   8.877  35.286  1.00  0.00     0.044 C 
HETATM   11  C30 UNL     1     -18.267   9.917  36.390  1.00  0.00     0.148 C 
HETATM   12  C31 UNL     1     -17.225   9.638  37.381  1.00  0.00     0.002 C 
HETATM   13  C32 UNL     1     -16.218  10.380  37.741  1.00  0.00    -0.022 C 
HETATM   14  C33 UNL     1     -15.853  11.730  37.227  1.00  0.00     0.026 C 
HETATM   15  C34 UNL     1     -16.650  12.704  38.066  1.00  0.00     0.016 C 
HETATM   16  C35 UNL     1     -14.340  11.956  37.356  1.00  0.00     0.085 C 
HETATM   17  C37 UNL     1     -13.688  12.002  35.993  1.00  0.00     0.059 C 
HETATM   18  C38 UNL     1     -12.633  10.909  35.805  1.00  0.00     0.149 C 
ENDROOT
BRANCH   3  19
HETATM   19  C8  UNL     1     -13.266  10.314  31.433  1.00  0.00     0.041 C 
BRANCH  19  20
HETATM   20  C9  UNL     1     -13.097  11.589  30.698  1.00  0.00     0.105 C 
BRANCH  20  21
HETATM   21  C10 UNL     1     -13.401  12.851  31.373  1.00  0.00     0.217 C 
HETATM   22  O2  UNL     1     -14.540  13.349  31.386  1.00  0.00    -0.274 OA
HETATM   23  N1  UNL     1     -12.378  13.590  32.068  1.00  0.00    -0.361 N 
ATOM     24  H1  UNL     1     -11.426  13.226  32.089  1.00  0.00     0.162 HD
BRANCH  23  25
HETATM   25  C11 UNL     1     -12.672  14.826  32.731  1.00  0.00     0.122 C 
BRANCH  25  26
HETATM   26  C12 UNL     1     -12.188  14.765  34.152  1.00  0.00     0.020 C 
BRANCH  26  27
HETATM   27  C13 UNL     1     -10.683  14.793  34.264  1.00  0.00     0.002 C 
BRANCH  27  28
HETATM   28  C14 UNL     1     -10.220  16.103  34.829  1.00  0.00     0.000 C 
BRANCH  28  29
HETATM   29  C15 UNL     1      -8.767  16.416  34.545  1.00  0.00     0.002 C 
BRANCH  29  30
HETATM   30  C16 UNL     1      -8.432  15.751  33.225  1.00  0.00     0.030 C 
BRANCH  30  31
HETATM   31  C17 UNL     1      -8.467  16.733  32.071  1.00  0.00     0.271 C 
BRANCH  31  32
HETATM   32  N2  UNL     1      -9.565  16.417  31.182  1.00  0.00     0.080 N 
HETATM   33  C18 UNL     1      -9.390  15.081  30.676  1.00  0.00     0.309 C 
HETATM   34  C19 UNL     1      -9.573  17.328  30.058  1.00  0.00     0.309 C 
ENDBRANCH  31  32
ENDBRANCH  30  31
ENDBRANCH  29  30
ENDBRANCH  28  29
ENDBRANCH  27  28
ENDBRANCH  26  27
ENDBRANCH  25  26
ENDBRANCH  23  25
ENDBRANCH  20  21
ENDBRANCH  19  20
ENDBRANCH   3  19
BRANCH   1  35
HETATM   35  C3  UNL     1     -12.271   8.505  35.449  1.00  0.00     0.016 C 
BRANCH  35  36
HETATM   36  C2  UNL     1     -11.521   8.607  36.695  1.00  0.00     0.002 C 
HETATM   37  C1  UNL     1     -11.211   7.433  37.520  1.00  0.00     0.005 C 
ENDBRANCH  35  36
BRANCH  35  38
HETATM   38  C4  UNL     1     -13.111   7.258  35.411  1.00  0.00     0.002 C 
HETATM   39  C5  UNL     1     -14.576   7.436  35.571  1.00  0.00     0.005 C 
ENDBRANCH  35  38
ENDBRANCH   1  35
BRANCH  18  40
HETATM   40  O4  UNL     1     -11.504  11.508  35.177  1.00  0.00    -0.393 OA
ATOM     41  H4  UNL     1     -10.954  11.958  35.809  1.00  0.00     0.210 HD
ENDBRANCH  18  40
BRANCH  16  42
HETATM   42  N3  UNL     1     -14.018  13.190  38.013  1.00  0.00    -0.421 N 
HETATM   43  C36 UNL     1     -13.120  13.088  39.119  1.00  0.00     0.140 C 
ATOM     44  H3  UNL     1     -14.406  14.084  37.710  1.00  0.00     0.153 HD
ENDBRANCH  16  42
BRANCH  10  45
HETATM   45  C27 UNL     1     -19.485   7.897  35.542  1.00  0.00    -0.012 C 
HETATM   46  C28 UNL     1     -19.008   6.470  35.663  1.00  0.00     0.010 C 
HETATM   47  C29 UNL     1     -20.597   7.932  34.548  1.00  0.00     0.010 C 
ENDBRANCH  10  45
BRANCH  11  48
HETATM   48  O3  UNL     1     -19.500  10.095  37.024  1.00  0.00    -0.391 OA
ATOM     49  H3  UNL     1     -19.557   9.557  37.805  1.00  0.00     0.210 HD
ENDBRANCH  11  48
TORSDOF 18
ENDMDL
MODEL 2
REMARK VINA RESULT: -6.078890998      1.169      1.561
REMARK  18 active torsions:
REMARK  status: ('A' for Active; 'I' for Inactive)
REMARK    1  A    between atoms: C2_2  and  C3_3 
REMARK    2  A    between atoms: C3_3  and  C4_4 
REMARK    3  A    between atoms: C3_3  and  C6_6 
REMARK    4  A    between atoms: C7_8  and  C8_9 
REMARK    5  A    between atoms: C8_9  and  C9_10 
REMARK    6  A    between atoms: C9_10  and  C10_11 
REMARK       I    between atoms: C10_11  and  N1_13 
REMARK    7  A    between atoms: N1_13  and  C11_15 
REMARK    8  A    between atoms: C11_15  and  C12_16 
REMARK    9  A    between atoms: C12_16  and  C13_17 
REMARK   10  A    between atoms: C13_17  and  C14_18 
REMARK   11  A    between atoms: C14_18  and  C15_19 
REMARK   12  A    between atoms: C15_19  and  C16_20 
REMARK   13  A    between atoms: C16_20  and  C17_21 
REMARK   14  A    between atoms: C17_21  and  N2_22 
REMARK   15  A    between atoms: C26_31  and  C27_32 
REMARK   16  A    between atoms: C30_35  and  O3_36 
REMARK   17  A    between atoms: C35_42  and  N3_43 
REMARK   18  A    between atoms: C38_47  and  O4_48 
ROOT
HETATM    1  C6  UNL     1     -13.145   9.657  34.953  1.00  0.00     0.154 C 
HETATM    2  O1  UNL     1     -12.967   9.719  33.596  1.00  0.00    -0.378 OA
HETATM    3  C7  UNL     1     -13.771  10.322  32.767  1.00  0.00     0.122 C 
HETATM    4  C20 UNL     1     -15.234  10.004  32.777  1.00  0.00     0.032 C 
HETATM    5  C21 UNL     1     -15.667   8.802  32.025  1.00  0.00     0.007 C 
HETATM    6  C22 UNL     1     -16.985   8.232  32.506  1.00  0.00     0.033 C 
HETATM    7  C23 UNL     1     -17.983   9.279  32.795  1.00  0.00    -0.087 C 
HETATM    8  C24 UNL     1     -18.356  10.161  31.619  1.00  0.00     0.043 C 
HETATM    9  C25 UNL     1     -18.582   9.535  33.923  1.00  0.00    -0.017 C 
HETATM   10  C26 UNL     1     -18.412   8.831  35.221  1.00  0.00     0.044 C 
HETATM   11  C30 UNL     1     -18.291   9.869  36.324  1.00  0.00     0.148 C 
HETATM   12  C31 UNL     1     -17.246   9.586  37.310  1.00  0.00     0.002 C 
HETATM   13  C32 UNL     1     -16.234  10.323  37.665  1.00  0.00    -0.022 C 
HETATM   14  C33 UNL     1     -15.865  11.672  37.150  1.00  0.00     0.026 C 
HETATM   15  C34 UNL     1     -16.654  12.649  37.993  1.00  0.00     0.016 C 
HETATM   16  C35 UNL     1     -14.351  11.891  37.272  1.00  0.00     0.085 C 
HETATM   17  C37 UNL     1     -13.706  11.934  35.905  1.00  0.00     0.059 C 
HETATM   18  C38 UNL     1     -12.656  10.836  35.712  1.00  0.00     0.149 C 
ENDROOT
BRANCH   3  19
HETATM   19  C8  UNL     1     -13.313  10.245  31.343  1.00  0.00     0.041 C 
BRANCH  19  20
HETATM   20  C9  UNL     1     -13.283  11.504  30.563  1.00  0.00     0.105 C 
BRANCH  20  21
HETATM   21  C10 UNL     1     -13.455  12.781  31.257  1.00  0.00     0.217 C 
HETATM   22  O2  UNL     1     -14.551  13.363  31.333  1.00  0.00    -0.274 OA
HETATM   23  N1  UNL     1     -12.343  13.437  31.897  1.00  0.00    -0.361 N 
ATOM     24  H1  UNL     1     -11.421  13.003  31.865  1.00  0.00     0.162 HD
BRANCH  23  25
HETATM   25  C11 UNL     1     -12.508  14.687  32.577  1.00  0.00     0.122 C 
BRANCH  25  26
HETATM   26  C12 UNL     1     -11.173  15.361  32.725  1.00  0.00     0.020 C 
BRANCH  26  27
HETATM   27  C13 UNL     1     -10.456  15.545  31.409  1.00  0.00     0.002 C 
BRANCH  27  28
HETATM   28  C14 UNL     1      -8.973  15.423  31.593  1.00  0.00     0.000 C 
BRANCH  28  29
HETATM   29  C15 UNL     1      -8.289  16.725  31.946  1.00  0.00     0.002 C 
BRANCH  29  30
HETATM   30  C16 UNL     1      -8.283  17.567  30.686  1.00  0.00     0.030 C 
BRANCH  30  31
HETATM   31  C17 UNL     1      -7.461  16.928  29.583  1.00  0.00     0.271 C 
BRANCH  31  32
HETATM   32  N2  UNL     1      -6.597  17.916  28.974  1.00  0.00     0.080 N 
HETATM   33  C18 UNL     1      -7.163  18.325  27.715  1.00  0.00     0.309 C 
HETATM   34  C19 UNL     1      -5.293  17.344  28.716  1.00  0.00     0.309 C 
ENDBRANCH  31  32
ENDBRANCH  30  31
ENDBRANCH  29  30
ENDBRANCH  28  29
ENDBRANCH  27  28
ENDBRANCH  26  27
ENDBRANCH  25  26
ENDBRANCH  23  25
ENDBRANCH  20  21
ENDBRANCH  19  20
ENDBRANCH   3  19
BRANCH   1  35
HETATM   35  C3  UNL     1     -12.307   8.430  35.354  1.00  0.00     0.016 C 
BRANCH  35  36
HETATM   36  C2  UNL     1     -11.495   8.554  36.558  1.00  0.00     0.002 C 
HETATM   37  C1  UNL     1     -11.398   7.477  37.550  1.00  0.00     0.005 C 
ENDBRANCH  35  36
BRANCH  35  38
HETATM   38  C4  UNL     1     -13.170   7.200  35.395  1.00  0.00     0.002 C 
HETATM   39  C5  UNL     1     -14.638   7.417  35.463  1.00  0.00     0.005 C 
ENDBRANCH  35  38
ENDBRANCH   1  35
BRANCH  18  40
HETATM   40  O4  UNL     1     -11.527  11.430  35.079  1.00  0.00    -0.393 OA
ATOM     41  H4  UNL     1     -10.749  10.894  35.184  1.00  0.00     0.210 HD
ENDBRANCH  18  40
BRANCH  16  42
HETATM   42  N3  UNL     1     -14.020  13.123  37.927  1.00  0.00    -0.421 N 
HETATM   43  C36 UNL     1     -13.126  13.015  39.035  1.00  0.00     0.140 C 
ATOM     44  H3  UNL     1     -14.399  14.019  37.621  1.00  0.00     0.153 HD
ENDBRANCH  16  42
BRANCH  10  45
HETATM   45  C27 UNL     1     -19.523   7.856  35.482  1.00  0.00    -0.012 C 
HETATM   46  C28 UNL     1     -19.047   6.433  35.644  1.00  0.00     0.010 C 
HETATM   47  C29 UNL     1     -20.618   7.865  34.469  1.00  0.00     0.010 C 
ENDBRANCH  10  45
BRANCH  11  48
HETATM   48  O3  UNL     1     -19.521  10.053  36.964  1.00  0.00    -0.391 OA
ATOM     49  H3  UNL     1     -19.467  10.760  37.597  1.00  0.00     0.210 HD
ENDBRANCH  11  48
TORSDOF 18
ENDMDL
MODEL 3
REMARK VINA RESULT: -5.964189860      0.885      1.857
REMARK  18 active torsions:
REMARK  status: ('A' for Active; 'I' for Inactive)
REMARK    1  A    between atoms: C2_2  and  C3_3 
REMARK    2  A    between atoms: C3_3  and  C4_4 
REMARK    3  A    between atoms: C3_3  and  C6_6 
REMARK    4  A    between atoms: C7_8  and  C8_9 
REMARK    5  A    between atoms: C8_9  and  C9_10 
REMARK    6  A    between atoms: C9_10  and  C10_11 
REMARK       I    between atoms: C10_11  and  N1_13 
REMARK    7  A    between atoms: N1_13  and  C11_15 
REMARK    8  A    between atoms: C11_15  and  C12_16 
REMARK    9  A    between atoms: C12_16  and  C13_17 
REMARK   10  A    between atoms: C13_17  and  C14_18 
REMARK   11  A    between atoms: C14_18  and  C15_19 
REMARK   12  A    between atoms: C15_19  and  C16_20 
REMARK   13  A    between atoms: C16_20  and  C17_21 
REMARK   14  A    between atoms: C17_21  and  N2_22 
REMARK   15  A    between atoms: C26_31  and  C27_32 
REMARK   16  A    between atoms: C30_35  and  O3_36 
REMARK   17  A    between atoms: C35_42  and  N3_43 
REMARK   18  A    between atoms: C38_47  and  O4_48 
ROOT
HETATM    1  C6  UNL     1     -13.097   9.703  35.075  1.00  0.00     0.154 C 
HETATM    2  O1  UNL     1     -12.890   9.739  33.721  1.00  0.00    -0.378 OA
HETATM    3  C7  UNL     1     -13.683  10.313  32.862  1.00  0.00     0.122 C 
HETATM    4  C20 UNL     1     -15.142   9.976  32.847  1.00  0.00     0.032 C 
HETATM    5  C21 UNL     1     -15.542   8.753  32.111  1.00  0.00     0.007 C 
HETATM    6  C22 UNL     1     -16.863   8.175  32.575  1.00  0.00     0.033 C 
HETATM    7  C23 UNL     1     -17.881   9.214  32.820  1.00  0.00    -0.087 C 
HETATM    8  C24 UNL     1     -18.239  10.067  31.618  1.00  0.00     0.043 C 
HETATM    9  C25 UNL     1     -18.507   9.485  33.929  1.00  0.00    -0.017 C 
HETATM   10  C26 UNL     1     -18.357   8.810  35.245  1.00  0.00     0.044 C 
HETATM   11  C30 UNL     1     -18.275   9.873  36.329  1.00  0.00     0.148 C 
HETATM   12  C31 UNL     1     -17.248   9.624  37.343  1.00  0.00     0.002 C 
HETATM   13  C32 UNL     1     -16.254  10.382  37.704  1.00  0.00    -0.022 C 
HETATM   14  C33 UNL     1     -15.892  11.725  37.169  1.00  0.00     0.026 C 
HETATM   15  C34 UNL     1     -16.711  12.709  37.974  1.00  0.00     0.016 C 
HETATM   16  C35 UNL     1     -14.383  11.967  37.319  1.00  0.00     0.085 C 
HETATM   17  C37 UNL     1     -13.708  11.991  35.967  1.00  0.00     0.059 C 
HETATM   18  C38 UNL     1     -12.641  10.903  35.819  1.00  0.00     0.149 C 
ENDROOT
BRANCH   3  19
HETATM   19  C8  UNL     1     -13.193  10.213  31.450  1.00  0.00     0.041 C 
BRANCH  19  20
HETATM   20  C9  UNL     1     -13.551  11.310  30.521  1.00  0.00     0.105 C 
BRANCH  20  21
HETATM   21  C10 UNL     1     -13.187  12.686  30.862  1.00  0.00     0.217 C 
HETATM   22  O2  UNL     1     -13.967  13.465  31.438  1.00  0.00    -0.274 OA
HETATM   23  N1  UNL     1     -11.885  13.214  30.543  1.00  0.00    -0.361 N 
ATOM     24  H1  UNL     1     -11.206  12.617  30.071  1.00  0.00     0.162 HD
BRANCH  23  25
HETATM   25  C11 UNL     1     -11.525  14.560  30.876  1.00  0.00     0.122 C 
BRANCH  25  26
HETATM   26  C12 UNL     1     -10.554  15.089  29.858  1.00  0.00     0.020 C 
BRANCH  26  27
HETATM   27  C13 UNL     1     -10.013  16.453  30.212  1.00  0.00     0.002 C 
BRANCH  27  28
HETATM   28  C14 UNL     1      -8.516  16.422  30.298  1.00  0.00     0.000 C 
BRANCH  28  29
HETATM   29  C15 UNL     1      -7.964  16.980  31.591  1.00  0.00     0.002 C 
BRANCH  29  30
HETATM   30  C16 UNL     1      -8.949  16.605  32.679  1.00  0.00     0.030 C 
BRANCH  30  31
HETATM   31  C17 UNL     1      -8.426  15.483  33.555  1.00  0.00     0.271 C 
BRANCH  31  32
HETATM   32  N2  UNL     1      -9.133  15.469  34.818  1.00  0.00     0.080 N 
HETATM   33  C18 UNL     1     -10.448  16.022  34.627  1.00  0.00     0.309 C 
HETATM   34  C19 UNL     1      -8.436  16.287  35.787  1.00  0.00     0.309 C 
ENDBRANCH  31  32
ENDBRANCH  30  31
ENDBRANCH  29  30
ENDBRANCH  28  29
ENDBRANCH  27  28
ENDBRANCH  26  27
ENDBRANCH  25  26
ENDBRANCH  23  25
ENDBRANCH  20  21
ENDBRANCH  19  20
ENDBRANCH   3  19
BRANCH   1  35
HETATM   35  C3  UNL     1     -12.252   8.496  35.520  1.00  0.00     0.016 C 
BRANCH  35  36
HETATM   36  C2  UNL     1     -11.593   8.596  36.815  1.00  0.00     0.002 C 
HETATM   37  C1  UNL     1     -10.934   7.448  37.449  1.00  0.00     0.005 C 
ENDBRANCH  35  36
BRANCH  35  38
HETATM   38  C4  UNL     1     -13.052   7.228  35.405  1.00  0.00     0.002 C 
HETATM   39  C5  UNL     1     -14.510   7.333  35.670  1.00  0.00     0.005 C 
ENDBRANCH  35  38
ENDBRANCH   1  35
BRANCH  18  40
HETATM   40  O4  UNL     1     -11.506  11.499  35.199  1.00  0.00    -0.393 OA
ATOM     41  H4  UNL     1     -10.971  11.966  35.831  1.00  0.00     0.210 HD
ENDBRANCH  18  40
BRANCH  16  42
HETATM   42  N3  UNL     1     -14.083  13.216  37.956  1.00  0.00    -0.421 N 
HETATM   43  C36 UNL     1     -13.095  13.166  38.986  1.00  0.00     0.140 C 
ATOM     44  H3  UNL     1     -14.546  14.086  37.690  1.00  0.00     0.153 HD
ENDBRANCH  16  42
BRANCH  10  45
HETATM   45  C27 UNL     1     -19.461   7.826  35.502  1.00  0.00    -0.012 C 
HETATM   46  C28 UNL     1     -18.994   6.391  35.519  1.00  0.00     0.010 C 
HETATM   47  C29 UNL     1     -20.621   7.924  34.569  1.00  0.00     0.010 C 
ENDBRANCH  10  45
BRANCH  11  48
HETATM   48  O3  UNL     1     -19.521  10.054  36.938  1.00  0.00    -0.391 OA
ATOM     49  H3  UNL     1     -19.418  10.410  37.813  1.00  0.00     0.210 HD
ENDBRANCH  11  48
TORSDOF 18
ENDMDL
MODEL 4
REMARK VINA RESULT: -5.915002690      1.526      1.990
REMARK  18 active torsions:
REMARK  status: ('A' for Active; 'I' for Inactive)
REMARK    1  A    between atoms: C2_2  and  C3_3 
REMARK    2  A    between atoms: C3_3  and  C4_4 
REMARK    3  A    between atoms: C3_3  and  C6_6 
REMARK    4  A    between atoms: C7_8  and  C8_9 
REMARK    5  A    between atoms: C8_9  and  C9_10 
REMARK    6  A    between atoms: C9_10  and  C10_11 
REMARK       I    between atoms: C10_11  and  N1_13 
REMARK    7  A    between atoms: N1_13  and  C11_15 
REMARK    8  A    between atoms: C11_15  and  C12_16 
REMARK    9  A    between atoms: C12_16  and  C13_17 
REMARK   10  A    between atoms: C13_17  and  C14_18 
REMARK   11  A    between atoms: C14_18  and  C15_19 
REMARK   12  A    between atoms: C15_19  and  C16_20 
REMARK   13  A    between atoms: C16_20  and  C17_21 
REMARK   14  A    between atoms: C17_21  and  N2_22 
REMARK   15  A    between atoms: C26_31  and  C27_32 
REMARK   16  A    between atoms: C30_35  and  O3_36 
REMARK   17  A    between atoms: C35_42  and  N3_43 
REMARK   18  A    between atoms: C38_47  and  O4_48 
ROOT
HETATM    1  C6  UNL     1     -13.958   9.107  33.628  1.00  0.00     0.154 C 
HETATM    2  O1  UNL     1     -13.974   9.662  32.376  1.00  0.00    -0.378 OA
HETATM    3  C7  UNL     1     -14.870  10.504  31.946  1.00  0.00     0.122 C 
HETATM    4  C20 UNL     1     -16.325  10.166  32.049  1.00  0.00     0.032 C 
HETATM    5  C21 UNL     1     -16.894   9.308  30.982  1.00  0.00     0.007 C 
HETATM    6  C22 UNL     1     -18.147   8.569  31.406  1.00  0.00     0.033 C 
HETATM    7  C23 UNL     1     -19.063   9.413  32.195  1.00  0.00    -0.087 C 
HETATM    8  C24 UNL     1     -19.575  10.652  31.486  1.00  0.00     0.043 C 
HETATM    9  C25 UNL     1     -19.487   9.225  33.412  1.00  0.00    -0.017 C 
HETATM   10  C26 UNL     1     -19.154   8.102  34.327  1.00  0.00     0.044 C 
HETATM   11  C30 UNL     1     -18.849   8.671  35.703  1.00  0.00     0.148 C 
HETATM   12  C31 UNL     1     -17.682   8.076  36.358  1.00  0.00     0.002 C 
HETATM   13  C32 UNL     1     -16.609   8.660  36.808  1.00  0.00    -0.022 C 
HETATM   14  C33 UNL     1     -16.280  10.113  36.771  1.00  0.00     0.026 C 
HETATM   15  C34 UNL     1     -16.913  10.696  38.015  1.00  0.00     0.016 C 
HETATM   16  C35 UNL     1     -14.758  10.312  36.746  1.00  0.00     0.085 C 
HETATM   17  C37 UNL     1     -14.313  10.866  35.412  1.00  0.00     0.059 C 
HETATM   18  C38 UNL     1     -13.333   9.940  34.685  1.00  0.00     0.149 C 
ENDROOT
BRANCH   3  19
HETATM   19  C8  UNL     1     -14.623  10.962  30.542  1.00  0.00     0.041 C 
BRANCH  19  20
HETATM   20  C9  UNL     1     -13.715  12.117  30.347  1.00  0.00     0.105 C 
BRANCH  20  21
HETATM   21  C10 UNL     1     -13.767  13.236  31.288  1.00  0.00     0.217 C 
HETATM   22  O2  UNL     1     -14.675  14.084  31.274  1.00  0.00    -0.274 OA
HETATM   23  N1  UNL     1     -12.751  13.412  32.294  1.00  0.00    -0.361 N 
ATOM     24  H1  UNL     1     -11.982  12.744  32.349  1.00  0.00     0.162 HD
BRANCH  23  25
HETATM   25  C11 UNL     1     -12.798  14.506  33.217  1.00  0.00     0.122 C 
BRANCH  25  26
HETATM   26  C12 UNL     1     -12.070  14.134  34.477  1.00  0.00     0.020 C 
BRANCH  26  27
HETATM   27  C13 UNL     1     -11.283  15.281  35.065  1.00  0.00     0.002 C 
BRANCH  27  28
HETATM   28  C14 UNL     1      -9.814  14.983  35.040  1.00  0.00     0.000 C 
BRANCH  28  29
HETATM   29  C15 UNL     1      -8.937  16.208  35.173  1.00  0.00     0.002 C 
BRANCH  29  30
HETATM   30  C16 UNL     1      -8.515  16.594  33.769  1.00  0.00     0.030 C 
BRANCH  30  31
HETATM   31  C17 UNL     1      -8.550  15.410  32.823  1.00  0.00     0.271 C 
BRANCH  31  32
HETATM   32  N2  UNL     1      -8.662  15.871  31.456  1.00  0.00     0.080 N 
HETATM   33  C18 UNL     1      -8.084  17.185  31.353  1.00  0.00     0.309 C 
HETATM   34  C19 UNL     1     -10.055  15.960  31.074  1.00  0.00     0.309 C 
ENDBRANCH  31  32
ENDBRANCH  30  31
ENDBRANCH  29  30
ENDBRANCH  28  29
ENDBRANCH  27  28
ENDBRANCH  26  27
ENDBRANCH  25  26
ENDBRANCH  23  25
ENDBRANCH  20  21
ENDBRANCH  19  20
ENDBRANCH   3  19
BRANCH   1  35
HETATM   35  C3  UNL     1     -13.106   7.840  33.432  1.00  0.00     0.016 C 
BRANCH  35  36
HETATM   36  C2  UNL     1     -13.710   6.574  33.829  1.00  0.00     0.002 C 
HETATM   37  C1  UNL     1     -15.154   6.430  34.049  1.00  0.00     0.005 C 
ENDBRANCH  35  36
BRANCH  35  38
HETATM   38  C4  UNL     1     -12.574   7.781  32.026  1.00  0.00     0.002 C 
HETATM   39  C5  UNL     1     -12.989   6.615  31.205  1.00  0.00     0.005 C 
ENDBRANCH  35  38
ENDBRANCH   1  35
BRANCH  18  40
HETATM   40  O4  UNL     1     -12.290  10.753  34.157  1.00  0.00    -0.393 OA
ATOM     41  H4  UNL     1     -12.183  11.551  34.662  1.00  0.00     0.210 HD
ENDBRANCH  18  40
BRANCH  16  42
HETATM   42  N3  UNL     1     -14.303  11.229  37.750  1.00  0.00    -0.421 N 
HETATM   43  C36 UNL     1     -13.556  12.349  37.274  1.00  0.00     0.140 C 
ATOM     44  H3  UNL     1     -14.500  11.091  38.742  1.00  0.00     0.153 HD
ENDBRANCH  16  42
BRANCH  10  45
HETATM   45  C27 UNL     1     -20.243   7.071  34.371  1.00  0.00    -0.012 C 
HETATM   46  C28 UNL     1     -19.756   5.670  34.090  1.00  0.00     0.010 C 
HETATM   47  C29 UNL     1     -21.406   7.344  33.478  1.00  0.00     0.010 C 
ENDBRANCH  10  45
BRANCH  11  48
HETATM   48  O3  UNL     1     -19.969   8.578  36.534  1.00  0.00    -0.391 OA
ATOM     49  H3  UNL     1     -20.056   9.360  37.068  1.00  0.00     0.210 HD
ENDBRANCH  11  48
TORSDOF 18
ENDMDL
MODEL 5
REMARK VINA RESULT: -5.905288045      2.776      5.573
REMARK  18 active torsions:
REMARK  status: ('A' for Active; 'I' for Inactive)
REMARK    1  A    between atoms: C2_2  and  C3_3 
REMARK    2  A    between atoms: C3_3  and  C4_4 
REMARK    3  A    between atoms: C3_3  and  C6_6 
REMARK    4  A    between atoms: C7_8  and  C8_9 
REMARK    5  A    between atoms: C8_9  and  C9_10 
REMARK    6  A    between atoms: C9_10  and  C10_11 
REMARK       I    between atoms: C10_11  and  N1_13 
REMARK    7  A    between atoms: N1_13  and  C11_15 
REMARK    8  A    between atoms: C11_15  and  C12_16 
REMARK    9  A    between atoms: C12_16  and  C13_17 
REMARK   10  A    between atoms: C13_17  and  C14_18 
REMARK   11  A    between atoms: C14_18  and  C15_19 
REMARK   12  A    between atoms: C15_19  and  C16_20 
REMARK   13  A    between atoms: C16_20  and  C17_21 
REMARK   14  A    between atoms: C17_21  and  N2_22 
REMARK   15  A    between atoms: C26_31  and  C27_32 
REMARK   16  A    between atoms: C30_35  and  O3_36 
REMARK   17  A    between atoms: C35_42  and  N3_43 
REMARK   18  A    between atoms: C38_47  and  O4_48 
ROOT
HETATM    1  C6  UNL     1     -14.130   9.785  31.873  1.00  0.00     0.154 C 
HETATM    2  O1  UNL     1     -13.588  10.676  32.762  1.00  0.00    -0.378 OA
HETATM    3  C7  UNL     1     -13.072  10.356  33.915  1.00  0.00     0.122 C 
HETATM    4  C20 UNL     1     -13.862   9.537  34.888  1.00  0.00     0.032 C 
HETATM    5  C21 UNL     1     -14.839  10.258  35.738  1.00  0.00     0.007 C 
HETATM    6  C22 UNL     1     -15.949   9.372  36.265  1.00  0.00     0.033 C 
HETATM    7  C23 UNL     1     -15.459   8.057  36.716  1.00  0.00    -0.087 C 
HETATM    8  C24 UNL     1     -14.438   8.095  37.837  1.00  0.00     0.043 C 
HETATM    9  C25 UNL     1     -15.794   6.877  36.278  1.00  0.00    -0.017 C 
HETATM   10  C26 UNL     1     -16.765   6.550  35.203  1.00  0.00     0.044 C 
HETATM   11  C30 UNL     1     -16.151   5.491  34.300  1.00  0.00     0.148 C 
HETATM   12  C31 UNL     1     -16.351   5.728  32.868  1.00  0.00     0.002 C 
HETATM   13  C32 UNL     1     -15.460   5.840  31.926  1.00  0.00    -0.022 C 
HETATM   14  C33 UNL     1     -13.979   5.757  32.059  1.00  0.00     0.026 C 
HETATM   15  C34 UNL     1     -13.651   4.284  31.958  1.00  0.00     0.016 C 
HETATM   16  C35 UNL     1     -13.300   6.579  30.954  1.00  0.00     0.085 C 
HETATM   17  C37 UNL     1     -12.610   7.791  31.536  1.00  0.00     0.059 C 
HETATM   18  C38 UNL     1     -13.158   9.108  30.980  1.00  0.00     0.149 C 
ENDROOT
BRANCH   3  19
HETATM   19  C8  UNL     1     -12.535  11.535  34.666  1.00  0.00     0.041 C 
BRANCH  19  20
HETATM   20  C9  UNL     1     -12.974  12.882  34.234  1.00  0.00     0.105 C 
BRANCH  20  21
HETATM   21  C10 UNL     1     -12.030  13.998  34.296  1.00  0.00     0.217 C 
HETATM   22  O2  UNL     1     -12.372  15.180  34.120  1.00  0.00    -0.274 OA
HETATM   23  N1  UNL     1     -10.632  13.777  34.570  1.00  0.00    -0.361 N 
ATOM     24  H1  UNL     1     -10.298  12.826  34.723  1.00  0.00     0.162 HD
BRANCH  23  25
HETATM   25  C11 UNL     1      -9.704  14.867  34.632  1.00  0.00     0.122 C 
BRANCH  25  26
HETATM   26  C12 UNL     1      -8.720  14.755  33.501  1.00  0.00     0.020 C 
BRANCH  26  27
HETATM   27  C13 UNL     1      -9.052  15.659  32.339  1.00  0.00     0.002 C 
BRANCH  27  28
HETATM   28  C14 UNL     1      -8.215  16.903  32.380  1.00  0.00     0.000 C 
BRANCH  28  29
HETATM   29  C15 UNL     1      -7.792  17.405  31.017  1.00  0.00     0.002 C 
BRANCH  29  30
HETATM   30  C16 UNL     1      -8.054  16.276  30.041  1.00  0.00     0.030 C 
BRANCH  30  31
HETATM   31  C17 UNL     1      -7.537  16.597  28.652  1.00  0.00     0.271 C 
BRANCH  31  32
HETATM   32  N2  UNL     1      -7.912  17.945  28.283  1.00  0.00     0.080 N 
HETATM   33  C18 UNL     1      -9.080  17.895  27.443  1.00  0.00     0.309 C 
HETATM   34  C19 UNL     1      -6.845  18.571  27.533  1.00  0.00     0.309 C 
ENDBRANCH  31  32
ENDBRANCH  30  31
ENDBRANCH  29  30
ENDBRANCH  28  29
ENDBRANCH  27  28
ENDBRANCH  26  27
ENDBRANCH  25  26
ENDBRANCH  23  25
ENDBRANCH  20  21
ENDBRANCH  19  20
ENDBRANCH   3  19
BRANCH   1  35
HETATM   35  C3  UNL     1     -15.052  10.672  31.017  1.00  0.00     0.016 C 
BRANCH  35  36
HETATM   36  C2  UNL     1     -16.484  10.569  31.270  1.00  0.00     0.002 C 
HETATM   37  C1  UNL     1     -17.026   9.800  32.396  1.00  0.00     0.005 C 
ENDBRANCH  35  36
BRANCH  35  38
HETATM   38  C4  UNL     1     -14.586  12.101  31.056  1.00  0.00     0.002 C 
HETATM   39  C5  UNL     1     -14.134  12.690  29.770  1.00  0.00     0.005 C 
ENDBRANCH  35  38
ENDBRANCH   1  35
BRANCH  18  40
HETATM   40  O4  UNL     1     -12.044   9.947  30.693  1.00  0.00    -0.393 OA
ATOM     41  H4  UNL     1     -11.656   9.733  29.852  1.00  0.00     0.210 HD
ENDBRANCH  18  40
BRANCH  16  42
HETATM   42  N3  UNL     1     -12.302   5.833  30.243  1.00  0.00    -0.421 N 
HETATM   43  C36 UNL     1     -11.152   6.573  29.831  1.00  0.00     0.140 C 
ATOM     44  H3  UNL     1     -12.407   4.838  30.043  1.00  0.00     0.153 HD
ENDBRANCH  16  42
BRANCH  10  45
HETATM   45  C27 UNL     1     -18.093   6.120  35.755  1.00  0.00    -0.012 C 
HETATM   46  C28 UNL     1     -19.189   7.136  35.542  1.00  0.00     0.010 C 
HETATM   47  C29 UNL     1     -18.083   5.746  37.199  1.00  0.00     0.010 C 
ENDBRANCH  10  45
BRANCH  11  48
HETATM   48  O3  UNL     1     -16.614   4.219  34.648  1.00  0.00    -0.391 OA
ATOM     49  H3  UNL     1     -17.471   4.058  34.269  1.00  0.00     0.210 HD
ENDBRANCH  11  48
TORSDOF 18
ENDMDL
