MODEL 1
REMARK VINA RESULT: -7.382441229      0.000      0.000
REMARK  19 active torsions:
REMARK  status: ('A' for Active; 'I' for Inactive)
REMARK    1  A    between atoms: C2_2  and  C3_3 
REMARK    2  A    between atoms: C3_3  and  C4_4 
REMARK    3  A    between atoms: C4_4  and  C5_5 
REMARK    4  A    between atoms: C5_5  and  C6_6 
REMARK    5  A    between atoms: C6_6  and  C7_7 
REMARK    6  A    between atoms: C7_7  and  C8_8 
REMARK    7  A    between atoms: C8_8  and  C9_9 
REMARK    8  A    between atoms: C9_9  and  C10_10 
REMARK    9  A    between atoms: C10_10  and  C11_11 
REMARK   10  A    between atoms: C11_11  and  C12_12 
REMARK   11  A    between atoms: C12_12  and  C13_13 
REMARK   12  A    between atoms: C13_13  and  C14_14 
REMARK   13  A    between atoms: C14_14  and  C15_15 
REMARK   14  A    between atoms: C15_15  and  C16_16 
REMARK       I    between atoms: C16_16  and  N1_18 
REMARK   15  A    between atoms: N1_18  and  C17_20 
REMARK   16  A    between atoms: C17_20  and  C18_21 
REMARK   17  A    between atoms: C20_23  and  O2_24 
REMARK   18  A    between atoms: C31_36  and  O3_37 
REMARK   19  A    between atoms: C36_45  and  O5_46 
ROOT
HETATM    1  C18 UNL     1     -13.841  10.498  32.539  1.00  0.00     0.002 C 
HETATM    2  C19 UNL     1     -13.633   9.338  31.638  1.00  0.00     0.020 C 
HETATM    3  C20 UNL     1     -15.314  10.665  32.842  1.00  0.00     0.128 C 
HETATM    4  C21 UNL     1     -15.837   9.413  33.427  1.00  0.00     0.033 C 
HETATM    5  C22 UNL     1     -15.018   8.742  34.452  1.00  0.00     0.014 C 
HETATM    6  C23 UNL     1     -13.725   9.387  34.841  1.00  0.00    -0.016 C 
HETATM    7  C24 UNL     1     -12.706   8.194  34.826  1.00  0.00     0.017 C 
HETATM    8  C25 UNL     1     -13.126  10.337  33.876  1.00  0.00     0.008 C 
HETATM    9  C26 UNL     1     -12.663  11.652  34.446  1.00  0.00     0.007 C 
HETATM   10  C27 UNL     1     -11.842  11.291  35.660  1.00  0.00     0.007 C 
HETATM   11  C28 UNL     1     -12.685  10.735  36.729  1.00  0.00     0.017 C 
HETATM   12  C29 UNL     1     -13.448  11.869  37.352  1.00  0.00     0.015 C 
HETATM   13  C30 UNL     1     -12.741  12.733  38.306  1.00  0.00     0.060 C 
HETATM   14  C31 UNL     1     -13.690  13.819  38.749  1.00  0.00     0.222 C 
HETATM   15  N2  UNL     1     -15.067  13.411  38.778  1.00  0.00    -0.329 N 
HETATM   16  C32 UNL     1     -16.048  14.399  39.205  1.00  0.00     0.155 C 
HETATM   17  C33 UNL     1     -15.551  12.124  38.424  1.00  0.00     0.232 C 
HETATM   18  O4  UNL     1     -16.759  11.818  38.393  1.00  0.00    -0.272 OA
HETATM   19  C34 UNL     1     -14.532  11.106  38.076  1.00  0.00     0.069 C 
HETATM   20  C35 UNL     1     -14.120  10.386  39.288  1.00  0.00     0.028 C 
HETATM   21  C36 UNL     1     -14.999  10.198  36.933  1.00  0.00     0.159 C 
HETATM   22  C37 UNL     1     -13.744   9.761  36.299  1.00  0.00     0.087 C 
HETATM   23  C38 UNL     1     -13.411   8.516  37.091  1.00  0.00     0.073 C 
HETATM   24  N3  UNL     1     -13.135   7.542  37.695  1.00  0.00    -0.196 NA
ENDROOT
BRANCH  21  25
HETATM   25  O5  UNL     1     -15.935  10.911  36.297  1.00  0.00    -0.392 OA
ATOM     26  H5  UNL     1     -16.650  10.979  36.919  1.00  0.00     0.210 HD
ENDBRANCH  21  25
BRANCH   1  27
HETATM   27  C17 UNL     1     -13.307  11.744  31.912  1.00  0.00     0.134 C 
BRANCH  27  28
HETATM   28  N1  UNL     1     -13.345  11.942  30.514  1.00  0.00    -0.360 N 
HETATM   29  C16 UNL     1     -14.123  12.737  29.647  1.00  0.00     0.217 C 
HETATM   30  O1  UNL     1     -15.047  13.506  29.956  1.00  0.00    -0.274 OA
ATOM     31  H1  UNL     1     -12.651  11.382  30.017  1.00  0.00     0.162 HD
BRANCH  29  32
HETATM   32  C15 UNL     1     -13.842  12.693  28.157  1.00  0.00     0.103 C 
BRANCH  32  33
HETATM   33  C14 UNL     1     -12.408  12.735  27.830  1.00  0.00     0.009 C 
BRANCH  33  34
HETATM   34  C13 UNL     1     -11.804  14.006  27.375  1.00  0.00     0.000 C 
BRANCH  34  35
HETATM   35  C12 UNL     1     -10.559  14.383  28.146  1.00  0.00     0.000 C 
BRANCH  35  36
HETATM   36  C11 UNL     1     -10.865  14.625  29.646  1.00  0.00     0.000 C 
BRANCH  36  37
HETATM   37  C10 UNL     1      -9.570  15.019  30.244  1.00  0.00     0.000 C 
BRANCH  37  38
HETATM   38  C9  UNL     1      -9.374  16.333  30.847  1.00  0.00     0.000 C 
BRANCH  38  39
HETATM   39  C8  UNL     1      -8.248  16.654  31.723  1.00  0.00     0.000 C 
BRANCH  39  40
HETATM   40  C7  UNL     1      -8.230  15.949  33.039  1.00  0.00     0.000 C 
BRANCH  40  41
HETATM   41  C6  UNL     1      -8.860  16.773  34.132  1.00  0.00     0.000 C 
BRANCH  41  42
HETATM   42  C5  UNL     1      -9.275  15.919  35.263  1.00  0.00     0.000 C 
BRANCH  42  43
HETATM   43  C4  UNL     1      -9.999  14.687  34.768  1.00  0.00     0.000 C 
BRANCH  43  44
HETATM   44  C3  UNL     1     -11.450  15.130  34.568  1.00  0.00    -0.000 C 
BRANCH  44  45
HETATM   45  C2  UNL     1     -11.897  15.020  33.142  1.00  0.00    -0.005 C 
HETATM   46  C1  UNL     1     -13.382  15.148  32.981  1.00  0.00     0.005 C 
ENDBRANCH  44  45
ENDBRANCH  43  44
ENDBRANCH  42  43
ENDBRANCH  41  42
ENDBRANCH  40  41
ENDBRANCH  39  40
ENDBRANCH  38  39
ENDBRANCH  37  38
ENDBRANCH  36  37
ENDBRANCH  35  36
ENDBRANCH  34  35
ENDBRANCH  33  34
ENDBRANCH  32  33
ENDBRANCH  29  32
ENDBRANCH  27  28
ENDBRANCH   1  27
BRANCH   3  47
HETATM   47  O2  UNL     1     -16.051  10.980  31.705  1.00  0.00    -0.395 OA
ATOM     48  H2  UNL     1     -16.985  10.995  31.876  1.00  0.00     0.210 HD
ENDBRANCH   3  47
BRANCH  14  49
HETATM   49  O3  UNL     1     -13.274  14.309  39.997  1.00  0.00    -0.377 OA
ATOM     50  H3  UNL     1     -13.683  13.794  40.683  1.00  0.00     0.212 HD
ENDBRANCH  14  49
TORSDOF 19
ENDMDL
MODEL 2
REMARK VINA RESULT: -7.377157583      0.542      1.761
REMARK  19 active torsions:
REMARK  status: ('A' for Active; 'I' for Inactive)
REMARK    1  A    between atoms: C2_2  and  C3_3 
REMARK    2  A    between atoms: C3_3  and  C4_4 
REMARK    3  A    between atoms: C4_4  and  C5_5 
REMARK    4  A    between atoms: C5_5  and  C6_6 
REMARK    5  A    between atoms: C6_6  and  C7_7 
REMARK    6  A    between atoms: C7_7  and  C8_8 
REMARK    7  A    between atoms: C8_8  and  C9_9 
REMARK    8  A    between atoms: C9_9  and  C10_10 
REMARK    9  A    between atoms: C10_10  and  C11_11 
REMARK   10  A    between atoms: C11_11  and  C12_12 
REMARK   11  A    between atoms: C12_12  and  C13_13 
REMARK   12  A    between atoms: C13_13  and  C14_14 
REMARK   13  A    between atoms: C14_14  and  C15_15 
REMARK   14  A    between atoms: C15_15  and  C16_16 
REMARK       I    between atoms: C16_16  and  N1_18 
REMARK   15  A    between atoms: N1_18  and  C17_20 
REMARK   16  A    between atoms: C17_20  and  C18_21 
REMARK   17  A    between atoms: C20_23  and  O2_24 
REMARK   18  A    between atoms: C31_36  and  O3_37 
REMARK   19  A    between atoms: C36_45  and  O5_46 
ROOT
HETATM    1  C18 UNL     1     -13.953  10.456  32.552  1.00  0.00     0.002 C 
HETATM    2  C19 UNL     1     -13.730   9.307  31.640  1.00  0.00     0.020 C 
HETATM    3  C20 UNL     1     -15.418  10.559  32.913  1.00  0.00     0.128 C 
HETATM    4  C21 UNL     1     -15.864   9.286  33.515  1.00  0.00     0.033 C 
HETATM    5  C22 UNL     1     -14.977   8.649  34.505  1.00  0.00     0.014 C 
HETATM    6  C23 UNL     1     -13.698   9.349  34.845  1.00  0.00    -0.016 C 
HETATM    7  C24 UNL     1     -12.631   8.200  34.787  1.00  0.00     0.017 C 
HETATM    8  C25 UNL     1     -13.179  10.324  33.860  1.00  0.00     0.008 C 
HETATM    9  C26 UNL     1     -12.750  11.657  34.414  1.00  0.00     0.007 C 
HETATM   10  C27 UNL     1     -11.868  11.331  35.594  1.00  0.00     0.007 C 
HETATM   11  C28 UNL     1     -12.644  10.738  36.694  1.00  0.00     0.017 C 
HETATM   12  C29 UNL     1     -13.429  11.838  37.350  1.00  0.00     0.015 C 
HETATM   13  C30 UNL     1     -12.723  12.730  38.277  1.00  0.00     0.060 C 
HETATM   14  C31 UNL     1     -13.699  13.775  38.760  1.00  0.00     0.222 C 
HETATM   15  N2  UNL     1     -15.055  13.308  38.842  1.00  0.00    -0.329 N 
HETATM   16  C32 UNL     1     -16.059  14.253  39.310  1.00  0.00     0.155 C 
HETATM   17  C33 UNL     1     -15.497  12.001  38.503  1.00  0.00     0.232 C 
HETATM   18  O4  UNL     1     -16.691  11.644  38.519  1.00  0.00    -0.272 OA
HETATM   19  C34 UNL     1     -14.450  11.028  38.114  1.00  0.00     0.069 C 
HETATM   20  C35 UNL     1     -13.961  10.326  39.307  1.00  0.00     0.028 C 
HETATM   21  C36 UNL     1     -14.922  10.103  36.988  1.00  0.00     0.159 C 
HETATM   22  C37 UNL     1     -13.676   9.720  36.303  1.00  0.00     0.087 C 
HETATM   23  C38 UNL     1     -13.259   8.490  37.079  1.00  0.00     0.073 C 
HETATM   24  N3  UNL     1     -12.918   7.528  37.669  1.00  0.00    -0.196 NA
ENDROOT
BRANCH  21  25
HETATM   25  O5  UNL     1     -15.912  10.776  36.390  1.00  0.00    -0.392 OA
ATOM     26  H5  UNL     1     -16.612  10.140  36.295  1.00  0.00     0.210 HD
ENDBRANCH  21  25
BRANCH   1  27
HETATM   27  C17 UNL     1     -13.497  11.724  31.908  1.00  0.00     0.134 C 
BRANCH  27  28
HETATM   28  N1  UNL     1     -13.506  11.884  30.504  1.00  0.00    -0.360 N 
HETATM   29  C16 UNL     1     -14.173  12.746  29.610  1.00  0.00     0.217 C 
HETATM   30  O1  UNL     1     -14.993  13.635  29.890  1.00  0.00    -0.274 OA
ATOM     31  H1  UNL     1     -12.888  11.225  30.029  1.00  0.00     0.162 HD
BRANCH  29  32
HETATM   32  C15 UNL     1     -13.896  12.622  28.123  1.00  0.00     0.103 C 
BRANCH  32  33
HETATM   33  C14 UNL     1     -12.462  12.601  27.795  1.00  0.00     0.009 C 
BRANCH  33  34
HETATM   34  C13 UNL     1     -11.709  13.873  27.750  1.00  0.00     0.000 C 
BRANCH  34  35
HETATM   35  C12 UNL     1     -10.815  14.078  28.952  1.00  0.00     0.000 C 
BRANCH  35  36
HETATM   36  C11 UNL     1     -11.332  15.222  29.862  1.00  0.00     0.000 C 
BRANCH  36  37
HETATM   37  C10 UNL     1     -11.337  14.654  31.228  1.00  0.00     0.000 C 
BRANCH  37  38
HETATM   38  C9  UNL     1     -11.814  15.422  32.374  1.00  0.00     0.000 C 
BRANCH  38  39
HETATM   39  C8  UNL     1     -11.972  14.852  33.712  1.00  0.00     0.000 C 
BRANCH  39  40
HETATM   40  C7  UNL     1     -10.743  14.845  34.560  1.00  0.00     0.000 C 
BRANCH  40  41
HETATM   41  C6  UNL     1     -10.204  16.234  34.789  1.00  0.00     0.000 C 
BRANCH  41  42
HETATM   42  C5  UNL     1      -8.728  16.239  34.759  1.00  0.00     0.000 C 
BRANCH  42  43
HETATM   43  C4  UNL     1      -8.215  15.698  33.443  1.00  0.00     0.000 C 
BRANCH  43  44
HETATM   44  C3  UNL     1      -8.341  16.863  32.458  1.00  0.00    -0.000 C 
BRANCH  44  45
HETATM   45  C2  UNL     1      -8.083  16.453  31.040  1.00  0.00    -0.005 C 
HETATM   46  C1  UNL     1      -7.395  17.516  30.237  1.00  0.00     0.005 C 
ENDBRANCH  44  45
ENDBRANCH  43  44
ENDBRANCH  42  43
ENDBRANCH  41  42
ENDBRANCH  40  41
ENDBRANCH  39  40
ENDBRANCH  38  39
ENDBRANCH  37  38
ENDBRANCH  36  37
ENDBRANCH  35  36
ENDBRANCH  34  35
ENDBRANCH  33  34
ENDBRANCH  32  33
ENDBRANCH  29  32
ENDBRANCH  27  28
ENDBRANCH   1  27
BRANCH   3  47
HETATM   47  O2  UNL     1     -16.212  10.843  31.806  1.00  0.00    -0.395 OA
ATOM     48  H2  UNL     1     -16.744  11.619  31.937  1.00  0.00     0.210 HD
ENDBRANCH   3  47
BRANCH  14  49
HETATM   49  O3  UNL     1     -13.256  14.280  39.992  1.00  0.00    -0.377 OA
ATOM     50  H3  UNL     1     -12.538  14.884  39.839  1.00  0.00     0.212 HD
ENDBRANCH  14  49
TORSDOF 19
ENDMDL
MODEL 3
REMARK VINA RESULT: -7.265527858      0.883      1.530
REMARK  19 active torsions:
REMARK  status: ('A' for Active; 'I' for Inactive)
REMARK    1  A    between atoms: C2_2  and  C3_3 
REMARK    2  A    between atoms: C3_3  and  C4_4 
REMARK    3  A    between atoms: C4_4  and  C5_5 
REMARK    4  A    between atoms: C5_5  and  C6_6 
REMARK    5  A    between atoms: C6_6  and  C7_7 
REMARK    6  A    between atoms: C7_7  and  C8_8 
REMARK    7  A    between atoms: C8_8  and  C9_9 
REMARK    8  A    between atoms: C9_9  and  C10_10 
REMARK    9  A    between atoms: C10_10  and  C11_11 
REMARK   10  A    between atoms: C11_11  and  C12_12 
REMARK   11  A    between atoms: C12_12  and  C13_13 
REMARK   12  A    between atoms: C13_13  and  C14_14 
REMARK   13  A    between atoms: C14_14  and  C15_15 
REMARK   14  A    between atoms: C15_15  and  C16_16 
REMARK       I    between atoms: C16_16  and  N1_18 
REMARK   15  A    between atoms: N1_18  and  C17_20 
REMARK   16  A    between atoms: C17_20  and  C18_21 
REMARK   17  A    between atoms: C20_23  and  O2_24 
REMARK   18  A    between atoms: C31_36  and  O3_37 
REMARK   19  A    between atoms: C36_45  and  O5_46 
ROOT
HETATM    1  C18 UNL     1     -13.773  10.812  32.406  1.00  0.00     0.002 C 
HETATM    2  C19 UNL     1     -13.529   9.688  31.469  1.00  0.00     0.020 C 
HETATM    3  C20 UNL     1     -15.252  10.939  32.695  1.00  0.00     0.128 C 
HETATM    4  C21 UNL     1     -15.757   9.658  33.231  1.00  0.00     0.033 C 
HETATM    5  C22 UNL     1     -14.937   8.969  34.243  1.00  0.00     0.014 C 
HETATM    6  C23 UNL     1     -13.662   9.626  34.671  1.00  0.00    -0.016 C 
HETATM    7  C24 UNL     1     -12.619   8.455  34.629  1.00  0.00     0.017 C 
HETATM    8  C25 UNL     1     -13.071  10.620  33.746  1.00  0.00     0.008 C 
HETATM    9  C26 UNL     1     -12.642  11.924  34.365  1.00  0.00     0.007 C 
HETATM   10  C27 UNL     1     -11.830  11.539  35.578  1.00  0.00     0.007 C 
HETATM   11  C28 UNL     1     -12.674  10.930  36.616  1.00  0.00     0.017 C 
HETATM   12  C29 UNL     1     -13.467  12.027  37.267  1.00  0.00     0.015 C 
HETATM   13  C30 UNL     1     -12.791  12.872  38.258  1.00  0.00     0.060 C 
HETATM   14  C31 UNL     1     -13.767  13.924  38.725  1.00  0.00     0.222 C 
HETATM   15  N2  UNL     1     -15.135  13.487  38.722  1.00  0.00    -0.329 N 
HETATM   16  C32 UNL     1     -16.141  14.441  39.169  1.00  0.00     0.155 C 
HETATM   17  C33 UNL     1     -15.588  12.203  38.318  1.00  0.00     0.232 C 
HETATM   18  O4  UNL     1     -16.790  11.875  38.261  1.00  0.00    -0.272 OA
HETATM   19  C34 UNL     1     -14.545  11.218  37.951  1.00  0.00     0.069 C 
HETATM   20  C35 UNL     1     -14.133  10.467  39.143  1.00  0.00     0.028 C 
HETATM   21  C36 UNL     1     -14.979  10.341  36.772  1.00  0.00     0.159 C 
HETATM   22  C37 UNL     1     -13.707   9.951  36.140  1.00  0.00     0.087 C 
HETATM   23  C38 UNL     1     -13.359   8.686  36.894  1.00  0.00     0.073 C 
HETATM   24  N3  UNL     1     -13.070   7.698  37.469  1.00  0.00    -0.196 NA
ENDROOT
BRANCH  21  25
HETATM   25  O5  UNL     1     -15.921  11.056  36.148  1.00  0.00    -0.392 OA
ATOM     26  H5  UNL     1     -16.625  11.131  36.781  1.00  0.00     0.210 HD
ENDBRANCH  21  25
BRANCH   1  27
HETATM   27  C17 UNL     1     -13.256  12.089  31.828  1.00  0.00     0.134 C 
BRANCH  27  28
HETATM   28  N1  UNL     1     -13.228  12.310  30.433  1.00  0.00    -0.360 N 
HETATM   29  C16 UNL     1     -14.029  13.037  29.529  1.00  0.00     0.217 C 
HETATM   30  O1  UNL     1     -15.046  13.700  29.788  1.00  0.00    -0.274 OA
ATOM     31  H1  UNL     1     -12.450  11.834  29.974  1.00  0.00     0.162 HD
BRANCH  29  32
HETATM   32  C15 UNL     1     -13.653  13.052  28.059  1.00  0.00     0.103 C 
BRANCH  32  33
HETATM   33  C14 UNL     1     -12.207  12.922  27.824  1.00  0.00     0.009 C 
BRANCH  33  34
HETATM   34  C13 UNL     1     -11.419  14.121  27.463  1.00  0.00     0.000 C 
BRANCH  34  35
HETATM   35  C12 UNL     1     -10.560  14.632  28.597  1.00  0.00     0.000 C 
BRANCH  35  36
HETATM   36  C11 UNL     1      -9.057  14.647  28.217  1.00  0.00     0.000 C 
BRANCH  36  37
HETATM   37  C10 UNL     1      -8.688  16.079  28.167  1.00  0.00     0.000 C 
BRANCH  37  38
HETATM   38  C9  UNL     1      -7.346  16.535  28.514  1.00  0.00     0.000 C 
BRANCH  38  39
HETATM   39  C8  UNL     1      -7.044  17.284  29.734  1.00  0.00     0.000 C 
BRANCH  39  40
HETATM   40  C7  UNL     1      -8.217  17.614  30.597  1.00  0.00     0.000 C 
BRANCH  40  41
HETATM   41  C6  UNL     1      -8.121  16.966  31.955  1.00  0.00     0.000 C 
BRANCH  41  42
HETATM   42  C5  UNL     1      -8.480  15.535  31.883  1.00  0.00     0.000 C 
BRANCH  42  43
HETATM   43  C4  UNL     1      -9.780  15.271  32.610  1.00  0.00     0.000 C 
BRANCH  43  44
HETATM   44  C3  UNL     1      -9.369  14.687  33.964  1.00  0.00    -0.000 C 
BRANCH  44  45
HETATM   45  C2  UNL     1      -9.693  15.596  35.109  1.00  0.00    -0.005 C 
HETATM   46  C1  UNL     1      -8.478  16.237  35.712  1.00  0.00     0.005 C 
ENDBRANCH  44  45
ENDBRANCH  43  44
ENDBRANCH  42  43
ENDBRANCH  41  42
ENDBRANCH  40  41
ENDBRANCH  39  40
ENDBRANCH  38  39
ENDBRANCH  37  38
ENDBRANCH  36  37
ENDBRANCH  35  36
ENDBRANCH  34  35
ENDBRANCH  33  34
ENDBRANCH  32  33
ENDBRANCH  29  32
ENDBRANCH  27  28
ENDBRANCH   1  27
BRANCH   3  47
HETATM   47  O2  UNL     1     -15.981  11.277  31.559  1.00  0.00    -0.395 OA
ATOM     48  H2  UNL     1     -16.709  11.854  31.759  1.00  0.00     0.210 HD
ENDBRANCH   3  47
BRANCH  14  49
HETATM   49  O3  UNL     1     -13.377  14.379  39.994  1.00  0.00    -0.377 OA
ATOM     50  H3  UNL     1     -14.028  14.113  40.632  1.00  0.00     0.212 HD
ENDBRANCH  14  49
TORSDOF 19
ENDMDL
MODEL 4
REMARK VINA RESULT: -7.251030872     10.686     17.095
REMARK  19 active torsions:
REMARK  status: ('A' for Active; 'I' for Inactive)
REMARK    1  A    between atoms: C2_2  and  C3_3 
REMARK    2  A    between atoms: C3_3  and  C4_4 
REMARK    3  A    between atoms: C4_4  and  C5_5 
REMARK    4  A    between atoms: C5_5  and  C6_6 
REMARK    5  A    between atoms: C6_6  and  C7_7 
REMARK    6  A    between atoms: C7_7  and  C8_8 
REMARK    7  A    between atoms: C8_8  and  C9_9 
REMARK    8  A    between atoms: C9_9  and  C10_10 
REMARK    9  A    between atoms: C10_10  and  C11_11 
REMARK   10  A    between atoms: C11_11  and  C12_12 
REMARK   11  A    between atoms: C12_12  and  C13_13 
REMARK   12  A    between atoms: C13_13  and  C14_14 
REMARK   13  A    between atoms: C14_14  and  C15_15 
REMARK   14  A    between atoms: C15_15  and  C16_16 
REMARK       I    between atoms: C16_16  and  N1_18 
REMARK   15  A    between atoms: N1_18  and  C17_20 
REMARK   16  A    between atoms: C17_20  and  C18_21 
REMARK   17  A    between atoms: C20_23  and  O2_24 
REMARK   18  A    between atoms: C31_36  and  O3_37 
REMARK   19  A    between atoms: C36_45  and  O5_46 
ROOT
HETATM    1  C18 UNL     1      -5.603  18.573  23.344  1.00  0.00     0.002 C 
HETATM    2  C19 UNL     1      -5.740  18.052  24.727  1.00  0.00     0.020 C 
HETATM    3  C20 UNL     1      -5.195  20.030  23.374  1.00  0.00     0.128 C 
HETATM    4  C21 UNL     1      -3.939  20.169  24.141  1.00  0.00     0.033 C 
HETATM    5  C22 UNL     1      -2.873  19.183  23.893  1.00  0.00     0.014 C 
HETATM    6  C23 UNL     1      -3.130  18.123  22.868  1.00  0.00    -0.016 C 
HETATM    7  C24 UNL     1      -2.662  16.808  23.583  1.00  0.00     0.017 C 
HETATM    8  C25 UNL     1      -4.543  17.829  22.539  1.00  0.00     0.008 C 
HETATM    9  C26 UNL     1      -4.878  17.753  21.074  1.00  0.00     0.007 C 
HETATM   10  C27 UNL     1      -3.827  16.852  20.473  1.00  0.00     0.007 C 
HETATM   11  C28 UNL     1      -2.502  17.491  20.487  1.00  0.00     0.017 C 
HETATM   12  C29 UNL     1      -2.485  18.539  19.410  1.00  0.00     0.015 C 
HETATM   13  C30 UNL     1      -2.299  18.098  18.023  1.00  0.00     0.060 C 
HETATM   14  C31 UNL     1      -2.370  19.312  17.129  1.00  0.00     0.222 C 
HETATM   15  N2  UNL     1      -1.887  20.515  17.747  1.00  0.00    -0.329 N 
HETATM   16  C32 UNL     1      -1.912  21.732  16.947  1.00  0.00     0.155 C 
HETATM   17  C33 UNL     1      -1.388  20.617  19.073  1.00  0.00     0.232 C 
HETATM   18  O4  UNL     1      -1.039  21.688  19.605  1.00  0.00    -0.272 OA
HETATM   19  C34 UNL     1      -1.287  19.354  19.841  1.00  0.00     0.069 C 
HETATM   20  C35 UNL     1       0.028  18.743  19.616  1.00  0.00     0.028 C 
HETATM   21  C36 UNL     1      -1.645  19.555  21.317  1.00  0.00     0.159 C 
HETATM   22  C37 UNL     1      -2.139  18.234  21.740  1.00  0.00     0.087 C 
HETATM   23  C38 UNL     1      -0.864  17.553  22.188  1.00  0.00     0.073 C 
HETATM   24  N3  UNL     1       0.117  17.004  22.544  1.00  0.00    -0.196 NA
ENDROOT
BRANCH  21  25
HETATM   25  O5  UNL     1      -2.397  20.661  21.335  1.00  0.00    -0.392 OA
ATOM     26  H5  UNL     1      -1.985  21.221  21.983  1.00  0.00     0.210 HD
ENDBRANCH  21  25
BRANCH   1  27
HETATM   27  C17 UNL     1      -6.892  18.421  22.604  1.00  0.00     0.134 C 
BRANCH  27  28
HETATM   28  N1  UNL     1      -7.669  17.247  22.708  1.00  0.00    -0.360 N 
HETATM   29  C16 UNL     1      -8.672  16.650  21.918  1.00  0.00     0.217 C 
HETATM   30  O1  UNL     1      -9.148  17.078  20.854  1.00  0.00    -0.274 OA
ATOM     31  H1  UNL     1      -7.457  16.707  23.548  1.00  0.00     0.162 HD
BRANCH  29  32
HETATM   32  C15 UNL     1      -9.274  15.331  22.364  1.00  0.00     0.103 C 
BRANCH  32  33
HETATM   33  C14 UNL     1     -10.564  15.480  23.056  1.00  0.00     0.009 C 
BRANCH  33  34
HETATM   34  C13 UNL     1     -10.582  15.860  24.485  1.00  0.00     0.000 C 
BRANCH  34  35
HETATM   35  C12 UNL     1      -9.482  15.204  25.289  1.00  0.00     0.000 C 
BRANCH  35  36
HETATM   36  C11 UNL     1      -8.663  16.244  26.096  1.00  0.00     0.000 C 
BRANCH  36  37
HETATM   37  C10 UNL     1      -9.536  17.435  26.183  1.00  0.00     0.000 C 
BRANCH  37  38
HETATM   38  C9  UNL     1      -9.805  18.095  27.457  1.00  0.00     0.000 C 
BRANCH  38  39
HETATM   39  C8  UNL     1     -10.391  17.410  28.608  1.00  0.00     0.000 C 
BRANCH  39  40
HETATM   40  C7  UNL     1      -9.432  16.655  29.469  1.00  0.00     0.000 C 
BRANCH  40  41
HETATM   41  C6  UNL     1      -8.829  17.524  30.542  1.00  0.00     0.000 C 
BRANCH  41  42
HETATM   42  C5  UNL     1      -7.355  17.528  30.452  1.00  0.00     0.000 C 
BRANCH  42  43
HETATM   43  C4  UNL     1      -6.892  16.796  29.212  1.00  0.00     0.000 C 
BRANCH  43  44
HETATM   44  C3  UNL     1      -5.941  17.767  28.507  1.00  0.00    -0.000 C 
BRANCH  44  45
HETATM   45  C2  UNL     1      -4.515  17.311  28.545  1.00  0.00    -0.005 C 
HETATM   46  C1  UNL     1      -3.608  18.148  27.693  1.00  0.00     0.005 C 
ENDBRANCH  44  45
ENDBRANCH  43  44
ENDBRANCH  42  43
ENDBRANCH  41  42
ENDBRANCH  40  41
ENDBRANCH  39  40
ENDBRANCH  38  39
ENDBRANCH  37  38
ENDBRANCH  36  37
ENDBRANCH  35  36
ENDBRANCH  34  35
ENDBRANCH  33  34
ENDBRANCH  32  33
ENDBRANCH  29  32
ENDBRANCH  27  28
ENDBRANCH   1  27
BRANCH   3  47
HETATM   47  O2  UNL     1      -6.172  20.837  23.947  1.00  0.00    -0.395 OA
ATOM     48  H2  UNL     1      -6.534  21.457  23.326  1.00  0.00     0.210 HD
ENDBRANCH   3  47
BRANCH  14  49
HETATM   49  O3  UNL     1      -1.689  19.040  15.933  1.00  0.00    -0.377 OA
ATOM     50  H3  UNL     1      -1.118  19.771  15.729  1.00  0.00     0.212 HD
ENDBRANCH  14  49
TORSDOF 19
ENDMDL
MODEL 5
REMARK VINA RESULT: -7.184407870     10.741     17.095
REMARK  19 active torsions:
REMARK  status: ('A' for Active; 'I' for Inactive)
REMARK    1  A    between atoms: C2_2  and  C3_3 
REMARK    2  A    between atoms: C3_3  and  C4_4 
REMARK    3  A    between atoms: C4_4  and  C5_5 
REMARK    4  A    between atoms: C5_5  and  C6_6 
REMARK    5  A    between atoms: C6_6  and  C7_7 
REMARK    6  A    between atoms: C7_7  and  C8_8 
REMARK    7  A    between atoms: C8_8  and  C9_9 
REMARK    8  A    between atoms: C9_9  and  C10_10 
REMARK    9  A    between atoms: C10_10  and  C11_11 
REMARK   10  A    between atoms: C11_11  and  C12_12 
REMARK   11  A    between atoms: C12_12  and  C13_13 
REMARK   12  A    between atoms: C13_13  and  C14_14 
REMARK   13  A    between atoms: C14_14  and  C15_15 
REMARK   14  A    between atoms: C15_15  and  C16_16 
REMARK       I    between atoms: C16_16  and  N1_18 
REMARK   15  A    between atoms: N1_18  and  C17_20 
REMARK   16  A    between atoms: C17_20  and  C18_21 
REMARK   17  A    between atoms: C20_23  and  O2_24 
REMARK   18  A    between atoms: C31_36  and  O3_37 
REMARK   19  A    between atoms: C36_45  and  O5_46 
ROOT
HETATM    1  C18 UNL     1      -5.684  18.308  22.888  1.00  0.00     0.002 C 
HETATM    2  C19 UNL     1      -6.036  17.873  24.263  1.00  0.00     0.020 C 
HETATM    3  C20 UNL     1      -5.438  19.800  22.860  1.00  0.00     0.128 C 
HETATM    4  C21 UNL     1      -4.378  20.139  23.832  1.00  0.00     0.033 C 
HETATM    5  C22 UNL     1      -3.189  19.268  23.879  1.00  0.00     0.014 C 
HETATM    6  C23 UNL     1      -3.133  18.116  22.926  1.00  0.00    -0.016 C 
HETATM    7  C24 UNL     1      -2.684  16.917  23.833  1.00  0.00     0.017 C 
HETATM    8  C25 UNL     1      -4.418  17.637  22.368  1.00  0.00     0.008 C 
HETATM    9  C26 UNL     1      -4.450  17.419  20.878  1.00  0.00     0.007 C 
HETATM   10  C27 UNL     1      -3.216  16.606  20.569  1.00  0.00     0.007 C 
HETATM   11  C28 UNL     1      -1.991  17.394  20.772  1.00  0.00     0.017 C 
HETATM   12  C29 UNL     1      -1.868  18.358  19.627  1.00  0.00     0.015 C 
HETATM   13  C30 UNL     1      -1.372  17.845  18.344  1.00  0.00     0.060 C 
HETATM   14  C31 UNL     1      -1.388  18.976  17.346  1.00  0.00     0.222 C 
HETATM   15  N2  UNL     1      -1.159  20.268  17.930  1.00  0.00    -0.329 N 
HETATM   16  C32 UNL     1      -1.149  21.415  17.032  1.00  0.00     0.155 C 
HETATM   17  C33 UNL     1      -0.941  20.520  19.311  1.00  0.00     0.232 C 
HETATM   18  O4  UNL     1      -0.813  21.660  19.799  1.00  0.00    -0.272 OA
HETATM   19  C34 UNL     1      -0.867  19.336  20.197  1.00  0.00     0.069 C 
HETATM   20  C35 UNL     1       0.522  18.867  20.278  1.00  0.00     0.028 C 
HETATM   21  C36 UNL     1      -1.525  19.597  21.555  1.00  0.00     0.159 C 
HETATM   22  C37 UNL     1      -1.957  18.261  21.998  1.00  0.00     0.087 C 
HETATM   23  C38 UNL     1      -0.732  17.766  22.736  1.00  0.00     0.073 C 
HETATM   24  N3  UNL     1       0.210  17.362  23.318  1.00  0.00    -0.196 NA
ENDROOT
BRANCH  21  25
HETATM   25  O5  UNL     1      -2.373  20.607  21.331  1.00  0.00    -0.392 OA
ATOM     26  H5  UNL     1      -3.080  20.469  21.951  1.00  0.00     0.210 HD
ENDBRANCH  21  25
BRANCH   1  27
HETATM   27  C17 UNL     1      -6.781  17.955  21.937  1.00  0.00     0.134 C 
BRANCH  27  28
HETATM   28  N1  UNL     1      -7.863  17.136  22.329  1.00  0.00    -0.360 N 
HETATM   29  C16 UNL     1      -8.961  16.559  21.659  1.00  0.00     0.217 C 
HETATM   30  O1  UNL     1      -9.253  16.667  20.457  1.00  0.00    -0.274 OA
ATOM     31  H1  UNL     1      -7.846  16.910  23.324  1.00  0.00     0.162 HD
BRANCH  29  32
HETATM   32  C15 UNL     1      -9.930  15.694  22.443  1.00  0.00     0.103 C 
BRANCH  32  33
HETATM   33  C14 UNL     1      -9.452  15.355  23.792  1.00  0.00     0.009 C 
BRANCH  33  34
HETATM   34  C13 UNL     1     -10.284  15.700  24.965  1.00  0.00     0.000 C 
BRANCH  34  35
HETATM   35  C12 UNL     1      -9.961  14.871  26.188  1.00  0.00     0.000 C 
BRANCH  35  36
HETATM   36  C11 UNL     1      -8.450  14.922  26.533  1.00  0.00     0.000 C 
BRANCH  36  37
HETATM   37  C10 UNL     1      -8.384  14.736  27.999  1.00  0.00     0.000 C 
BRANCH  37  38
HETATM   38  C9  UNL     1      -9.563  14.894  28.844  1.00  0.00     0.000 C 
BRANCH  38  39
HETATM   39  C8  UNL     1      -9.604  15.780  30.007  1.00  0.00     0.000 C 
BRANCH  39  40
HETATM   40  C7  UNL     1      -8.348  15.849  30.812  1.00  0.00     0.000 C 
BRANCH  40  41
HETATM   41  C6  UNL     1      -7.902  17.270  31.045  1.00  0.00     0.000 C 
BRANCH  41  42
HETATM   42  C5  UNL     1      -7.480  17.904  29.779  1.00  0.00     0.000 C 
BRANCH  42  43
HETATM   43  C4  UNL     1      -6.175  17.315  29.292  1.00  0.00     0.000 C 
BRANCH  43  44
HETATM   44  C3  UNL     1      -6.013  17.834  27.862  1.00  0.00    -0.000 C 
BRANCH  44  45
HETATM   45  C2  UNL     1      -4.783  18.671  27.686  1.00  0.00    -0.005 C 
HETATM   46  C1  UNL     1      -3.564  17.863  27.358  1.00  0.00     0.005 C 
ENDBRANCH  44  45
ENDBRANCH  43  44
ENDBRANCH  42  43
ENDBRANCH  41  42
ENDBRANCH  40  41
ENDBRANCH  39  40
ENDBRANCH  38  39
ENDBRANCH  37  38
ENDBRANCH  36  37
ENDBRANCH  35  36
ENDBRANCH  34  35
ENDBRANCH  33  34
ENDBRANCH  32  33
ENDBRANCH  29  32
ENDBRANCH  27  28
ENDBRANCH   1  27
BRANCH   3  47
HETATM   47  O2  UNL     1      -6.585  20.526  23.164  1.00  0.00    -0.395 OA
ATOM     48  H2  UNL     1      -6.989  20.236  23.973  1.00  0.00     0.210 HD
ENDBRANCH   3  47
BRANCH  14  49
HETATM   49  O3  UNL     1      -0.462  18.702  16.328  1.00  0.00    -0.377 OA
ATOM     50  H3  UNL     1      -0.266  19.507  15.862  1.00  0.00     0.212 HD
ENDBRANCH  14  49
TORSDOF 19
ENDMDL
