MODEL 1
REMARK VINA RESULT: -8.587301469      0.000      0.000
REMARK  17 active torsions:
REMARK  status: ('A' for Active; 'I' for Inactive)
REMARK    1  A    between atoms: C2_2  and  C3_3 
REMARK    2  A    between atoms: C3_3  and  C5_5 
REMARK    3  A    between atoms: C5_5  and  N1_6 
REMARK       I    between atoms: N1_6  and  C6_7 
REMARK    4  A    between atoms: C6_7  and  C7_9 
REMARK    5  A    between atoms: C7_9  and  C8_10 
REMARK    6  A    between atoms: C8_10  and  C9_11 
REMARK    7  A    between atoms: C8_10  and  C16_18 
REMARK    8  A    between atoms: C9_11  and  C10_12 
REMARK       I    between atoms: C16_18  and  N2_20 
REMARK    9  A    between atoms: N2_20  and  C17_21 
REMARK   10  A    between atoms: C17_21  and  C18_22 
REMARK   11  A    between atoms: C18_22  and  C19_23 
REMARK   12  A    between atoms: C19_23  and  C20_24 
REMARK   13  A    between atoms: C24_28  and  C25_29 
REMARK   14  A    between atoms: C24_28  and  C32_43 
REMARK   15  A    between atoms: C25_29  and  C26_31 
REMARK   16  A    between atoms: C26_31  and  N3_33 
REMARK   17  A    between atoms: N3_33  and  C28_35 
ROOT
HETATM    1  C20 UNL     1     -11.873  15.357  27.525  1.00  0.00     0.044 C 
HETATM    2  C21 UNL     1     -11.287  13.992  27.254  1.00  0.00     0.064 C 
HETATM    3  C22 UNL     1      -9.950  13.903  27.963  1.00  0.00     0.010 C 
HETATM    4  C23 UNL     1      -9.047  15.079  27.693  1.00  0.00     0.047 C 
HETATM    5  C24 UNL     1      -9.708  16.395  27.469  1.00  0.00     0.133 C 
HETATM    6  O4  UNL     1     -11.012  16.276  27.958  1.00  0.00    -0.337 OA
ENDROOT
BRANCH   1   7
HETATM    7  C19 UNL     1     -13.183  15.394  28.190  1.00  0.00     0.008 C 
BRANCH   7   8
HETATM    8  C18 UNL     1     -14.199  14.376  28.146  1.00  0.00     0.063 C 
BRANCH   8   9
HETATM    9  C17 UNL     1     -15.184  14.257  29.315  1.00  0.00     0.225 C 
BRANCH   9  10
HETATM   10  N2  UNL     1     -14.613  14.433  30.546  1.00  0.00    -0.415 NA
HETATM   11  C16 UNL     1     -14.033  14.615  31.801  1.00  0.00     0.291 C 
HETATM   12  O2  UNL     1     -14.476  15.424  32.629  1.00  0.00    -0.257 OA
BRANCH  11  13
HETATM   13  C8  UNL     1     -12.855  13.818  32.155  1.00  0.00     0.103 C 
BRANCH  13  14
HETATM   14  C7  UNL     1     -12.599  13.255  33.456  1.00  0.00     0.134 C 
BRANCH  14  15
HETATM   15  C6  UNL     1     -13.435  12.102  33.965  1.00  0.00     0.291 C 
HETATM   16  N1  UNL     1     -14.162  11.339  33.155  1.00  0.00    -0.387 NA
HETATM   17  O1  UNL     1     -13.342  11.969  35.220  1.00  0.00    -0.257 OA
BRANCH  16  18
HETATM   18  C5  UNL     1     -14.929  10.535  32.303  1.00  0.00     0.163 C 
BRANCH  18  19
HETATM   19  C3  UNL     1     -14.264  10.021  31.065  1.00  0.00     0.033 C 
HETATM   20  C4  UNL     1     -12.955   9.371  31.430  1.00  0.00     0.016 C 
BRANCH  19  21
HETATM   21  C2  UNL     1     -14.057  11.013  29.980  1.00  0.00     0.006 C 
HETATM   22  C1  UNL     1     -12.613  11.275  29.656  1.00  0.00     0.006 C 
ENDBRANCH  19  21
ENDBRANCH  18  19
ENDBRANCH  16  18
ENDBRANCH  14  15
ENDBRANCH  13  14
BRANCH  13  23
HETATM   23  C9  UNL     1     -11.610  14.584  31.624  1.00  0.00     0.020 C 
BRANCH  23  24
HETATM   24  C10 UNL     1     -10.661  14.793  32.775  1.00  0.00    -0.014 C 
HETATM   25  C11 UNL     1      -9.220  14.585  32.349  1.00  0.00     0.005 C 
HETATM   26  C12 UNL     1      -8.292  15.451  33.223  1.00  0.00     0.000 C 
HETATM   27  C13 UNL     1      -8.820  15.518  34.629  1.00  0.00     0.000 C 
HETATM   28  C14 UNL     1     -10.164  16.182  34.723  1.00  0.00     0.000 C 
HETATM   29  C15 UNL     1     -10.800  16.170  33.336  1.00  0.00     0.005 C 
ENDBRANCH  23  24
ENDBRANCH  13  23
ENDBRANCH  11  13
ENDBRANCH   9  10
ENDBRANCH   8   9
ENDBRANCH   7   8
ENDBRANCH   1   7
BRANCH   5  30
HETATM   30  C25 UNL     1      -9.611  16.854  26.081  1.00  0.00     0.183 C 
HETATM   31  O3  UNL     1     -10.259  17.890  25.791  1.00  0.00    -0.292 OA
BRANCH  30  32
HETATM   32  C26 UNL     1      -8.866  16.337  24.923  1.00  0.00     0.146 C 
HETATM   33  C27 UNL     1      -9.654  15.465  23.990  1.00  0.00     0.040 C 
BRANCH  32  34
HETATM   34  N3  UNL     1      -8.431  17.494  24.120  1.00  0.00    -0.397 N 
ATOM     35  H3  UNL     1      -9.072  18.243  23.859  1.00  0.00     0.155 HD
BRANCH  34  36
HETATM   36  C28 UNL     1      -7.080  17.500  23.736  1.00  0.00     0.165 C 
HETATM   37  C29 UNL     1      -6.690  18.186  22.475  1.00  0.00     0.267 C 
HETATM   38  N4  UNL     1      -5.452  18.955  22.636  1.00  0.00    -0.072 N 
HETATM   39  C30 UNL     1      -4.302  18.149  22.916  1.00  0.00     0.242 C 
ATOM     40  H42 UNL     1      -5.287  19.546  21.821  1.00  0.00     0.277 HD
ATOM     41  H41 UNL     1      -5.567  19.675  23.349  1.00  0.00     0.277 HD
HETATM   42  C31 UNL     1      -4.215  17.708  24.380  1.00  0.00     0.103 C 
HETATM   43  S1  UNL     1      -5.903  17.948  25.070  1.00  0.00    -0.141 SA
ENDBRANCH  34  36
ENDBRANCH  32  34
ENDBRANCH  30  32
ENDBRANCH   5  30
BRANCH   5  44
HETATM   44  C32 UNL     1      -9.073  17.423  28.424  1.00  0.00     0.028 C 
HETATM   45  C33 UNL     1      -9.585  17.125  29.810  1.00  0.00     0.008 C 
HETATM   46  C34 UNL     1      -8.568  17.883  30.653  1.00  0.00     0.001 C 
HETATM   47  C35 UNL     1      -7.284  17.323  30.080  1.00  0.00     0.001 C 
HETATM   48  C36 UNL     1      -7.584  17.247  28.568  1.00  0.00     0.008 C 
ENDBRANCH   5  44
TORSDOF 17
ENDMDL
MODEL 2
REMARK VINA RESULT: -8.329820526      1.714      4.928
REMARK  17 active torsions:
REMARK  status: ('A' for Active; 'I' for Inactive)
REMARK    1  A    between atoms: C2_2  and  C3_3 
REMARK    2  A    between atoms: C3_3  and  C5_5 
REMARK    3  A    between atoms: C5_5  and  N1_6 
REMARK       I    between atoms: N1_6  and  C6_7 
REMARK    4  A    between atoms: C6_7  and  C7_9 
REMARK    5  A    between atoms: C7_9  and  C8_10 
REMARK    6  A    between atoms: C8_10  and  C9_11 
REMARK    7  A    between atoms: C8_10  and  C16_18 
REMARK    8  A    between atoms: C9_11  and  C10_12 
REMARK       I    between atoms: C16_18  and  N2_20 
REMARK    9  A    between atoms: N2_20  and  C17_21 
REMARK   10  A    between atoms: C17_21  and  C18_22 
REMARK   11  A    between atoms: C18_22  and  C19_23 
REMARK   12  A    between atoms: C19_23  and  C20_24 
REMARK   13  A    between atoms: C24_28  and  C25_29 
REMARK   14  A    between atoms: C24_28  and  C32_43 
REMARK   15  A    between atoms: C25_29  and  C26_31 
REMARK   16  A    between atoms: C26_31  and  N3_33 
REMARK   17  A    between atoms: N3_33  and  C28_35 
ROOT
HETATM    1  C20 UNL     1     -10.313  15.067  28.319  1.00  0.00     0.044 C 
HETATM    2  C21 UNL     1     -10.649  16.183  29.279  1.00  0.00     0.064 C 
HETATM    3  C22 UNL     1     -10.898  17.441  28.472  1.00  0.00     0.010 C 
HETATM    4  C23 UNL     1      -9.816  17.734  27.464  1.00  0.00     0.047 C 
HETATM    5  C24 UNL     1      -9.128  16.560  26.859  1.00  0.00     0.133 C 
HETATM    6  O4  UNL     1      -9.944  15.451  27.098  1.00  0.00    -0.337 OA
ENDROOT
BRANCH   1   7
HETATM    7  C19 UNL     1     -11.191  13.888  28.343  1.00  0.00     0.008 C 
BRANCH   7   8
HETATM    8  C18 UNL     1     -12.255  13.589  27.422  1.00  0.00     0.063 C 
BRANCH   8   9
HETATM    9  C17 UNL     1     -13.649  14.173  27.681  1.00  0.00     0.225 C 
BRANCH   9  10
HETATM   10  N2  UNL     1     -14.007  14.201  29.001  1.00  0.00    -0.415 NA
HETATM   11  C16 UNL     1     -14.373  14.232  30.346  1.00  0.00     0.291 C 
HETATM   12  O2  UNL     1     -15.293  14.947  30.771  1.00  0.00    -0.257 OA
BRANCH  11  13
HETATM   13  C8  UNL     1     -13.643  13.386  31.295  1.00  0.00     0.103 C 
BRANCH  13  14
HETATM   14  C7  UNL     1     -12.500  13.806  32.065  1.00  0.00     0.134 C 
BRANCH  14  15
HETATM   15  C6  UNL     1     -12.622  14.015  33.557  1.00  0.00     0.291 C 
HETATM   16  N1  UNL     1     -11.767  14.769  34.242  1.00  0.00    -0.387 NA
HETATM   17  O1  UNL     1     -13.618  13.401  34.041  1.00  0.00    -0.257 OA
BRANCH  16  18
HETATM   18  C5  UNL     1     -10.868  15.562  34.965  1.00  0.00     0.163 C 
BRANCH  18  19
HETATM   19  C3  UNL     1      -9.418  15.199  34.882  1.00  0.00     0.033 C 
HETATM   20  C4  UNL     1      -8.591  16.289  35.514  1.00  0.00     0.016 C 
BRANCH  19  21
HETATM   21  C2  UNL     1      -8.904  14.889  33.524  1.00  0.00     0.006 C 
HETATM   22  C1  UNL     1      -8.511  16.100  32.726  1.00  0.00     0.006 C 
ENDBRANCH  19  21
ENDBRANCH  18  19
ENDBRANCH  16  18
ENDBRANCH  14  15
ENDBRANCH  13  14
BRANCH  13  23
HETATM   23  C9  UNL     1     -13.369  12.032  30.581  1.00  0.00     0.020 C 
BRANCH  23  24
HETATM   24  C10 UNL     1     -13.841  10.921  31.483  1.00  0.00    -0.014 C 
HETATM   25  C11 UNL     1     -15.316  10.634  31.282  1.00  0.00     0.005 C 
HETATM   26  C12 UNL     1     -15.603   9.154  31.602  1.00  0.00     0.000 C 
HETATM   27  C13 UNL     1     -14.739   8.694  32.743  1.00  0.00     0.000 C 
HETATM   28  C14 UNL     1     -13.271   8.741  32.426  1.00  0.00     0.000 C 
HETATM   29  C15 UNL     1     -13.070   9.668  31.231  1.00  0.00     0.005 C 
ENDBRANCH  23  24
ENDBRANCH  13  23
ENDBRANCH  11  13
ENDBRANCH   9  10
ENDBRANCH   8   9
ENDBRANCH   7   8
ENDBRANCH   1   7
BRANCH   5  30
HETATM   30  C25 UNL     1      -7.742  16.415  27.311  1.00  0.00     0.183 C 
HETATM   31  O3  UNL     1      -7.347  15.241  27.520  1.00  0.00    -0.292 OA
BRANCH  30  32
HETATM   32  C26 UNL     1      -6.679  17.400  27.559  1.00  0.00     0.146 C 
HETATM   33  C27 UNL     1      -6.183  17.465  28.974  1.00  0.00     0.040 C 
BRANCH  32  34
HETATM   34  N3  UNL     1      -5.514  17.014  26.743  1.00  0.00    -0.397 N 
ATOM     35  H3  UNL     1      -5.009  16.142  26.898  1.00  0.00     0.155 HD
BRANCH  34  36
HETATM   36  C28 UNL     1      -5.142  17.923  25.738  1.00  0.00     0.165 C 
HETATM   37  C29 UNL     1      -5.736  17.784  24.382  1.00  0.00     0.267 C 
HETATM   38  N4  UNL     1      -6.103  19.087  23.815  1.00  0.00    -0.072 N 
HETATM   39  C30 UNL     1      -4.985  19.949  23.574  1.00  0.00     0.242 C 
ATOM     40  H42 UNL     1      -6.653  18.966  22.965  1.00  0.00     0.277 HD
ATOM     41  H41 UNL     1      -6.794  19.552  24.402  1.00  0.00     0.277 HD
HETATM   42  C31 UNL     1      -4.477  20.646  24.840  1.00  0.00     0.103 C 
HETATM   43  S1  UNL     1      -5.170  19.686  26.247  1.00  0.00    -0.141 SA
ENDBRANCH  34  36
ENDBRANCH  32  34
ENDBRANCH  30  32
ENDBRANCH   5  30
BRANCH   5  44
HETATM   44  C32 UNL     1      -9.185  16.706  25.326  1.00  0.00     0.028 C 
HETATM   45  C33 UNL     1      -8.424  15.547  24.736  1.00  0.00     0.008 C 
HETATM   46  C34 UNL     1      -8.937  15.577  23.302  1.00  0.00     0.001 C 
HETATM   47  C35 UNL     1     -10.428  15.575  23.558  1.00  0.00     0.001 C 
HETATM   48  C36 UNL     1     -10.572  16.518  24.771  1.00  0.00     0.008 C 
ENDBRANCH   5  44
TORSDOF 17
ENDMDL
MODEL 3
REMARK VINA RESULT: -8.168989742      1.978      4.628
REMARK  17 active torsions:
REMARK  status: ('A' for Active; 'I' for Inactive)
REMARK    1  A    between atoms: C2_2  and  C3_3 
REMARK    2  A    between atoms: C3_3  and  C5_5 
REMARK    3  A    between atoms: C5_5  and  N1_6 
REMARK       I    between atoms: N1_6  and  C6_7 
REMARK    4  A    between atoms: C6_7  and  C7_9 
REMARK    5  A    between atoms: C7_9  and  C8_10 
REMARK    6  A    between atoms: C8_10  and  C9_11 
REMARK    7  A    between atoms: C8_10  and  C16_18 
REMARK    8  A    between atoms: C9_11  and  C10_12 
REMARK       I    between atoms: C16_18  and  N2_20 
REMARK    9  A    between atoms: N2_20  and  C17_21 
REMARK   10  A    between atoms: C17_21  and  C18_22 
REMARK   11  A    between atoms: C18_22  and  C19_23 
REMARK   12  A    between atoms: C19_23  and  C20_24 
REMARK   13  A    between atoms: C24_28  and  C25_29 
REMARK   14  A    between atoms: C24_28  and  C32_43 
REMARK   15  A    between atoms: C25_29  and  C26_31 
REMARK   16  A    between atoms: C26_31  and  N3_33 
REMARK   17  A    between atoms: N3_33  and  C28_35 
ROOT
HETATM    1  C20 UNL     1     -10.278  15.290  28.620  1.00  0.00     0.044 C 
HETATM    2  C21 UNL     1     -10.517  16.473  29.528  1.00  0.00     0.064 C 
HETATM    3  C22 UNL     1     -10.758  17.692  28.661  1.00  0.00     0.010 C 
HETATM    4  C23 UNL     1      -9.720  17.880  27.585  1.00  0.00     0.047 C 
HETATM    5  C24 UNL     1      -9.113  16.645  27.016  1.00  0.00     0.133 C 
HETATM    6  O4  UNL     1      -9.958  15.588  27.361  1.00  0.00    -0.337 OA
ENDROOT
BRANCH   1   7
HETATM    7  C19 UNL     1     -11.200  14.154  28.758  1.00  0.00     0.008 C 
BRANCH   7   8
HETATM    8  C18 UNL     1     -12.607  14.147  28.458  1.00  0.00     0.063 C 
BRANCH   8   9
HETATM    9  C17 UNL     1     -13.388  12.834  28.586  1.00  0.00     0.225 C 
BRANCH   9  10
HETATM   10  N2  UNL     1     -13.890  12.602  29.838  1.00  0.00    -0.415 NA
HETATM   11  C16 UNL     1     -14.406  12.366  31.112  1.00  0.00     0.291 C 
HETATM   12  O2  UNL     1     -15.451  11.726  31.300  1.00  0.00    -0.257 OA
BRANCH  11  13
HETATM   13  C8  UNL     1     -13.684  12.893  32.273  1.00  0.00     0.103 C 
BRANCH  13  14
HETATM   14  C7  UNL     1     -12.647  13.892  32.217  1.00  0.00     0.134 C 
BRANCH  14  15
HETATM   15  C6  UNL     1     -12.762  15.157  33.038  1.00  0.00     0.291 C 
HETATM   16  N1  UNL     1     -11.829  15.527  33.909  1.00  0.00    -0.387 NA
HETATM   17  O1  UNL     1     -13.828  15.790  32.783  1.00  0.00    -0.257 OA
BRANCH  16  18
HETATM   18  C5  UNL     1     -10.847  15.917  34.828  1.00  0.00     0.163 C 
BRANCH  18  19
HETATM   19  C3  UNL     1      -9.513  15.245  34.730  1.00  0.00     0.033 C 
HETATM   20  C4  UNL     1      -8.522  15.966  35.607  1.00  0.00     0.016 C 
BRANCH  19  21
HETATM   21  C2  UNL     1      -8.965  15.088  33.360  1.00  0.00     0.006 C 
HETATM   22  C1  UNL     1      -8.462  16.367  32.750  1.00  0.00     0.006 C 
ENDBRANCH  19  21
ENDBRANCH  18  19
ENDBRANCH  16  18
ENDBRANCH  14  15
ENDBRANCH  13  14
BRANCH  13  23
HETATM   23  C9  UNL     1     -13.236  11.672  33.125  1.00  0.00     0.020 C 
BRANCH  23  24
HETATM   24  C10 UNL     1     -13.384  12.034  34.580  1.00  0.00    -0.014 C 
HETATM   25  C11 UNL     1     -14.277  11.049  35.308  1.00  0.00     0.005 C 
HETATM   26  C12 UNL     1     -13.863  10.972  36.790  1.00  0.00     0.000 C 
HETATM   27  C13 UNL     1     -13.425  12.326  37.276  1.00  0.00     0.000 C 
HETATM   28  C14 UNL     1     -12.207  12.842  36.563  1.00  0.00     0.000 C 
HETATM   29  C15 UNL     1     -12.054  12.067  35.257  1.00  0.00     0.005 C 
ENDBRANCH  23  24
ENDBRANCH  13  23
ENDBRANCH  11  13
ENDBRANCH   9  10
ENDBRANCH   8   9
ENDBRANCH   7   8
ENDBRANCH   1   7
BRANCH   5  30
HETATM   30  C25 UNL     1      -7.712  16.466  27.405  1.00  0.00     0.183 C 
HETATM   31  O3  UNL     1      -7.323  15.281  27.551  1.00  0.00    -0.292 OA
BRANCH  30  32
HETATM   32  C26 UNL     1      -6.627  17.429  27.650  1.00  0.00     0.146 C 
HETATM   33  C27 UNL     1      -6.104  17.462  29.056  1.00  0.00     0.040 C 
BRANCH  32  34
HETATM   34  N3  UNL     1      -5.484  17.037  26.807  1.00  0.00    -0.397 N 
ATOM     35  H3  UNL     1      -4.958  16.178  26.972  1.00  0.00     0.155 HD
BRANCH  34  36
HETATM   36  C28 UNL     1      -5.163  17.918  25.761  1.00  0.00     0.165 C 
HETATM   37  C29 UNL     1      -5.826  17.746  24.441  1.00  0.00     0.267 C 
HETATM   38  N4  UNL     1      -6.221  19.034  23.861  1.00  0.00    -0.072 N 
HETATM   39  C30 UNL     1      -5.116  19.887  23.540  1.00  0.00     0.242 C 
ATOM     40  H42 UNL     1      -6.814  18.893  23.043  1.00  0.00     0.277 HD
ATOM     41  H41 UNL     1      -6.881  19.515  24.470  1.00  0.00     0.277 HD
HETATM   42  C31 UNL     1      -4.542  20.615  24.759  1.00  0.00     0.103 C 
HETATM   43  S1  UNL     1      -5.163  19.694  26.224  1.00  0.00    -0.141 SA
ENDBRANCH  34  36
ENDBRANCH  32  34
ENDBRANCH  30  32
ENDBRANCH   5  30
BRANCH   5  44
HETATM   44  C32 UNL     1      -9.244  16.706  25.482  1.00  0.00     0.028 C 
HETATM   45  C33 UNL     1      -8.572  15.477  24.924  1.00  0.00     0.008 C 
HETATM   46  C34 UNL     1      -9.158  15.451  23.519  1.00  0.00     0.001 C 
HETATM   47  C35 UNL     1     -10.632  15.539  23.850  1.00  0.00     0.001 C 
HETATM   48  C36 UNL     1     -10.666  16.557  25.010  1.00  0.00     0.008 C 
ENDBRANCH   5  44
TORSDOF 17
ENDMDL
MODEL 4
REMARK VINA RESULT: -8.123581922      1.779      3.277
REMARK  17 active torsions:
REMARK  status: ('A' for Active; 'I' for Inactive)
REMARK    1  A    between atoms: C2_2  and  C3_3 
REMARK    2  A    between atoms: C3_3  and  C5_5 
REMARK    3  A    between atoms: C5_5  and  N1_6 
REMARK       I    between atoms: N1_6  and  C6_7 
REMARK    4  A    between atoms: C6_7  and  C7_9 
REMARK    5  A    between atoms: C7_9  and  C8_10 
REMARK    6  A    between atoms: C8_10  and  C9_11 
REMARK    7  A    between atoms: C8_10  and  C16_18 
REMARK    8  A    between atoms: C9_11  and  C10_12 
REMARK       I    between atoms: C16_18  and  N2_20 
REMARK    9  A    between atoms: N2_20  and  C17_21 
REMARK   10  A    between atoms: C17_21  and  C18_22 
REMARK   11  A    between atoms: C18_22  and  C19_23 
REMARK   12  A    between atoms: C19_23  and  C20_24 
REMARK   13  A    between atoms: C24_28  and  C25_29 
REMARK   14  A    between atoms: C24_28  and  C32_43 
REMARK   15  A    between atoms: C25_29  and  C26_31 
REMARK   16  A    between atoms: C26_31  and  N3_33 
REMARK   17  A    between atoms: N3_33  and  C28_35 
ROOT
HETATM    1  C20 UNL     1      -9.819  15.688  29.488  1.00  0.00     0.044 C 
HETATM    2  C21 UNL     1     -10.138  17.040  30.081  1.00  0.00     0.064 C 
HETATM    3  C22 UNL     1     -10.586  17.954  28.959  1.00  0.00     0.010 C 
HETATM    4  C23 UNL     1      -9.656  17.952  27.773  1.00  0.00     0.047 C 
HETATM    5  C24 UNL     1      -8.943  16.677  27.482  1.00  0.00     0.133 C 
HETATM    6  O4  UNL     1      -9.627  15.670  28.170  1.00  0.00    -0.337 OA
ENDROOT
BRANCH   1   7
HETATM    7  C19 UNL     1     -10.583  14.543  30.003  1.00  0.00     0.008 C 
BRANCH   7   8
HETATM    8  C18 UNL     1     -11.621  13.822  29.317  1.00  0.00     0.063 C 
BRANCH   8   9
HETATM    9  C17 UNL     1     -12.563  12.924  30.127  1.00  0.00     0.225 C 
BRANCH   9  10
HETATM   10  N2  UNL     1     -12.908  13.434  31.349  1.00  0.00    -0.415 NA
HETATM   11  C16 UNL     1     -13.261  13.957  32.592  1.00  0.00     0.291 C 
HETATM   12  O2  UNL     1     -14.120  14.841  32.725  1.00  0.00    -0.257 OA
BRANCH  11  13
HETATM   13  C8  UNL     1     -12.590  13.440  33.789  1.00  0.00     0.103 C 
BRANCH  13  14
HETATM   14  C7  UNL     1     -13.134  12.442  34.674  1.00  0.00     0.134 C 
BRANCH  14  15
HETATM   15  C6  UNL     1     -12.373  11.163  34.939  1.00  0.00     0.291 C 
HETATM   16  N1  UNL     1     -12.661  10.022  34.318  1.00  0.00    -0.387 NA
HETATM   17  O1  UNL     1     -11.456  11.327  35.795  1.00  0.00    -0.257 OA
BRANCH  16  18
HETATM   18  C5  UNL     1     -12.963   8.821  33.667  1.00  0.00     0.163 C 
BRANCH  18  19
HETATM   19  C3  UNL     1     -13.806   8.906  32.432  1.00  0.00     0.033 C 
HETATM   20  C4  UNL     1     -12.974   9.432  31.291  1.00  0.00     0.016 C 
BRANCH  19  21
HETATM   21  C2  UNL     1     -15.060   9.690  32.555  1.00  0.00     0.006 C 
HETATM   22  C1  UNL     1     -15.273  10.685  31.449  1.00  0.00     0.006 C 
ENDBRANCH  19  21
ENDBRANCH  18  19
ENDBRANCH  16  18
ENDBRANCH  14  15
ENDBRANCH  13  14
BRANCH  13  23
HETATM   23  C9  UNL     1     -12.071  14.670  34.587  1.00  0.00     0.020 C 
BRANCH  23  24
HETATM   24  C10 UNL     1     -10.802  15.152  33.932  1.00  0.00    -0.014 C 
HETATM   25  C11 UNL     1     -10.346  16.475  34.517  1.00  0.00     0.005 C 
HETATM   26  C12 UNL     1      -8.813  16.586  34.412  1.00  0.00     0.000 C 
HETATM   27  C13 UNL     1      -8.334  15.947  33.139  1.00  0.00     0.000 C 
HETATM   28  C14 UNL     1      -8.617  14.473  33.077  1.00  0.00     0.000 C 
HETATM   29  C15 UNL     1      -9.707  14.152  34.098  1.00  0.00     0.005 C 
ENDBRANCH  23  24
ENDBRANCH  13  23
ENDBRANCH  11  13
ENDBRANCH   9  10
ENDBRANCH   8   9
ENDBRANCH   7   8
ENDBRANCH   1   7
BRANCH   5  30
HETATM   30  C25 UNL     1      -7.507  16.749  27.763  1.00  0.00     0.183 C 
HETATM   31  O3  UNL     1      -6.835  15.725  27.487  1.00  0.00    -0.292 OA
BRANCH  30  32
HETATM   32  C26 UNL     1      -6.663  17.824  28.305  1.00  0.00     0.146 C 
HETATM   33  C27 UNL     1      -6.146  17.595  29.695  1.00  0.00     0.040 C 
BRANCH  32  34
HETATM   34  N3  UNL     1      -5.469  17.929  27.446  1.00  0.00    -0.397 N 
ATOM     35  H3  UNL     1      -4.584  17.486  27.693  1.00  0.00     0.155 HD
BRANCH  34  36
HETATM   36  C28 UNL     1      -5.626  18.677  26.268  1.00  0.00     0.165 C 
HETATM   37  C29 UNL     1      -4.912  19.975  26.135  1.00  0.00     0.267 C 
HETATM   38  N4  UNL     1      -4.340  20.144  24.795  1.00  0.00    -0.072 N 
HETATM   39  C30 UNL     1      -5.319  20.224  23.753  1.00  0.00     0.242 C 
ATOM     40  H42 UNL     1      -3.721  20.954  24.768  1.00  0.00     0.277 HD
ATOM     41  H41 UNL     1      -3.665  19.406  24.597  1.00  0.00     0.277 HD
HETATM   42  C31 UNL     1      -5.875  18.858  23.340  1.00  0.00     0.103 C 
HETATM   43  S1  UNL     1      -5.449  17.714  24.716  1.00  0.00    -0.141 SA
ENDBRANCH  34  36
ENDBRANCH  32  34
ENDBRANCH  30  32
ENDBRANCH   5  30
BRANCH   5  44
HETATM   44  C32 UNL     1      -9.188  16.314  26.005  1.00  0.00     0.028 C 
HETATM   45  C33 UNL     1      -9.842  14.956  25.978  1.00  0.00     0.008 C 
HETATM   46  C34 UNL     1     -10.407  14.945  24.564  1.00  0.00     0.001 C 
HETATM   47  C35 UNL     1     -11.164  16.255  24.576  1.00  0.00     0.001 C 
HETATM   48  C36 UNL     1     -10.216  17.197  25.347  1.00  0.00     0.008 C 
ENDBRANCH   5  44
TORSDOF 17
ENDMDL
MODEL 5
REMARK VINA RESULT: -8.044594895      1.840      3.272
REMARK  17 active torsions:
REMARK  status: ('A' for Active; 'I' for Inactive)
REMARK    1  A    between atoms: C2_2  and  C3_3 
REMARK    2  A    between atoms: C3_3  and  C5_5 
REMARK    3  A    between atoms: C5_5  and  N1_6 
REMARK       I    between atoms: N1_6  and  C6_7 
REMARK    4  A    between atoms: C6_7  and  C7_9 
REMARK    5  A    between atoms: C7_9  and  C8_10 
REMARK    6  A    between atoms: C8_10  and  C9_11 
REMARK    7  A    between atoms: C8_10  and  C16_18 
REMARK    8  A    between atoms: C9_11  and  C10_12 
REMARK       I    between atoms: C16_18  and  N2_20 
REMARK    9  A    between atoms: N2_20  and  C17_21 
REMARK   10  A    between atoms: C17_21  and  C18_22 
REMARK   11  A    between atoms: C18_22  and  C19_23 
REMARK   12  A    between atoms: C19_23  and  C20_24 
REMARK   13  A    between atoms: C24_28  and  C25_29 
REMARK   14  A    between atoms: C24_28  and  C32_43 
REMARK   15  A    between atoms: C25_29  and  C26_31 
REMARK   16  A    between atoms: C26_31  and  N3_33 
REMARK   17  A    between atoms: N3_33  and  C28_35 
ROOT
HETATM    1  C20 UNL     1     -11.080  14.075  28.118  1.00  0.00     0.044 C 
HETATM    2  C21 UNL     1     -11.671  15.354  28.661  1.00  0.00     0.064 C 
HETATM    3  C22 UNL     1     -11.716  16.369  27.537  1.00  0.00     0.010 C 
HETATM    4  C23 UNL     1     -10.411  16.503  26.794  1.00  0.00     0.047 C 
HETATM    5  C24 UNL     1      -9.573  15.277  26.685  1.00  0.00     0.133 C 
HETATM    6  O4  UNL     1     -10.408  14.194  26.974  1.00  0.00    -0.337 OA
ENDROOT
BRANCH   1   7
HETATM    7  C19 UNL     1     -11.918  12.871  28.205  1.00  0.00     0.008 C 
BRANCH   7   8
HETATM    8  C18 UNL     1     -13.334  12.789  27.969  1.00  0.00     0.063 C 
BRANCH   8   9
HETATM    9  C17 UNL     1     -14.255  12.351  29.113  1.00  0.00     0.225 C 
BRANCH   9  10
HETATM   10  N2  UNL     1     -14.171  13.137  30.230  1.00  0.00    -0.415 NA
HETATM   11  C16 UNL     1     -14.087  13.940  31.367  1.00  0.00     0.291 C 
HETATM   12  O2  UNL     1     -14.874  14.873  31.584  1.00  0.00    -0.257 OA
BRANCH  11  13
HETATM   13  C8  UNL     1     -13.028  13.670  32.344  1.00  0.00     0.103 C 
BRANCH  13  14
HETATM   14  C7  UNL     1     -13.064  12.623  33.332  1.00  0.00     0.134 C 
BRANCH  14  15
HETATM   15  C6  UNL     1     -13.789  11.328  33.044  1.00  0.00     0.291 C 
HETATM   16  N1  UNL     1     -13.349  10.451  32.145  1.00  0.00    -0.387 NA
HETATM   17  O1  UNL     1     -14.828  11.199  33.755  1.00  0.00    -0.257 OA
BRANCH  16  18
HETATM   18  C5  UNL     1     -12.888   9.528  31.200  1.00  0.00     0.163 C 
BRANCH  18  19
HETATM   19  C3  UNL     1     -12.647   8.128  31.672  1.00  0.00     0.033 C 
HETATM   20  C4  UNL     1     -11.549   7.503  30.851  1.00  0.00     0.016 C 
BRANCH  19  21
HETATM   21  C2  UNL     1     -13.836   7.239  31.697  1.00  0.00     0.006 C 
HETATM   22  C1  UNL     1     -13.660   5.957  30.932  1.00  0.00     0.006 C 
ENDBRANCH  19  21
ENDBRANCH  18  19
ENDBRANCH  16  18
ENDBRANCH  14  15
ENDBRANCH  13  14
BRANCH  13  23
HETATM   23  C9  UNL     1     -12.644  15.033  32.987  1.00  0.00     0.020 C 
BRANCH  23  24
HETATM   24  C10 UNL     1     -11.165  15.016  33.275  1.00  0.00    -0.014 C 
HETATM   25  C11 UNL     1     -10.388  15.785  32.223  1.00  0.00     0.005 C 
HETATM   26  C12 UNL     1      -9.106  16.366  32.849  1.00  0.00     0.000 C 
HETATM   27  C13 UNL     1      -8.548  15.410  33.867  1.00  0.00     0.000 C 
HETATM   28  C14 UNL     1      -9.473  15.182  35.029  1.00  0.00     0.000 C 
HETATM   29  C15 UNL     1     -10.878  15.611  34.613  1.00  0.00     0.005 C 
ENDBRANCH  23  24
ENDBRANCH  13  23
ENDBRANCH  11  13
ENDBRANCH   9  10
ENDBRANCH   8   9
ENDBRANCH   7   8
ENDBRANCH   1   7
BRANCH   5  30
HETATM   30  C25 UNL     1      -8.353  15.346  27.493  1.00  0.00     0.183 C 
HETATM   31  O3  UNL     1      -7.759  14.258  27.697  1.00  0.00    -0.292 OA
BRANCH  30  32
HETATM   32  C26 UNL     1      -7.649  16.475  28.119  1.00  0.00     0.146 C 
HETATM   33  C27 UNL     1      -7.628  16.466  29.619  1.00  0.00     0.040 C 
BRANCH  32  34
HETATM   34  N3  UNL     1      -6.237  16.409  27.698  1.00  0.00    -0.397 N 
ATOM     35  H3  UNL     1      -5.602  15.691  28.045  1.00  0.00     0.155 HD
BRANCH  34  36
HETATM   36  C28 UNL     1      -5.822  17.397  26.791  1.00  0.00     0.165 C 
HETATM   37  C29 UNL     1      -6.298  18.794  26.975  1.00  0.00     0.267 C 
HETATM   38  N4  UNL     1      -5.225  19.768  26.745  1.00  0.00    -0.072 N 
HETATM   39  C30 UNL     1      -4.736  19.784  25.400  1.00  0.00     0.242 C 
ATOM     40  H42 UNL     1      -5.519  20.701  27.032  1.00  0.00     0.277 HD
ATOM     41  H41 UNL     1      -4.460  19.620  27.403  1.00  0.00     0.277 HD
HETATM   42  C31 UNL     1      -3.761  18.643  25.098  1.00  0.00     0.103 C 
HETATM   43  S1  UNL     1      -4.022  17.402  26.429  1.00  0.00    -0.141 SA
ENDBRANCH  34  36
ENDBRANCH  32  34
ENDBRANCH  30  32
ENDBRANCH   5  30
BRANCH   5  44
HETATM   44  C32 UNL     1      -9.227  15.060  25.199  1.00  0.00     0.028 C 
HETATM   45  C33 UNL     1     -10.503  15.220  24.413  1.00  0.00     0.008 C 
HETATM   46  C34 UNL     1      -9.943  15.426  23.012  1.00  0.00     0.001 C 
HETATM   47  C35 UNL     1      -8.963  16.546  23.283  1.00  0.00     0.001 C 
HETATM   48  C36 UNL     1      -8.345  16.145  24.639  1.00  0.00     0.008 C 
ENDBRANCH   5  44
TORSDOF 17
ENDMDL
