MODEL 1
REMARK VINA RESULT: -8.733791675      0.000      0.000
REMARK  18 active torsions:
REMARK  status: ('A' for Active; 'I' for Inactive)
REMARK    1  A    between atoms: C2_2  and  N1_3 
REMARK    2  A    between atoms: N2_6  and  C5_7 
REMARK    3  A    between atoms: C5_7  and  C6_8 
REMARK       I    between atoms: C6_8  and  N3_10 
REMARK    4  A    between atoms: N3_10  and  C7_12 
REMARK    5  A    between atoms: C7_12  and  C9_14 
REMARK    6  A    between atoms: C15_20  and  O2_21 
REMARK    7  A    between atoms: C17_26  and  N5_27 
REMARK    8  A    between atoms: N5_27  and  C18_29 
REMARK    9  A    between atoms: C18_29  and  C19_30 
REMARK   10  A    between atoms: C19_30  and  C20_31 
REMARK   11  A    between atoms: C20_31  and  C21_32 
REMARK   12  A    between atoms: C21_32  and  C22_33 
REMARK   13  A    between atoms: C22_33  and  C23_34 
REMARK   14  A    between atoms: C23_34  and  C24_35 
REMARK   15  A    between atoms: C24_35  and  C25_36 
REMARK   16  A    between atoms: C25_36  and  C26_37 
REMARK   17  A    between atoms: C26_37  and  C27_38 
REMARK   18  A    between atoms: C27_38  and  N6_39 
ROOT
HETATM    1  C9  UNL     1      -8.451  16.730  21.827  1.00  0.00     0.016 C 
HETATM    2  C10 UNL     1      -7.626  17.910  22.281  1.00  0.00     0.008 C 
HETATM    3  C11 UNL     1      -7.010  17.482  23.568  1.00  0.00     0.006 C 
HETATM    4  C12 UNL     1      -7.674  16.216  24.015  1.00  0.00    -0.001 C 
HETATM    5  C13 UNL     1      -8.177  16.236  25.426  1.00  0.00    -0.002 C 
HETATM    6  C14 UNL     1      -8.550  17.577  25.941  1.00  0.00     0.039 C 
HETATM    7  C15 UNL     1      -9.559  17.660  27.016  1.00  0.00     0.142 C 
HETATM    8  C16 UNL     1      -9.993  16.420  27.678  1.00  0.00     0.120 C 
HETATM    9  N4  UNL     1     -11.465  16.457  27.759  1.00  0.00    -0.372 N 
ATOM     10  H4  UNL     1     -11.959  17.302  27.469  1.00  0.00     0.161 HD
HETATM   11  C17 UNL     1     -12.133  15.460  28.183  1.00  0.00     0.073 C 
HETATM   12  C28 UNL     1     -11.380  14.240  28.554  1.00  0.00     0.076 C 
HETATM   13  C29 UNL     1     -10.331  13.939  27.520  1.00  0.00     0.019 C 
HETATM   14  C30 UNL     1      -9.504  15.125  27.129  1.00  0.00    -0.017 C 
HETATM   15  C31 UNL     1      -8.132  14.878  27.790  1.00  0.00     0.018 C 
HETATM   16  C32 UNL     1      -9.211  15.155  25.647  1.00  0.00     0.000 C 
HETATM   17  C33 UNL     1     -10.394  15.288  24.763  1.00  0.00     0.006 C 
HETATM   18  C34 UNL     1     -10.115  16.041  23.490  1.00  0.00     0.010 C 
HETATM   19  C35 UNL     1      -8.696  15.833  22.976  1.00  0.00    -0.035 C 
HETATM   20  C36 UNL     1      -8.611  14.380  22.595  1.00  0.00     0.016 C 
ENDROOT
BRANCH  11  21
HETATM   21  N5  UNL     1     -13.531  15.502  28.258  1.00  0.00    -0.380 N 
ATOM     22  H5  UNL     1     -13.919  16.444  28.300  1.00  0.00     0.160 HD
BRANCH  21  23
HETATM   23  C18 UNL     1     -14.499  14.474  28.286  1.00  0.00     0.121 C 
BRANCH  23  24
HETATM   24  C19 UNL     1     -14.679  13.736  29.560  1.00  0.00     0.020 C 
BRANCH  24  25
HETATM   25  C20 UNL     1     -14.501  14.538  30.791  1.00  0.00     0.002 C 
BRANCH  25  26
HETATM   26  C21 UNL     1     -13.372  14.044  31.680  1.00  0.00     0.000 C 
BRANCH  26  27
HETATM   27  C22 UNL     1     -13.217  14.948  32.890  1.00  0.00     0.000 C 
BRANCH  27  28
HETATM   28  C23 UNL     1     -11.785  15.295  33.154  1.00  0.00     0.000 C 
BRANCH  28  29
HETATM   29  C24 UNL     1     -10.947  15.390  31.899  1.00  0.00     0.000 C 
BRANCH  29  30
HETATM   30  C25 UNL     1      -9.514  15.025  32.154  1.00  0.00     0.002 C 
BRANCH  30  31
HETATM   31  C26 UNL     1      -8.542  15.756  31.289  1.00  0.00     0.027 C 
BRANCH  31  32
HETATM   32  C27 UNL     1      -8.148  17.114  31.779  1.00  0.00     0.229 C 
BRANCH  32  33
HETATM   33  N6  UNL     1      -8.162  18.000  30.625  1.00  0.00    -0.079 N 
ATOM     34  H63 UNL     1      -7.235  18.338  30.368  1.00  0.00     0.274 HD
ATOM     35  H62 UNL     1      -8.372  17.517  29.750  1.00  0.00     0.274 HD
ATOM     36  H61 UNL     1      -8.820  18.751  30.835  1.00  0.00     0.274 HD
ENDBRANCH  32  33
ENDBRANCH  31  32
ENDBRANCH  30  31
ENDBRANCH  29  30
ENDBRANCH  28  29
ENDBRANCH  27  28
ENDBRANCH  26  27
ENDBRANCH  25  26
ENDBRANCH  24  25
ENDBRANCH  23  24
ENDBRANCH  21  23
ENDBRANCH  11  21
BRANCH   7  37
HETATM   37  O2  UNL     1      -9.058  18.547  28.014  1.00  0.00    -0.393 OA
ATOM     38  H2  UNL     1      -9.772  18.747  28.607  1.00  0.00     0.210 HD
ENDBRANCH   7  37
BRANCH   1  39
HETATM   39  C7  UNL     1      -7.812  16.155  20.613  1.00  0.00     0.085 C 
HETATM   40  C8  UNL     1      -8.982  15.835  19.652  1.00  0.00     0.032 C 
BRANCH  39  41
HETATM   41  N3  UNL     1      -6.955  17.040  19.874  1.00  0.00    -0.352 N 
HETATM   42  C6  UNL     1      -5.607  16.720  19.538  1.00  0.00     0.256 C 
HETATM   43  O1  UNL     1      -5.162  15.611  19.906  1.00  0.00    -0.267 OA
ATOM     44  H3  UNL     1      -7.330  17.940  19.576  1.00  0.00     0.163 HD
BRANCH  42  45
HETATM   45  C5  UNL     1      -4.738  17.641  18.783  1.00  0.00     0.160 C 
BRANCH  45  46
HETATM   46  N2  UNL     1      -3.617  16.975  18.249  1.00  0.00    -0.382 N 
HETATM   47  C4  UNL     1      -3.655  16.724  16.859  1.00  0.00     0.141 C 
HETATM   48  C3  UNL     1      -2.684  15.620  16.448  1.00  0.00     0.136 C 
HETATM   49  N1  UNL     1      -1.396  15.886  16.995  1.00  0.00    -0.410 N 
HETATM   50  C38 UNL     1      -1.257  17.070  17.770  1.00  0.00     0.136 C 
HETATM   51  C37 UNL     1      -2.346  17.262  18.818  1.00  0.00     0.141 C 
BRANCH  49  52
HETATM   52  C2  UNL     1      -0.639  14.755  17.409  1.00  0.00     0.112 C 
HETATM   53  C1  UNL     1      -1.467  13.609  17.952  1.00  0.00     0.026 C 
ENDBRANCH  49  52
ENDBRANCH  45  46
ENDBRANCH  42  45
ENDBRANCH  39  41
ENDBRANCH   1  39
TORSDOF 18
ENDMDL
MODEL 2
REMARK VINA RESULT: -8.573105504      1.233      1.913
REMARK  18 active torsions:
REMARK  status: ('A' for Active; 'I' for Inactive)
REMARK    1  A    between atoms: C2_2  and  N1_3 
REMARK    2  A    between atoms: N2_6  and  C5_7 
REMARK    3  A    between atoms: C5_7  and  C6_8 
REMARK       I    between atoms: C6_8  and  N3_10 
REMARK    4  A    between atoms: N3_10  and  C7_12 
REMARK    5  A    between atoms: C7_12  and  C9_14 
REMARK    6  A    between atoms: C15_20  and  O2_21 
REMARK    7  A    between atoms: C17_26  and  N5_27 
REMARK    8  A    between atoms: N5_27  and  C18_29 
REMARK    9  A    between atoms: C18_29  and  C19_30 
REMARK   10  A    between atoms: C19_30  and  C20_31 
REMARK   11  A    between atoms: C20_31  and  C21_32 
REMARK   12  A    between atoms: C21_32  and  C22_33 
REMARK   13  A    between atoms: C22_33  and  C23_34 
REMARK   14  A    between atoms: C23_34  and  C24_35 
REMARK   15  A    between atoms: C24_35  and  C25_36 
REMARK   16  A    between atoms: C25_36  and  C26_37 
REMARK   17  A    between atoms: C26_37  and  C27_38 
REMARK   18  A    between atoms: C27_38  and  N6_39 
ROOT
HETATM    1  C9  UNL     1      -8.243  16.861  22.052  1.00  0.00     0.016 C 
HETATM    2  C10 UNL     1      -7.388  17.985  22.589  1.00  0.00     0.008 C 
HETATM    3  C11 UNL     1      -6.832  17.470  23.873  1.00  0.00     0.006 C 
HETATM    4  C12 UNL     1      -7.559  16.213  24.236  1.00  0.00    -0.001 C 
HETATM    5  C13 UNL     1      -8.108  16.185  25.630  1.00  0.00    -0.002 C 
HETATM    6  C14 UNL     1      -8.446  17.514  26.198  1.00  0.00     0.039 C 
HETATM    7  C15 UNL     1      -9.486  17.587  27.243  1.00  0.00     0.142 C 
HETATM    8  C16 UNL     1      -9.990  16.335  27.830  1.00  0.00     0.120 C 
HETATM    9  N4  UNL     1     -11.461  16.427  27.866  1.00  0.00    -0.372 N 
ATOM     10  H4  UNL     1     -11.912  17.304  27.602  1.00  0.00     0.161 HD
HETATM   11  C17 UNL     1     -12.182  15.439  28.219  1.00  0.00     0.073 C 
HETATM   12  C28 UNL     1     -11.489  14.173  28.554  1.00  0.00     0.076 C 
HETATM   13  C29 UNL     1     -10.419  13.880  27.539  1.00  0.00     0.019 C 
HETATM   14  C30 UNL     1      -9.534  15.049  27.233  1.00  0.00    -0.017 C 
HETATM   15  C31 UNL     1      -8.195  14.716  27.924  1.00  0.00     0.018 C 
HETATM   16  C32 UNL     1      -9.190  15.137  25.764  1.00  0.00     0.000 C 
HETATM   17  C33 UNL     1     -10.337  15.360  24.852  1.00  0.00     0.006 C 
HETATM   18  C34 UNL     1      -9.987  16.162  23.626  1.00  0.00     0.010 C 
HETATM   19  C35 UNL     1      -8.561  15.921  23.147  1.00  0.00    -0.035 C 
HETATM   20  C36 UNL     1      -8.519  14.486  22.699  1.00  0.00     0.016 C 
ENDROOT
BRANCH  11  21
HETATM   21  N5  UNL     1     -13.578  15.533  28.252  1.00  0.00    -0.380 N 
ATOM     22  H5  UNL     1     -13.932  16.489  28.270  1.00  0.00     0.160 HD
BRANCH  21  23
HETATM   23  C18 UNL     1     -14.584  14.543  28.265  1.00  0.00     0.121 C 
BRANCH  23  24
HETATM   24  C19 UNL     1     -14.802  13.803  29.533  1.00  0.00     0.020 C 
BRANCH  24  25
HETATM   25  C20 UNL     1     -14.538  14.570  30.771  1.00  0.00     0.002 C 
BRANCH  25  26
HETATM   26  C21 UNL     1     -13.464  13.952  31.651  1.00  0.00     0.000 C 
BRANCH  26  27
HETATM   27  C22 UNL     1     -13.032  14.934  32.725  1.00  0.00     0.000 C 
BRANCH  27  28
HETATM   28  C23 UNL     1     -11.546  14.959  32.899  1.00  0.00     0.000 C 
BRANCH  28  29
HETATM   29  C24 UNL     1     -10.820  15.673  31.781  1.00  0.00     0.000 C 
BRANCH  29  30
HETATM   30  C25 UNL     1      -9.488  15.047  31.488  1.00  0.00     0.002 C 
BRANCH  30  31
HETATM   31  C26 UNL     1      -8.332  15.785  32.079  1.00  0.00     0.027 C 
BRANCH  31  32
HETATM   32  C27 UNL     1      -8.203  17.213  31.652  1.00  0.00     0.229 C 
BRANCH  32  33
HETATM   33  N6  UNL     1      -7.397  17.220  30.441  1.00  0.00    -0.079 N 
ATOM     34  H63 UNL     1      -6.976  16.314  30.234  1.00  0.00     0.274 HD
ATOM     35  H62 UNL     1      -7.952  17.303  29.589  1.00  0.00     0.274 HD
ATOM     36  H61 UNL     1      -6.710  17.967  30.546  1.00  0.00     0.274 HD
ENDBRANCH  32  33
ENDBRANCH  31  32
ENDBRANCH  30  31
ENDBRANCH  29  30
ENDBRANCH  28  29
ENDBRANCH  27  28
ENDBRANCH  26  27
ENDBRANCH  25  26
ENDBRANCH  24  25
ENDBRANCH  23  24
ENDBRANCH  21  23
ENDBRANCH  11  21
BRANCH   7  37
HETATM   37  O2  UNL     1      -8.985  18.403  28.298  1.00  0.00    -0.393 OA
ATOM     38  H2  UNL     1      -9.410  18.129  29.103  1.00  0.00     0.210 HD
ENDBRANCH   7  37
BRANCH   1  39
HETATM   39  C7  UNL     1      -7.586  16.320  20.832  1.00  0.00     0.085 C 
HETATM   40  C8  UNL     1      -8.739  16.058  19.833  1.00  0.00     0.032 C 
BRANCH  39  41
HETATM   41  N3  UNL     1      -6.697  17.215  20.147  1.00  0.00    -0.352 N 
HETATM   42  C6  UNL     1      -5.476  16.792  19.544  1.00  0.00     0.256 C 
HETATM   43  O1  UNL     1      -5.178  15.579  19.619  1.00  0.00    -0.267 OA
ATOM     44  H3  UNL     1      -6.951  18.201  20.088  1.00  0.00     0.163 HD
BRANCH  42  45
HETATM   45  C5  UNL     1      -4.569  17.723  18.848  1.00  0.00     0.160 C 
BRANCH  45  46
HETATM   46  N2  UNL     1      -3.357  17.887  19.547  1.00  0.00    -0.382 N 
HETATM   47  C4  UNL     1      -3.461  17.945  20.955  1.00  0.00     0.141 C 
HETATM   48  C3  UNL     1      -2.233  18.585  21.597  1.00  0.00     0.136 C 
HETATM   49  N1  UNL     1      -1.052  17.973  21.087  1.00  0.00    -0.410 N 
HETATM   50  C38 UNL     1      -1.226  16.930  20.136  1.00  0.00     0.136 C 
HETATM   51  C37 UNL     1      -2.197  17.265  19.012  1.00  0.00     0.141 C 
BRANCH  49  52
HETATM   52  C2  UNL     1       0.074  18.824  20.908  1.00  0.00     0.112 C 
HETATM   53  C1  UNL     1      -0.262  20.216  20.414  1.00  0.00     0.026 C 
ENDBRANCH  49  52
ENDBRANCH  45  46
ENDBRANCH  42  45
ENDBRANCH  39  41
ENDBRANCH   1  39
TORSDOF 18
ENDMDL
MODEL 3
REMARK VINA RESULT: -8.545657985      4.269     13.515
REMARK  18 active torsions:
REMARK  status: ('A' for Active; 'I' for Inactive)
REMARK    1  A    between atoms: C2_2  and  N1_3 
REMARK    2  A    between atoms: N2_6  and  C5_7 
REMARK    3  A    between atoms: C5_7  and  C6_8 
REMARK       I    between atoms: C6_8  and  N3_10 
REMARK    4  A    between atoms: N3_10  and  C7_12 
REMARK    5  A    between atoms: C7_12  and  C9_14 
REMARK    6  A    between atoms: C15_20  and  O2_21 
REMARK    7  A    between atoms: C17_26  and  N5_27 
REMARK    8  A    between atoms: N5_27  and  C18_29 
REMARK    9  A    between atoms: C18_29  and  C19_30 
REMARK   10  A    between atoms: C19_30  and  C20_31 
REMARK   11  A    between atoms: C20_31  and  C21_32 
REMARK   12  A    between atoms: C21_32  and  C22_33 
REMARK   13  A    between atoms: C22_33  and  C23_34 
REMARK   14  A    between atoms: C23_34  and  C24_35 
REMARK   15  A    between atoms: C24_35  and  C25_36 
REMARK   16  A    between atoms: C25_36  and  C26_37 
REMARK   17  A    between atoms: C26_37  and  C27_38 
REMARK   18  A    between atoms: C27_38  and  N6_39 
ROOT
HETATM    1  C9  UNL     1      -9.942  15.972  33.527  1.00  0.00     0.016 C 
HETATM    2  C10 UNL     1     -11.373  15.807  33.073  1.00  0.00     0.008 C 
HETATM    3  C11 UNL     1     -11.291  15.037  31.800  1.00  0.00     0.006 C 
HETATM    4  C12 UNL     1      -9.861  15.004  31.356  1.00  0.00    -0.001 C 
HETATM    5  C13 UNL     1      -9.634  15.428  29.938  1.00  0.00    -0.002 C 
HETATM    6  C14 UNL     1     -10.630  16.390  29.403  1.00  0.00     0.039 C 
HETATM    7  C15 UNL     1     -10.217  17.295  28.312  1.00  0.00     0.142 C 
HETATM    8  C16 UNL     1      -8.919  17.068  27.656  1.00  0.00     0.120 C 
HETATM    9  N4  UNL     1      -8.245  18.375  27.553  1.00  0.00    -0.372 N 
ATOM     10  H4  UNL     1      -8.749  19.219  27.827  1.00  0.00     0.161 HD
HETATM   11  C17 UNL     1      -7.048  18.476  27.129  1.00  0.00     0.073 C 
HETATM   12  C28 UNL     1      -6.339  17.223  26.782  1.00  0.00     0.076 C 
HETATM   13  C29 UNL     1      -6.581  16.177  27.835  1.00  0.00     0.019 C 
HETATM   14  C30 UNL     1      -8.019  16.028  28.227  1.00  0.00    -0.017 C 
HETATM   15  C31 UNL     1      -8.460  14.695  27.589  1.00  0.00     0.018 C 
HETATM   16  C32 UNL     1      -8.188  15.812  29.713  1.00  0.00     0.000 C 
HETATM   17  C33 UNL     1      -7.739  16.930  30.577  1.00  0.00     0.006 C 
HETATM   18  C34 UNL     1      -8.536  17.071  31.846  1.00  0.00     0.010 C 
HETATM   19  C35 UNL     1      -9.035  15.735  32.384  1.00  0.00    -0.035 C 
HETATM   20  C36 UNL     1      -7.803  14.970  32.781  1.00  0.00     0.016 C 
ENDROOT
BRANCH  11  21
HETATM   21  N5  UNL     1      -6.414  19.720  27.033  1.00  0.00    -0.380 N 
ATOM     22  H5  UNL     1      -6.975  20.503  27.368  1.00  0.00     0.160 HD
BRANCH  21  23
HETATM   23  C18 UNL     1      -5.137  20.087  26.554  1.00  0.00     0.121 C 
BRANCH  23  24
HETATM   24  C19 UNL     1      -4.955  20.175  25.084  1.00  0.00     0.020 C 
BRANCH  24  25
HETATM   25  C20 UNL     1      -4.014  19.193  24.500  1.00  0.00     0.002 C 
BRANCH  25  26
HETATM   26  C21 UNL     1      -4.602  18.401  23.344  1.00  0.00     0.000 C 
BRANCH  26  27
HETATM   27  C22 UNL     1      -6.104  18.609  23.272  1.00  0.00     0.000 C 
BRANCH  27  28
HETATM   28  C23 UNL     1      -6.693  18.031  22.023  1.00  0.00     0.000 C 
BRANCH  28  29
HETATM   29  C24 UNL     1      -7.946  17.221  22.266  1.00  0.00     0.000 C 
BRANCH  29  30
HETATM   30  C25 UNL     1      -8.130  16.896  23.719  1.00  0.00     0.002 C 
BRANCH  30  31
HETATM   31  C26 UNL     1      -8.669  15.527  23.968  1.00  0.00     0.027 C 
BRANCH  31  32
HETATM   32  C27 UNL     1     -10.120  15.346  23.653  1.00  0.00     0.229 C 
BRANCH  32  33
HETATM   33  N6  UNL     1     -10.866  16.088  24.658  1.00  0.00    -0.079 N 
ATOM     34  H63 UNL     1     -10.378  16.923  24.984  1.00  0.00     0.274 HD
ATOM     35  H62 UNL     1     -11.690  16.557  24.281  1.00  0.00     0.274 HD
ATOM     36  H61 UNL     1     -11.085  15.433  25.408  1.00  0.00     0.274 HD
ENDBRANCH  32  33
ENDBRANCH  31  32
ENDBRANCH  30  31
ENDBRANCH  29  30
ENDBRANCH  28  29
ENDBRANCH  27  28
ENDBRANCH  26  27
ENDBRANCH  25  26
ENDBRANCH  24  25
ENDBRANCH  23  24
ENDBRANCH  21  23
ENDBRANCH  11  21
BRANCH   7  37
HETATM   37  O2  UNL     1     -11.233  17.263  27.313  1.00  0.00    -0.393 OA
ATOM     38  H2  UNL     1     -12.003  17.689  27.670  1.00  0.00     0.210 HD
ENDBRANCH   7  37
BRANCH   1  39
HETATM   39  C7  UNL     1      -9.747  15.158  34.757  1.00  0.00     0.085 C 
HETATM   40  C8  UNL     1      -8.815  16.002  35.658  1.00  0.00     0.032 C 
BRANCH  39  41
HETATM   41  N3  UNL     1     -10.921  14.926  35.550  1.00  0.00    -0.352 N 
HETATM   42  C6  UNL     1     -11.544  13.649  35.667  1.00  0.00     0.256 C 
HETATM   43  O1  UNL     1     -11.031  12.691  35.047  1.00  0.00    -0.267 OA
ATOM     44  H3  UNL     1     -11.329  15.713  36.054  1.00  0.00     0.163 HD
BRANCH  42  45
HETATM   45  C5  UNL     1     -12.752  13.426  36.481  1.00  0.00     0.160 C 
BRANCH  45  46
HETATM   46  N2  UNL     1     -12.790  12.120  37.008  1.00  0.00    -0.382 N 
HETATM   47  C4  UNL     1     -12.317  11.976  38.332  1.00  0.00     0.141 C 
HETATM   48  C3  UNL     1     -11.943  10.532  38.655  1.00  0.00     0.136 C 
HETATM   49  N1  UNL     1     -13.010   9.665  38.279  1.00  0.00    -0.410 N 
HETATM   50  C38 UNL     1     -14.166  10.272  37.715  1.00  0.00     0.136 C 
HETATM   51  C37 UNL     1     -13.867  11.280  36.613  1.00  0.00     0.141 C 
BRANCH  49  52
HETATM   52  C2  UNL     1     -12.639   8.391  37.766  1.00  0.00     0.112 C 
HETATM   53  C1  UNL     1     -11.347   8.383  36.976  1.00  0.00     0.026 C 
ENDBRANCH  49  52
ENDBRANCH  45  46
ENDBRANCH  42  45
ENDBRANCH  39  41
ENDBRANCH   1  39
TORSDOF 18
ENDMDL
MODEL 4
REMARK VINA RESULT: -8.537041747      4.219     13.498
REMARK  18 active torsions:
REMARK  status: ('A' for Active; 'I' for Inactive)
REMARK    1  A    between atoms: C2_2  and  N1_3 
REMARK    2  A    between atoms: N2_6  and  C5_7 
REMARK    3  A    between atoms: C5_7  and  C6_8 
REMARK       I    between atoms: C6_8  and  N3_10 
REMARK    4  A    between atoms: N3_10  and  C7_12 
REMARK    5  A    between atoms: C7_12  and  C9_14 
REMARK    6  A    between atoms: C15_20  and  O2_21 
REMARK    7  A    between atoms: C17_26  and  N5_27 
REMARK    8  A    between atoms: N5_27  and  C18_29 
REMARK    9  A    between atoms: C18_29  and  C19_30 
REMARK   10  A    between atoms: C19_30  and  C20_31 
REMARK   11  A    between atoms: C20_31  and  C21_32 
REMARK   12  A    between atoms: C21_32  and  C22_33 
REMARK   13  A    between atoms: C22_33  and  C23_34 
REMARK   14  A    between atoms: C23_34  and  C24_35 
REMARK   15  A    between atoms: C24_35  and  C25_36 
REMARK   16  A    between atoms: C25_36  and  C26_37 
REMARK   17  A    between atoms: C26_37  and  C27_38 
REMARK   18  A    between atoms: C27_38  and  N6_39 
ROOT
HETATM    1  C9  UNL     1      -9.958  16.045  33.450  1.00  0.00     0.016 C 
HETATM    2  C10 UNL     1     -11.377  15.849  32.969  1.00  0.00     0.008 C 
HETATM    3  C11 UNL     1     -11.254  15.058  31.711  1.00  0.00     0.006 C 
HETATM    4  C12 UNL     1      -9.814  15.040  31.300  1.00  0.00    -0.001 C 
HETATM    5  C13 UNL     1      -9.561  15.443  29.880  1.00  0.00    -0.002 C 
HETATM    6  C14 UNL     1     -10.560  16.380  29.306  1.00  0.00     0.039 C 
HETATM    7  C15 UNL     1     -10.137  17.272  28.209  1.00  0.00     0.142 C 
HETATM    8  C16 UNL     1      -8.821  17.054  27.586  1.00  0.00     0.120 C 
HETATM    9  N4  UNL     1      -8.165  18.369  27.474  1.00  0.00    -0.372 N 
ATOM     10  H4  UNL     1      -8.688  19.210  27.721  1.00  0.00     0.161 HD
HETATM   11  C17 UNL     1      -6.961  18.481  27.075  1.00  0.00     0.073 C 
HETATM   12  C28 UNL     1      -6.225  17.234  26.766  1.00  0.00     0.076 C 
HETATM   13  C29 UNL     1      -6.474  16.203  27.832  1.00  0.00     0.019 C 
HETATM   14  C30 UNL     1      -7.918  16.038  28.195  1.00  0.00    -0.017 C 
HETATM   15  C31 UNL     1      -8.324  14.687  27.571  1.00  0.00     0.018 C 
HETATM   16  C32 UNL     1      -8.118  15.846  29.680  1.00  0.00     0.000 C 
HETATM   17  C33 UNL     1      -7.705  16.986  30.533  1.00  0.00     0.006 C 
HETATM   18  C34 UNL     1      -8.532  17.136  31.782  1.00  0.00     0.010 C 
HETATM   19  C35 UNL     1      -9.023  15.803  32.333  1.00  0.00    -0.035 C 
HETATM   20  C36 UNL     1      -7.788  15.065  32.770  1.00  0.00     0.016 C 
ENDROOT
BRANCH  11  21
HETATM   21  N5  UNL     1      -6.344  19.733  26.970  1.00  0.00    -0.380 N 
ATOM     22  H5  UNL     1      -6.857  20.492  27.421  1.00  0.00     0.160 HD
BRANCH  21  23
HETATM   23  C18 UNL     1      -5.140  20.136  26.353  1.00  0.00     0.121 C 
BRANCH  23  24
HETATM   24  C19 UNL     1      -5.187  20.466  24.907  1.00  0.00     0.020 C 
BRANCH  24  25
HETATM   25  C20 UNL     1      -5.080  19.312  23.987  1.00  0.00     0.002 C 
BRANCH  25  26
HETATM   26  C21 UNL     1      -6.292  19.139  23.087  1.00  0.00     0.000 C 
BRANCH  26  27
HETATM   27  C22 UNL     1      -6.661  17.670  22.974  1.00  0.00     0.000 C 
BRANCH  27  28
HETATM   28  C23 UNL     1      -7.853  17.323  23.809  1.00  0.00     0.000 C 
BRANCH  28  29
HETATM   29  C24 UNL     1      -8.064  15.835  23.970  1.00  0.00     0.000 C 
BRANCH  29  30
HETATM   30  C25 UNL     1      -9.516  15.487  24.122  1.00  0.00     0.002 C 
BRANCH  30  31
HETATM   31  C26 UNL     1     -10.267  15.461  22.833  1.00  0.00     0.027 C 
BRANCH  31  32
HETATM   32  C27 UNL     1      -9.424  15.320  21.606  1.00  0.00     0.229 C 
BRANCH  32  33
HETATM   33  N6  UNL     1      -9.710  16.470  20.762  1.00  0.00    -0.079 N 
ATOM     34  H63 UNL     1     -10.488  17.034  21.103  1.00  0.00     0.274 HD
ATOM     35  H62 UNL     1      -8.992  17.193  20.812  1.00  0.00     0.274 HD
ATOM     36  H61 UNL     1      -9.856  16.115  19.816  1.00  0.00     0.274 HD
ENDBRANCH  32  33
ENDBRANCH  31  32
ENDBRANCH  30  31
ENDBRANCH  29  30
ENDBRANCH  28  29
ENDBRANCH  27  28
ENDBRANCH  26  27
ENDBRANCH  25  26
ENDBRANCH  24  25
ENDBRANCH  23  24
ENDBRANCH  21  23
ENDBRANCH  11  21
BRANCH   7  37
HETATM   37  O2  UNL     1     -11.129  17.206  27.187  1.00  0.00    -0.393 OA
ATOM     38  H2  UNL     1     -10.798  16.641  26.499  1.00  0.00     0.210 HD
ENDBRANCH   7  37
BRANCH   1  39
HETATM   39  C7  UNL     1      -9.779  15.256  34.699  1.00  0.00     0.085 C 
HETATM   40  C8  UNL     1      -8.876  16.128  35.603  1.00  0.00     0.032 C 
BRANCH  39  41
HETATM   41  N3  UNL     1     -10.966  15.023  35.472  1.00  0.00    -0.352 N 
HETATM   42  C6  UNL     1     -11.558  13.735  35.624  1.00  0.00     0.256 C 
HETATM   43  O1  UNL     1     -11.005  12.768  35.055  1.00  0.00    -0.267 OA
ATOM     44  H3  UNL     1     -11.407  15.818  35.935  1.00  0.00     0.163 HD
BRANCH  42  45
HETATM   45  C5  UNL     1     -12.780  13.511  36.417  1.00  0.00     0.160 C 
BRANCH  45  46
HETATM   46  N2  UNL     1     -12.774  12.245  37.034  1.00  0.00    -0.382 N 
HETATM   47  C4  UNL     1     -12.260  12.204  38.350  1.00  0.00     0.141 C 
HETATM   48  C3  UNL     1     -11.845  10.793  38.761  1.00  0.00     0.136 C 
HETATM   49  N1  UNL     1     -12.903   9.882  38.480  1.00  0.00    -0.410 N 
HETATM   50  C38 UNL     1     -14.088  10.425  37.910  1.00  0.00     0.136 C 
HETATM   51  C37 UNL     1     -13.843  11.358  36.732  1.00  0.00     0.141 C 
BRANCH  49  52
HETATM   52  C2  UNL     1     -12.519   8.583  38.046  1.00  0.00     0.112 C 
HETATM   53  C1  UNL     1     -11.401   8.566  37.025  1.00  0.00     0.026 C 
ENDBRANCH  49  52
ENDBRANCH  45  46
ENDBRANCH  42  45
ENDBRANCH  39  41
ENDBRANCH   1  39
TORSDOF 18
ENDMDL
MODEL 5
REMARK VINA RESULT: -8.506540643      1.812      2.490
REMARK  18 active torsions:
REMARK  status: ('A' for Active; 'I' for Inactive)
REMARK    1  A    between atoms: C2_2  and  N1_3 
REMARK    2  A    between atoms: N2_6  and  C5_7 
REMARK    3  A    between atoms: C5_7  and  C6_8 
REMARK       I    between atoms: C6_8  and  N3_10 
REMARK    4  A    between atoms: N3_10  and  C7_12 
REMARK    5  A    between atoms: C7_12  and  C9_14 
REMARK    6  A    between atoms: C15_20  and  O2_21 
REMARK    7  A    between atoms: C17_26  and  N5_27 
REMARK    8  A    between atoms: N5_27  and  C18_29 
REMARK    9  A    between atoms: C18_29  and  C19_30 
REMARK   10  A    between atoms: C19_30  and  C20_31 
REMARK   11  A    between atoms: C20_31  and  C21_32 
REMARK   12  A    between atoms: C21_32  and  C22_33 
REMARK   13  A    between atoms: C22_33  and  C23_34 
REMARK   14  A    between atoms: C23_34  and  C24_35 
REMARK   15  A    between atoms: C24_35  and  C25_36 
REMARK   16  A    between atoms: C25_36  and  C26_37 
REMARK   17  A    between atoms: C26_37  and  C27_38 
REMARK   18  A    between atoms: C27_38  and  N6_39 
ROOT
HETATM    1  C9  UNL     1      -7.860  17.145  22.393  1.00  0.00     0.016 C 
HETATM    2  C10 UNL     1      -7.018  18.208  23.057  1.00  0.00     0.008 C 
HETATM    3  C11 UNL     1      -6.557  17.597  24.336  1.00  0.00     0.006 C 
HETATM    4  C12 UNL     1      -7.333  16.337  24.567  1.00  0.00    -0.001 C 
HETATM    5  C13 UNL     1      -7.971  16.232  25.919  1.00  0.00    -0.002 C 
HETATM    6  C14 UNL     1      -8.317  17.529  26.552  1.00  0.00     0.039 C 
HETATM    7  C15 UNL     1      -9.421  17.559  27.532  1.00  0.00     0.142 C 
HETATM    8  C16 UNL     1      -9.988  16.284  28.001  1.00  0.00     0.120 C 
HETATM    9  N4  UNL     1     -11.456  16.411  27.950  1.00  0.00    -0.372 N 
ATOM     10  H4  UNL     1     -11.870  17.315  27.718  1.00  0.00     0.161 HD
HETATM   11  C17 UNL     1     -12.219  15.421  28.190  1.00  0.00     0.073 C 
HETATM   12  C28 UNL     1     -11.577  14.119  28.481  1.00  0.00     0.076 C 
HETATM   13  C29 UNL     1     -10.449  13.865  27.519  1.00  0.00     0.019 C 
HETATM   14  C30 UNL     1      -9.521  15.029  27.349  1.00  0.00    -0.017 C 
HETATM   15  C31 UNL     1      -8.238  14.617  28.099  1.00  0.00     0.018 C 
HETATM   16  C32 UNL     1      -9.082  15.205  25.914  1.00  0.00     0.000 C 
HETATM   17  C33 UNL     1     -10.163  15.517  24.948  1.00  0.00     0.006 C 
HETATM   18  C34 UNL     1      -9.717  16.388  23.803  1.00  0.00     0.010 C 
HETATM   19  C35 UNL     1      -8.268  16.143  23.400  1.00  0.00    -0.035 C 
HETATM   20  C36 UNL     1      -8.228  14.740  22.860  1.00  0.00     0.016 C 
ENDROOT
BRANCH  11  21
HETATM   21  N5  UNL     1     -13.612  15.548  28.141  1.00  0.00    -0.380 N 
ATOM     22  H5  UNL     1     -13.939  16.497  27.958  1.00  0.00     0.160 HD
BRANCH  21  23
HETATM   23  C18 UNL     1     -14.646  14.600  28.299  1.00  0.00     0.121 C 
BRANCH  23  24
HETATM   24  C19 UNL     1     -15.072  14.274  29.682  1.00  0.00     0.020 C 
BRANCH  24  25
HETATM   25  C20 UNL     1     -14.519  13.018  30.239  1.00  0.00     0.002 C 
BRANCH  25  26
HETATM   26  C21 UNL     1     -13.635  13.231  31.456  1.00  0.00     0.000 C 
BRANCH  26  27
HETATM   27  C22 UNL     1     -13.910  14.588  32.078  1.00  0.00     0.000 C 
BRANCH  27  28
HETATM   28  C23 UNL     1     -12.745  15.089  32.873  1.00  0.00     0.000 C 
BRANCH  28  29
HETATM   29  C24 UNL     1     -11.406  14.756  32.256  1.00  0.00     0.000 C 
BRANCH  29  30
HETATM   30  C25 UNL     1     -10.322  15.673  32.741  1.00  0.00     0.002 C 
BRANCH  30  31
HETATM   31  C26 UNL     1      -9.588  16.373  31.645  1.00  0.00     0.027 C 
BRANCH  31  32
HETATM   32  C27 UNL     1      -8.245  16.914  32.021  1.00  0.00     0.229 C 
BRANCH  32  33
HETATM   33  N6  UNL     1      -7.523  17.150  30.781  1.00  0.00    -0.079 N 
ATOM     34  H63 UNL     1      -7.561  18.121  30.473  1.00  0.00     0.274 HD
ATOM     35  H62 UNL     1      -6.510  17.087  30.887  1.00  0.00     0.274 HD
ATOM     36  H61 UNL     1      -7.895  16.496  30.092  1.00  0.00     0.274 HD
ENDBRANCH  32  33
ENDBRANCH  31  32
ENDBRANCH  30  31
ENDBRANCH  29  30
ENDBRANCH  28  29
ENDBRANCH  27  28
ENDBRANCH  26  27
ENDBRANCH  25  26
ENDBRANCH  24  25
ENDBRANCH  23  24
ENDBRANCH  21  23
ENDBRANCH  11  21
BRANCH   7  37
HETATM   37  O2  UNL     1      -8.972  18.291  28.670  1.00  0.00    -0.393 OA
ATOM     38  H2  UNL     1      -8.498  19.052  28.355  1.00  0.00     0.210 HD
ENDBRANCH   7  37
BRANCH   1  39
HETATM   39  C7  UNL     1      -7.138  16.668  21.183  1.00  0.00     0.085 C 
HETATM   40  C8  UNL     1      -8.097  16.948  20.002  1.00  0.00     0.032 C 
BRANCH  39  41
HETATM   41  N3  UNL     1      -5.929  17.371  20.855  1.00  0.00    -0.352 N 
HETATM   42  C6  UNL     1      -4.944  16.854  19.962  1.00  0.00     0.256 C 
HETATM   43  O1  UNL     1      -5.158  15.737  19.442  1.00  0.00    -0.267 OA
ATOM     44  H3  UNL     1      -5.767  18.282  21.282  1.00  0.00     0.163 HD
BRANCH  42  45
HETATM   45  C5  UNL     1      -3.705  17.584  19.638  1.00  0.00     0.160 C 
BRANCH  45  46
HETATM   46  N2  UNL     1      -2.873  17.721  20.767  1.00  0.00    -0.382 N 
HETATM   47  C4  UNL     1      -2.178  16.556  21.164  1.00  0.00     0.141 C 
HETATM   48  C3  UNL     1      -1.699  16.638  22.611  1.00  0.00     0.136 C 
HETATM   49  N1  UNL     1      -1.016  17.870  22.821  1.00  0.00    -0.410 N 
HETATM   50  C38 UNL     1      -0.903  18.743  21.704  1.00  0.00     0.136 C 
HETATM   51  C37 UNL     1      -2.206  18.963  20.949  1.00  0.00     0.141 C 
BRANCH  49  52
HETATM   52  C2  UNL     1      -1.187  18.478  24.096  1.00  0.00     0.112 C 
HETATM   53  C1  UNL     1      -2.520  18.193  24.755  1.00  0.00     0.026 C 
ENDBRANCH  49  52
ENDBRANCH  45  46
ENDBRANCH  42  45
ENDBRANCH  39  41
ENDBRANCH   1  39
TORSDOF 18
ENDMDL
