MODEL 1
REMARK VINA RESULT: -9.312397431      0.000      0.000
REMARK  12 active torsions:
REMARK  status: ('A' for Active; 'I' for Inactive)
REMARK    1  A    between atoms: C2_2  and  C3_3 
REMARK    2  A    between atoms: C3_3  and  C4_4 
REMARK    3  A    between atoms: C7_10  and  O2_11 
REMARK    4  A    between atoms: C9_13  and  C10_14 
REMARK       I    between atoms: C10_14  and  N2_16 
REMARK       I    between atoms: N2_16  and  C11_18 
REMARK    5  A    between atoms: C11_18  and  C12_20 
REMARK    6  A    between atoms: C12_20  and  C13_21 
REMARK    7  A    between atoms: C13_21  and  C14_22 
REMARK    8  A    between atoms: C14_22  and  C15_23 
REMARK    9  A    between atoms: C15_23  and  C16_24 
REMARK   10  A    between atoms: C16_24  and  N3_25 
REMARK       I    between atoms: N3_25  and  C18_27 
REMARK       I    between atoms: C18_27  and  N4_29 
REMARK   11  A    between atoms: N4_29  and  C19_31 
REMARK   12  A    between atoms: C23_37  and  N6_38 
ROOT
HETATM    1  C12 UNL     1       6.808  17.766   7.482  1.00  0.00     0.103 C 
ENDROOT
BRANCH   1   2
HETATM    2  C11 UNL     1       7.497  16.503   7.790  1.00  0.00     0.224 C 
HETATM    3  N2  UNL     1       8.682  16.181   7.010  1.00  0.00    -0.293 N 
HETATM    4  C10 UNL     1       9.409  15.007   7.238  1.00  0.00     0.263 C 
ATOM      5  H2  UNL     1       8.990  16.824   6.281  1.00  0.00     0.172 HD
HETATM    6  O3  UNL     1       8.917  14.220   8.126  1.00  0.00    -0.267 OA
HETATM    7  O4  UNL     1       7.150  15.673   8.673  1.00  0.00    -0.273 OA
BRANCH   4   8
HETATM    8  C9  UNL     1      10.618  14.683   6.531  1.00  0.00     0.089 A 
HETATM    9  C4  UNL     1      11.870  14.520   7.055  1.00  0.00    -0.033 A 
HETATM   10  C5  UNL     1      12.983  14.295   6.247  1.00  0.00     0.082 A 
HETATM   11  C6  UNL     1      12.852  14.226   4.893  1.00  0.00     0.247 A 
HETATM   12  O1  UNL     1      13.859  14.019   4.135  1.00  0.00    -0.268 OA
HETATM   13  N1  UNL     1      11.626  14.381   4.378  1.00  0.00    -0.303 N 
HETATM   14  C7  UNL     1      10.539  14.601   5.135  1.00  0.00     0.161 A 
ATOM     15  H1  UNL     1      11.512  14.330   3.367  1.00  0.00     0.171 HD
BRANCH   9  16
HETATM   16  C3  UNL     1      12.085  14.503   8.509  1.00  0.00     0.039 C 
BRANCH  16  17
HETATM   17  C2  UNL     1      12.163  13.044   8.967  1.00  0.00     0.000 C 
HETATM   18  C1  UNL     1      13.616  12.775   9.318  1.00  0.00     0.005 C 
ENDBRANCH  16  17
ENDBRANCH   9  16
BRANCH  14  19
HETATM   19  O2  UNL     1       9.332  14.742   4.484  1.00  0.00    -0.340 OA
HETATM   20  C8  UNL     1       9.222  15.728   3.446  1.00  0.00     0.211 C 
ENDBRANCH  14  19
ENDBRANCH   4   8
ENDBRANCH   1   2
BRANCH   1  21
HETATM   21  C13 UNL     1       5.321  17.559   7.442  1.00  0.00     0.009 C 
BRANCH  21  22
HETATM   22  C14 UNL     1       4.624  18.735   8.082  1.00  0.00     0.002 C 
BRANCH  22  23
HETATM   23  C15 UNL     1       5.382  19.269   9.235  1.00  0.00     0.020 C 
BRANCH  23  24
HETATM   24  C16 UNL     1       5.469  18.376  10.412  1.00  0.00     0.127 C 
BRANCH  24  25
HETATM   25  N3  UNL     1       5.672  19.051  11.643  1.00  0.00    -0.338 N 
HETATM   26  C17 UNL     1       5.403  20.523  11.564  1.00  0.00     0.154 C 
HETATM   27  C18 UNL     1       6.061  18.571  12.860  1.00  0.00     0.323 C 
HETATM   28  O5  UNL     1       6.080  19.403  13.846  1.00  0.00    -0.247 OA
HETATM   29  N4  UNL     1       6.448  17.232  13.100  1.00  0.00    -0.293 N 
ATOM     30  H4  UNL     1       5.772  16.597  13.523  1.00  0.00     0.172 HD
BRANCH  29  31
HETATM   31  C19 UNL     1       7.624  16.781  12.804  1.00  0.00     0.142 A 
HETATM   32  N5  UNL     1       7.949  16.402  11.558  1.00  0.00    -0.350 N 
HETATM   33  C20 UNL     1       9.180  15.938  11.299  1.00  0.00     0.090 A 
ATOM     34  H5  UNL     1       7.260  16.467  10.809  1.00  0.00     0.166 HD
HETATM   35  C21 UNL     1      10.160  15.823  12.257  1.00  0.00     0.020 A 
HETATM   36  C22 UNL     1       9.867  16.202  13.547  1.00  0.00     0.041 A 
HETATM   37  C23 UNL     1       8.578  16.681  13.791  1.00  0.00     0.146 A 
BRANCH  37  38
HETATM   38  N6  UNL     1       8.268  17.080  15.130  1.00  0.00    -0.112 N 
HETATM   39  O6  UNL     1       7.474  16.371  15.771  1.00  0.00    -0.532 OA
HETATM   40  O7  UNL     1       8.797  18.193  15.730  1.00  0.00    -0.532 OA
ENDBRANCH  37  38
ENDBRANCH  29  31
ENDBRANCH  24  25
ENDBRANCH  23  24
ENDBRANCH  22  23
ENDBRANCH  21  22
ENDBRANCH   1  21
TORSDOF 12
ENDMDL
MODEL 2
REMARK VINA RESULT: -9.131136684      1.254      1.424
REMARK  12 active torsions:
REMARK  status: ('A' for Active; 'I' for Inactive)
REMARK    1  A    between atoms: C2_2  and  C3_3 
REMARK    2  A    between atoms: C3_3  and  C4_4 
REMARK    3  A    between atoms: C7_10  and  O2_11 
REMARK    4  A    between atoms: C9_13  and  C10_14 
REMARK       I    between atoms: C10_14  and  N2_16 
REMARK       I    between atoms: N2_16  and  C11_18 
REMARK    5  A    between atoms: C11_18  and  C12_20 
REMARK    6  A    between atoms: C12_20  and  C13_21 
REMARK    7  A    between atoms: C13_21  and  C14_22 
REMARK    8  A    between atoms: C14_22  and  C15_23 
REMARK    9  A    between atoms: C15_23  and  C16_24 
REMARK   10  A    between atoms: C16_24  and  N3_25 
REMARK       I    between atoms: N3_25  and  C18_27 
REMARK       I    between atoms: C18_27  and  N4_29 
REMARK   11  A    between atoms: N4_29  and  C19_31 
REMARK   12  A    between atoms: C23_37  and  N6_38 
ROOT
HETATM    1  C12 UNL     1       7.728  16.754   7.641  1.00  0.00     0.103 C 
ENDROOT
BRANCH   1   2
HETATM    2  C11 UNL     1       9.193  16.848   7.729  1.00  0.00     0.224 C 
HETATM    3  N2  UNL     1       9.970  15.808   7.074  1.00  0.00    -0.293 N 
HETATM    4  C10 UNL     1      11.369  15.819   7.096  1.00  0.00     0.263 C 
ATOM      5  H2  UNL     1       9.485  15.053   6.588  1.00  0.00     0.172 HD
HETATM    6  O3  UNL     1      11.901  16.763   7.784  1.00  0.00    -0.267 OA
HETATM    7  O4  UNL     1       9.837  17.754   8.325  1.00  0.00    -0.273 OA
BRANCH   4   8
HETATM    8  C9  UNL     1      12.173  14.843   6.409  1.00  0.00     0.089 A 
HETATM    9  C4  UNL     1      13.272  14.185   6.887  1.00  0.00    -0.033 A 
HETATM   10  C5  UNL     1      14.021  13.325   6.088  1.00  0.00     0.082 A 
HETATM   11  C6  UNL     1      13.672  13.109   4.788  1.00  0.00     0.247 A 
HETATM   12  O1  UNL     1      14.345  12.324   4.038  1.00  0.00    -0.268 OA
HETATM   13  N1  UNL     1      12.594  13.750   4.320  1.00  0.00    -0.303 N 
HETATM   14  C7  UNL     1      11.858  14.584   5.070  1.00  0.00     0.161 A 
ATOM     15  H1  UNL     1      12.320  13.597   3.350  1.00  0.00     0.171 HD
BRANCH   9  16
HETATM   16  C3  UNL     1      13.669  14.303   8.298  1.00  0.00     0.039 C 
BRANCH  16  17
HETATM   17  C2  UNL     1      13.596  12.913   8.936  1.00  0.00     0.000 C 
HETATM   18  C1  UNL     1      12.216  12.793   9.560  1.00  0.00     0.005 C 
ENDBRANCH  16  17
ENDBRANCH   9  16
BRANCH  14  19
HETATM   19  O2  UNL     1      10.769  15.181   4.469  1.00  0.00    -0.340 OA
HETATM   20  C8  UNL     1      10.976  15.941   3.269  1.00  0.00     0.211 C 
ENDBRANCH  14  19
ENDBRANCH   4   8
ENDBRANCH   1   2
BRANCH   1  21
HETATM   21  C13 UNL     1       7.094  18.074   7.975  1.00  0.00     0.009 C 
BRANCH  21  22
HETATM   22  C14 UNL     1       5.595  17.973   7.830  1.00  0.00     0.002 C 
BRANCH  22  23
HETATM   23  C15 UNL     1       4.888  18.472   9.029  1.00  0.00     0.020 C 
BRANCH  23  24
HETATM   24  C16 UNL     1       5.241  17.807  10.304  1.00  0.00     0.127 C 
BRANCH  24  25
HETATM   25  N3  UNL     1       5.529  18.701  11.368  1.00  0.00    -0.338 N 
HETATM   26  C17 UNL     1       5.232  20.132  11.039  1.00  0.00     0.154 C 
HETATM   27  C18 UNL     1       6.020  18.456  12.618  1.00  0.00     0.323 C 
HETATM   28  O5  UNL     1       6.104  19.457  13.428  1.00  0.00    -0.247 OA
HETATM   29  N4  UNL     1       6.446  17.185  13.070  1.00  0.00    -0.293 N 
ATOM     30  H4  UNL     1       5.815  16.639  13.657  1.00  0.00     0.172 HD
BRANCH  29  31
HETATM   31  C19 UNL     1       7.602  16.687  12.770  1.00  0.00     0.142 A 
HETATM   32  N5  UNL     1       7.886  16.240  11.537  1.00  0.00    -0.350 N 
HETATM   33  C20 UNL     1       9.098  15.729  11.272  1.00  0.00     0.090 A 
ATOM     34  H5  UNL     1       7.181  16.288  10.801  1.00  0.00     0.166 HD
HETATM   35  C21 UNL     1      10.097  15.633  12.212  1.00  0.00     0.020 A 
HETATM   36  C22 UNL     1       9.846  16.082  13.488  1.00  0.00     0.041 A 
HETATM   37  C23 UNL     1       8.577  16.608  13.738  1.00  0.00     0.146 A 
BRANCH  37  38
HETATM   38  N6  UNL     1       8.310  17.080  15.062  1.00  0.00    -0.112 N 
HETATM   39  O6  UNL     1       7.441  16.483  15.720  1.00  0.00    -0.532 OA
HETATM   40  O7  UNL     1       8.958  18.145  15.632  1.00  0.00    -0.532 OA
ENDBRANCH  37  38
ENDBRANCH  29  31
ENDBRANCH  24  25
ENDBRANCH  23  24
ENDBRANCH  22  23
ENDBRANCH  21  22
ENDBRANCH   1  21
TORSDOF 12
ENDMDL
MODEL 3
REMARK VINA RESULT: -9.097517287      1.751      9.068
REMARK  12 active torsions:
REMARK  status: ('A' for Active; 'I' for Inactive)
REMARK    1  A    between atoms: C2_2  and  C3_3 
REMARK    2  A    between atoms: C3_3  and  C4_4 
REMARK    3  A    between atoms: C7_10  and  O2_11 
REMARK    4  A    between atoms: C9_13  and  C10_14 
REMARK       I    between atoms: C10_14  and  N2_16 
REMARK       I    between atoms: N2_16  and  C11_18 
REMARK    5  A    between atoms: C11_18  and  C12_20 
REMARK    6  A    between atoms: C12_20  and  C13_21 
REMARK    7  A    between atoms: C13_21  and  C14_22 
REMARK    8  A    between atoms: C14_22  and  C15_23 
REMARK    9  A    between atoms: C15_23  and  C16_24 
REMARK   10  A    between atoms: C16_24  and  N3_25 
REMARK       I    between atoms: N3_25  and  C18_27 
REMARK       I    between atoms: C18_27  and  N4_29 
REMARK   11  A    between atoms: N4_29  and  C19_31 
REMARK   12  A    between atoms: C23_37  and  N6_38 
ROOT
HETATM    1  C12 UNL     1      11.707  14.538   9.379  1.00  0.00     0.103 C 
ENDROOT
BRANCH   1   2
HETATM    2  C11 UNL     1      10.264  14.681   9.131  1.00  0.00     0.224 C 
HETATM    3  N2  UNL     1       9.510  15.527  10.042  1.00  0.00    -0.293 N 
HETATM    4  C10 UNL     1       8.135  15.731   9.880  1.00  0.00     0.263 C 
ATOM      5  H2  UNL     1       9.993  15.982  10.817  1.00  0.00     0.172 HD
HETATM    6  O3  UNL     1       7.590  15.071   8.924  1.00  0.00    -0.267 OA
HETATM    7  O4  UNL     1       9.621  14.133   8.194  1.00  0.00    -0.273 OA
BRANCH   4   8
HETATM    8  C9  UNL     1       7.367  16.607  10.724  1.00  0.00     0.089 A 
HETATM    9  C4  UNL     1       6.693  17.737  10.354  1.00  0.00    -0.033 A 
HETATM   10  C5  UNL     1       6.057  18.555  11.287  1.00  0.00     0.082 A 
HETATM   11  C6  UNL     1       6.087  18.243  12.613  1.00  0.00     0.247 A 
HETATM   12  O1  UNL     1       5.510  18.978  13.484  1.00  0.00    -0.268 OA
HETATM   13  N1  UNL     1       6.743  17.134  12.976  1.00  0.00    -0.303 N 
HETATM   14  C7  UNL     1       7.364  16.333  12.097  1.00  0.00     0.161 A 
ATOM     15  H1  UNL     1       6.772  16.887  13.964  1.00  0.00     0.171 HD
BRANCH   9  16
HETATM   16  C3  UNL     1       6.548  18.102   8.937  1.00  0.00     0.039 C 
BRANCH  16  17
HETATM   17  C2  UNL     1       5.366  19.066   8.807  1.00  0.00     0.000 C 
HETATM   18  C1  UNL     1       4.583  18.632   7.580  1.00  0.00     0.005 C 
ENDBRANCH  16  17
ENDBRANCH   9  16
BRANCH  14  19
HETATM   19  O2  UNL     1       8.004  15.218  12.598  1.00  0.00    -0.340 OA
HETATM   20  C8  UNL     1       8.463  15.243  13.958  1.00  0.00     0.211 C 
ENDBRANCH  14  19
ENDBRANCH   4   8
ENDBRANCH   1   2
BRANCH   1  21
HETATM   21  C13 UNL     1      12.080  13.089   9.500  1.00  0.00     0.009 C 
BRANCH  21  22
HETATM   22  C14 UNL     1      13.408  12.844   8.826  1.00  0.00     0.002 C 
BRANCH  22  23
HETATM   23  C15 UNL     1      13.253  12.132   7.539  1.00  0.00     0.020 C 
BRANCH  23  24
HETATM   24  C16 UNL     1      12.544  12.879   6.475  1.00  0.00     0.127 C 
BRANCH  24  25
HETATM   25  N3  UNL     1      13.371  13.760   5.731  1.00  0.00    -0.338 N 
HETATM   26  C17 UNL     1      14.835  13.535   5.958  1.00  0.00     0.154 C 
HETATM   27  C18 UNL     1      13.039  14.756   4.858  1.00  0.00     0.323 C 
HETATM   28  O5  UNL     1      14.006  15.351   4.245  1.00  0.00    -0.247 OA
HETATM   29  N4  UNL     1      11.714  15.173   4.594  1.00  0.00    -0.293 N 
ATOM     30  H4  UNL     1      11.256  14.837   3.747  1.00  0.00     0.172 HD
BRANCH  29  31
HETATM   31  C19 UNL     1      11.060  15.963   5.383  1.00  0.00     0.142 A 
HETATM   32  N5  UNL     1      11.660  16.632   6.380  1.00  0.00    -0.350 N 
HETATM   33  C20 UNL     1      10.941  17.439   7.174  1.00  0.00     0.090 A 
ATOM     34  H5  UNL     1      12.663  16.526   6.534  1.00  0.00     0.166 HD
HETATM   35  C21 UNL     1       9.587  17.631   7.025  1.00  0.00     0.020 A 
HETATM   36  C22 UNL     1       8.935  16.964   6.014  1.00  0.00     0.041 A 
HETATM   37  C23 UNL     1       9.705  16.130   5.202  1.00  0.00     0.146 A 
BRANCH  37  38
HETATM   38  N6  UNL     1       9.034  15.437   4.146  1.00  0.00    -0.112 N 
HETATM   39  O6  UNL     1       8.812  14.224   4.305  1.00  0.00    -0.532 OA
HETATM   40  O7  UNL     1       8.630  16.038   2.982  1.00  0.00    -0.532 OA
ENDBRANCH  37  38
ENDBRANCH  29  31
ENDBRANCH  24  25
ENDBRANCH  23  24
ENDBRANCH  22  23
ENDBRANCH  21  22
ENDBRANCH   1  21
TORSDOF 12
ENDMDL
MODEL 4
REMARK VINA RESULT: -8.845588258      1.931      8.771
REMARK  12 active torsions:
REMARK  status: ('A' for Active; 'I' for Inactive)
REMARK    1  A    between atoms: C2_2  and  C3_3 
REMARK    2  A    between atoms: C3_3  and  C4_4 
REMARK    3  A    between atoms: C7_10  and  O2_11 
REMARK    4  A    between atoms: C9_13  and  C10_14 
REMARK       I    between atoms: C10_14  and  N2_16 
REMARK       I    between atoms: N2_16  and  C11_18 
REMARK    5  A    between atoms: C11_18  and  C12_20 
REMARK    6  A    between atoms: C12_20  and  C13_21 
REMARK    7  A    between atoms: C13_21  and  C14_22 
REMARK    8  A    between atoms: C14_22  and  C15_23 
REMARK    9  A    between atoms: C15_23  and  C16_24 
REMARK   10  A    between atoms: C16_24  and  N3_25 
REMARK       I    between atoms: N3_25  and  C18_27 
REMARK       I    between atoms: C18_27  and  N4_29 
REMARK   11  A    between atoms: N4_29  and  C19_31 
REMARK   12  A    between atoms: C23_37  and  N6_38 
ROOT
HETATM    1  C12 UNL     1      11.789  14.449   9.169  1.00  0.00     0.103 C 
ENDROOT
BRANCH   1   2
HETATM    2  C11 UNL     1      10.332  14.650   9.154  1.00  0.00     0.224 C 
HETATM    3  N2  UNL     1       9.763  15.497  10.190  1.00  0.00    -0.293 N 
HETATM    4  C10 UNL     1       8.389  15.754  10.250  1.00  0.00     0.263 C 
ATOM      5  H2  UNL     1      10.379  15.914  10.889  1.00  0.00     0.172 HD
HETATM    6  O3  UNL     1       7.676  15.140   9.377  1.00  0.00    -0.267 OA
HETATM    7  O4  UNL     1       9.529  14.151   8.319  1.00  0.00    -0.273 OA
BRANCH   4   8
HETATM    8  C9  UNL     1       7.797  16.634  11.222  1.00  0.00     0.089 A 
HETATM    9  C4  UNL     1       7.610  16.396  12.555  1.00  0.00    -0.033 A 
HETATM   10  C5  UNL     1       6.939  17.298  13.378  1.00  0.00     0.082 A 
HETATM   11  C6  UNL     1       6.444  18.462  12.869  1.00  0.00     0.247 A 
HETATM   12  O1  UNL     1       5.826  19.303  13.606  1.00  0.00    -0.268 OA
HETATM   13  N1  UNL     1       6.629  18.698  11.564  1.00  0.00    -0.303 N 
HETATM   14  C7  UNL     1       7.271  17.844  10.752  1.00  0.00     0.161 A 
ATOM     15  H1  UNL     1       6.266  19.565  11.170  1.00  0.00     0.171 HD
BRANCH   9  16
HETATM   16  C3  UNL     1       8.180  15.202  13.197  1.00  0.00     0.039 C 
BRANCH  16  17
HETATM   17  C2  UNL     1       9.073  15.658  14.354  1.00  0.00     0.000 C 
HETATM   18  C1  UNL     1      10.435  15.967  13.757  1.00  0.00     0.005 C 
ENDBRANCH  16  17
ENDBRANCH   9  16
BRANCH  14  19
HETATM   19  O2  UNL     1       7.397  18.205   9.427  1.00  0.00    -0.340 OA
HETATM   20  C8  UNL     1       6.565  19.258   8.918  1.00  0.00     0.211 C 
ENDBRANCH  14  19
ENDBRANCH   4   8
ENDBRANCH   1   2
BRANCH   1  21
HETATM   21  C13 UNL     1      12.119  12.998   9.372  1.00  0.00     0.009 C 
BRANCH  21  22
HETATM   22  C14 UNL     1      13.490  12.703   8.815  1.00  0.00     0.002 C 
BRANCH  22  23
HETATM   23  C15 UNL     1      13.424  12.141   7.448  1.00  0.00     0.020 C 
BRANCH  23  24
HETATM   24  C16 UNL     1      12.650  12.935   6.467  1.00  0.00     0.127 C 
BRANCH  24  25
HETATM   25  N3  UNL     1      13.436  13.816   5.680  1.00  0.00    -0.338 N 
HETATM   26  C17 UNL     1      14.911  13.635   5.879  1.00  0.00     0.154 C 
HETATM   27  C18 UNL     1      13.060  14.777   4.787  1.00  0.00     0.323 C 
HETATM   28  O5  UNL     1      13.996  15.380   4.135  1.00  0.00    -0.247 OA
HETATM   29  N4  UNL     1      11.718  15.152   4.542  1.00  0.00    -0.293 N 
ATOM     30  H4  UNL     1      11.250  14.781   3.716  1.00  0.00     0.172 HD
BRANCH  29  31
HETATM   31  C19 UNL     1      11.061  15.948   5.323  1.00  0.00     0.142 A 
HETATM   32  N5  UNL     1      11.659  16.630   6.312  1.00  0.00    -0.350 N 
HETATM   33  C20 UNL     1      10.936  17.442   7.098  1.00  0.00     0.090 A 
ATOM     34  H5  UNL     1      12.663  16.532   6.465  1.00  0.00     0.166 HD
HETATM   35  C21 UNL     1       9.582  17.625   6.950  1.00  0.00     0.020 A 
HETATM   36  C22 UNL     1       8.931  16.944   5.947  1.00  0.00     0.041 A 
HETATM   37  C23 UNL     1       9.705  16.105   5.143  1.00  0.00     0.146 A 
BRANCH  37  38
HETATM   38  N6  UNL     1       9.035  15.396   4.096  1.00  0.00    -0.112 N 
HETATM   39  O6  UNL     1       8.822  14.184   4.268  1.00  0.00    -0.532 OA
HETATM   40  O7  UNL     1       8.624  15.983   2.927  1.00  0.00    -0.532 OA
ENDBRANCH  37  38
ENDBRANCH  29  31
ENDBRANCH  24  25
ENDBRANCH  23  24
ENDBRANCH  22  23
ENDBRANCH  21  22
ENDBRANCH   1  21
TORSDOF 12
ENDMDL
MODEL 5
REMARK VINA RESULT: -8.784886367      1.987      9.423
REMARK  12 active torsions:
REMARK  status: ('A' for Active; 'I' for Inactive)
REMARK    1  A    between atoms: C2_2  and  C3_3 
REMARK    2  A    between atoms: C3_3  and  C4_4 
REMARK    3  A    between atoms: C7_10  and  O2_11 
REMARK    4  A    between atoms: C9_13  and  C10_14 
REMARK       I    between atoms: C10_14  and  N2_16 
REMARK       I    between atoms: N2_16  and  C11_18 
REMARK    5  A    between atoms: C11_18  and  C12_20 
REMARK    6  A    between atoms: C12_20  and  C13_21 
REMARK    7  A    between atoms: C13_21  and  C14_22 
REMARK    8  A    between atoms: C14_22  and  C15_23 
REMARK    9  A    between atoms: C15_23  and  C16_24 
REMARK   10  A    between atoms: C16_24  and  N3_25 
REMARK       I    between atoms: N3_25  and  C18_27 
REMARK       I    between atoms: C18_27  and  N4_29 
REMARK   11  A    between atoms: N4_29  and  C19_31 
REMARK   12  A    between atoms: C23_37  and  N6_38 
ROOT
HETATM    1  C12 UNL     1      11.623  14.543   9.015  1.00  0.00     0.103 C 
ENDROOT
BRANCH   1   2
HETATM    2  C11 UNL     1      10.165  14.718   9.099  1.00  0.00     0.224 C 
HETATM    3  N2  UNL     1       9.654  15.583  10.150  1.00  0.00    -0.293 N 
HETATM    4  C10 UNL     1       8.283  15.817  10.302  1.00  0.00     0.263 C 
ATOM      5  H2  UNL     1      10.310  16.030  10.792  1.00  0.00     0.172 HD
HETATM    6  O3  UNL     1       7.522  15.166   9.499  1.00  0.00    -0.267 OA
HETATM    7  O4  UNL     1       9.315  14.181   8.337  1.00  0.00    -0.273 OA
BRANCH   4   8
HETATM    8  C9  UNL     1       7.744  16.713  11.290  1.00  0.00     0.089 A 
HETATM    9  C4  UNL     1       7.620  16.493  12.633  1.00  0.00    -0.033 A 
HETATM   10  C5  UNL     1       6.995  17.410  13.475  1.00  0.00     0.082 A 
HETATM   11  C6  UNL     1       6.486  18.571  12.977  1.00  0.00     0.247 A 
HETATM   12  O1  UNL     1       5.909  19.425  13.732  1.00  0.00    -0.268 OA
HETATM   13  N1  UNL     1       6.610  18.790  11.662  1.00  0.00    -0.303 N 
HETATM   14  C7  UNL     1       7.206  17.922  10.830  1.00  0.00     0.161 A 
ATOM     15  H1  UNL     1       6.235  19.655  11.275  1.00  0.00     0.171 HD
BRANCH   9  16
HETATM   16  C3  UNL     1       8.211  15.302  13.261  1.00  0.00     0.039 C 
BRANCH  16  17
HETATM   17  C2  UNL     1       9.167  15.765  14.364  1.00  0.00     0.000 C 
HETATM   18  C1  UNL     1      10.495  16.065  13.691  1.00  0.00     0.005 C 
ENDBRANCH  16  17
ENDBRANCH   9  16
BRANCH  14  19
HETATM   19  O2  UNL     1       7.272  18.266   9.496  1.00  0.00    -0.340 OA
HETATM   20  C8  UNL     1       6.318  19.207   8.981  1.00  0.00     0.211 C 
ENDBRANCH  14  19
ENDBRANCH   4   8
ENDBRANCH   1   2
BRANCH   1  21
HETATM   21  C13 UNL     1      11.988  13.091   9.132  1.00  0.00     0.009 C 
BRANCH  21  22
HETATM   22  C14 UNL     1      13.472  12.918   8.916  1.00  0.00     0.002 C 
BRANCH  22  23
HETATM   23  C15 UNL     1      13.779  12.412   7.561  1.00  0.00     0.020 C 
BRANCH  23  24
HETATM   24  C16 UNL     1      12.958  12.976   6.466  1.00  0.00     0.127 C 
BRANCH  24  25
HETATM   25  N3  UNL     1      13.622  13.954   5.682  1.00  0.00    -0.338 N 
HETATM   26  C17 UNL     1      14.853  14.504   6.337  1.00  0.00     0.154 C 
HETATM   27  C18 UNL     1      13.318  14.454   4.449  1.00  0.00     0.323 C 
HETATM   28  O5  UNL     1      14.154  15.284   3.923  1.00  0.00    -0.247 OA
HETATM   29  N4  UNL     1      12.148  14.125   3.725  1.00  0.00    -0.293 N 
ATOM     30  H4  UNL     1      12.214  13.435   2.977  1.00  0.00     0.172 HD
BRANCH  29  31
HETATM   31  C19 UNL     1      10.998  14.664   3.972  1.00  0.00     0.142 A 
HETATM   32  N5  UNL     1      10.363  14.483   5.141  1.00  0.00    -0.350 N 
HETATM   33  C20 UNL     1       9.171  15.060   5.352  1.00  0.00     0.090 A 
ATOM     34  H5  UNL     1      10.787  13.906   5.868  1.00  0.00     0.166 HD
HETATM   35  C21 UNL     1       8.540  15.850   4.420  1.00  0.00     0.020 A 
HETATM   36  C22 UNL     1       9.158  16.061   3.209  1.00  0.00     0.041 A 
HETATM   37  C23 UNL     1      10.398  15.449   3.014  1.00  0.00     0.146 A 
BRANCH  37  38
HETATM   38  N6  UNL     1      11.049  15.668   1.758  1.00  0.00    -0.112 N 
HETATM   39  O6  UNL     1      11.251  16.845   1.413  1.00  0.00    -0.532 OA
HETATM   40  O7  UNL     1      11.453  14.655   0.929  1.00  0.00    -0.532 OA
ENDBRANCH  37  38
ENDBRANCH  29  31
ENDBRANCH  24  25
ENDBRANCH  23  24
ENDBRANCH  22  23
ENDBRANCH  21  22
ENDBRANCH   1  21
TORSDOF 12
ENDMDL
