MODEL 1
REMARK VINA RESULT: -7.767335004      0.000      0.000
REMARK  17 active torsions:
REMARK  status: ('A' for Active; 'I' for Inactive)
REMARK    1  A    between atoms: C2_2  and  C3_3 
REMARK    2  A    between atoms: C3_3  and  C4_4 
REMARK    3  A    between atoms: C3_3  and  C7_7 
REMARK    4  A    between atoms: C7_7  and  C9_9 
REMARK    5  A    between atoms: C10_10  and  C11_11 
REMARK    6  A    between atoms: C11_11  and  C12_13 
REMARK    7  A    between atoms: C14_15  and  C15_16 
REMARK    8  A    between atoms: C24_27  and  C25_28 
REMARK    9  A    between atoms: C25_28  and  C26_30 
REMARK   10  A    between atoms: C26_30  and  N1_31 
REMARK   11  A    between atoms: C32_38  and  C33_39 
REMARK   12  A    between atoms: C33_39  and  O5_40 
REMARK   13  A    between atoms: O5_40  and  C34_41 
REMARK   14  A    between atoms: C34_41  and  C35_42 
REMARK   15  A    between atoms: C35_42  and  O6_43 
REMARK   16  A    between atoms: C36_45  and  O7_46 
REMARK   17  A    between atoms: C37_48  and  O8_49 
ROOT
HETATM    1  C12 UNL     1       5.346   0.231  14.608  1.00  0.00     0.074 C 
HETATM    2  C13 UNL     1       6.506  -0.789  14.661  1.00  0.00     0.035 C 
HETATM    3  C14 UNL     1       6.145  -0.901  13.206  1.00  0.00     0.065 A 
HETATM    4  C16 UNL     1       6.344  -0.034  12.113  1.00  0.00     0.019 A 
HETATM    5  C17 UNL     1       5.422   0.540  11.069  1.00  0.00     0.013 C 
HETATM    6  C18 UNL     1       5.409   2.032  11.293  1.00  0.00     0.005 C 
HETATM    7  C19 UNL     1       4.462   2.835  10.476  1.00  0.00     0.003 C 
HETATM    8  C20 UNL     1       3.902   3.976  11.334  1.00  0.00     0.007 C 
HETATM    9  C21 UNL     1       5.207   4.645  11.727  1.00  0.00     0.011 C 
HETATM   10  C22 UNL     1       6.298   4.070  10.852  1.00  0.00    -0.021 C 
HETATM   11  C23 UNL     1       7.401   4.983  10.560  1.00  0.00     0.017 C 
HETATM   12  C24 UNL     1       5.468   3.673   9.653  1.00  0.00     0.070 C 
HETATM   13  C32 UNL     1       6.749   2.673  11.325  1.00  0.00     0.021 C 
HETATM   14  C36 UNL     1       7.273   2.686  12.707  1.00  0.00     0.159 C 
HETATM   15  C37 UNL     1       7.176   1.484  13.558  1.00  0.00     0.158 C 
HETATM   16  C38 UNL     1       5.958   0.564  13.332  1.00  0.00     0.022 A 
ENDROOT
BRANCH   1  17
HETATM   17  C11 UNL     1       4.039  -0.345  14.783  1.00  0.00     0.154 C 
HETATM   18  O1  UNL     1       3.898  -1.393  15.507  1.00  0.00    -0.293 OA
BRANCH  17  19
HETATM   19  C10 UNL     1       2.824   0.194  14.205  1.00  0.00     0.047 C 
HETATM   20  C9  UNL     1       2.174  -0.391  13.194  1.00  0.00    -0.018 C 
BRANCH  20  21
HETATM   21  C7  UNL     1       0.936   0.231  12.633  1.00  0.00     0.012 C 
HETATM   22  C8  UNL     1       0.186   0.901  13.802  1.00  0.00     0.015 C 
BRANCH  21  23
HETATM   23  C3  UNL     1       1.263   1.305  11.608  1.00  0.00     0.018 C 
BRANCH  23  24
HETATM   24  C2  UNL     1       1.436   0.764  10.257  1.00  0.00    -0.031 C 
HETATM   25  C1  UNL     1       1.173  -0.299   9.730  1.00  0.00     0.007 C 
ENDBRANCH  23  24
BRANCH  23  26
HETATM   26  C4  UNL     1       0.405   2.493  11.738  1.00  0.00    -0.014 C 
HETATM   27  C5  UNL     1      -0.973   2.115  11.031  1.00  0.00     0.010 C 
HETATM   28  C6  UNL     1       0.776   3.731  10.955  1.00  0.00     0.010 C 
ENDBRANCH  23  26
ENDBRANCH  21  23
ENDBRANCH  20  21
ENDBRANCH  17  19
ENDBRANCH   1  17
BRANCH   3  29
HETATM   29  C15 UNL     1       5.516  -2.091  12.878  1.00  0.00     0.183 C 
HETATM   30  O2  UNL     1       4.653  -2.437  12.027  1.00  0.00    -0.647 OA
HETATM   31  O3  UNL     1       5.877  -3.260  13.634  1.00  0.00    -0.647 OA
ENDBRANCH   3  29
BRANCH  15  32
HETATM   32  O8  UNL     1       7.275   1.941  14.869  1.00  0.00    -0.392 OA
ATOM     33  H8  UNL     1       7.121   1.182  15.419  1.00  0.00     0.210 HD
ENDBRANCH  15  32
BRANCH  14  34
HETATM   34  O7  UNL     1       8.651   3.046  12.753  1.00  0.00    -0.392 OA
ATOM     35  H7  UNL     1       9.220   2.288  12.684  1.00  0.00     0.210 HD
ENDBRANCH  14  34
BRANCH  13  36
HETATM   36  C33 UNL     1       7.759   2.242  10.309  1.00  0.00     0.181 C 
BRANCH  36  37
HETATM   37  O5  UNL     1       7.135   1.585   9.213  1.00  0.00    -0.388 OA
BRANCH  37  38
HETATM   38  C34 UNL     1       7.881   1.688   8.076  1.00  0.00     0.193 C 
BRANCH  38  39
HETATM   39  C35 UNL     1       7.139   1.610   6.770  1.00  0.00     0.190 C 
BRANCH  39  40
HETATM   40  O6  UNL     1       7.241   0.295   6.289  1.00  0.00    -0.399 OA
ATOM     41  H6  UNL     1       6.387   0.031   5.970  1.00  0.00     0.209 HD
ENDBRANCH  39  40
ENDBRANCH  38  39
ENDBRANCH  37  38
ENDBRANCH  36  37
ENDBRANCH  13  36
BRANCH  12  42
HETATM   42  C25 UNL     1       4.805   4.800   8.974  1.00  0.00     0.160 C 
HETATM   43  O4  UNL     1       5.404   5.857   8.721  1.00  0.00    -0.296 OA
BRANCH  42  44
HETATM   44  C26 UNL     1       3.398   4.721   8.565  1.00  0.00     0.350 C 
BRANCH  44  45
HETATM   45  N1  UNL     1       3.205   4.706   7.157  1.00  0.00     0.098 N 
HETATM   46  C27 UNL     1       3.883   3.602   6.510  1.00  0.00     0.303 C 
HETATM   47  C28 UNL     1       4.005   4.036   5.039  1.00  0.00     0.302 C 
HETATM   48  N2  UNL     1       2.687   4.064   4.474  1.00  0.00     0.087 N 
HETATM   49  C29 UNL     1       2.497   5.109   3.488  1.00  0.00     0.310 C 
HETATM   50  C30 UNL     1       1.630   3.994   5.426  1.00  0.00     0.302 C 
HETATM   51  C31 UNL     1       1.888   4.861   6.650  1.00  0.00     0.303 C 
ENDBRANCH  44  45
ENDBRANCH  42  44
ENDBRANCH  12  42
TORSDOF 17
ENDMDL
MODEL 2
REMARK VINA RESULT: -7.670727830      5.389     10.461
REMARK  17 active torsions:
REMARK  status: ('A' for Active; 'I' for Inactive)
REMARK    1  A    between atoms: C2_2  and  C3_3 
REMARK    2  A    between atoms: C3_3  and  C4_4 
REMARK    3  A    between atoms: C3_3  and  C7_7 
REMARK    4  A    between atoms: C7_7  and  C9_9 
REMARK    5  A    between atoms: C10_10  and  C11_11 
REMARK    6  A    between atoms: C11_11  and  C12_13 
REMARK    7  A    between atoms: C14_15  and  C15_16 
REMARK    8  A    between atoms: C24_27  and  C25_28 
REMARK    9  A    between atoms: C25_28  and  C26_30 
REMARK   10  A    between atoms: C26_30  and  N1_31 
REMARK   11  A    between atoms: C32_38  and  C33_39 
REMARK   12  A    between atoms: C33_39  and  O5_40 
REMARK   13  A    between atoms: O5_40  and  C34_41 
REMARK   14  A    between atoms: C34_41  and  C35_42 
REMARK   15  A    between atoms: C35_42  and  O6_43 
REMARK   16  A    between atoms: C36_45  and  O7_46 
REMARK   17  A    between atoms: C37_48  and  O8_49 
ROOT
HETATM    1  C12 UNL     1       5.357   0.652  13.747  1.00  0.00     0.074 C 
HETATM    2  C13 UNL     1       3.833   0.850  13.914  1.00  0.00     0.035 C 
HETATM    3  C14 UNL     1       3.841  -0.540  13.341  1.00  0.00     0.065 A 
HETATM    4  C16 UNL     1       4.207  -1.786  13.888  1.00  0.00     0.019 A 
HETATM    5  C17 UNL     1       5.138  -2.880  13.434  1.00  0.00     0.013 C 
HETATM    6  C18 UNL     1       6.243  -2.946  14.459  1.00  0.00     0.005 C 
HETATM    7  C19 UNL     1       7.381  -3.860  14.177  1.00  0.00     0.003 C 
HETATM    8  C20 UNL     1       8.679  -3.213  14.673  1.00  0.00     0.007 C 
HETATM    9  C21 UNL     1       8.306  -3.011  16.131  1.00  0.00     0.011 C 
HETATM   10  C22 UNL     1       7.047  -3.806  16.396  1.00  0.00    -0.021 C 
HETATM   11  C23 UNL     1       6.913  -4.314  17.759  1.00  0.00     0.017 C 
HETATM   12  C24 UNL     1       7.201  -4.870  15.333  1.00  0.00     0.070 C 
HETATM   13  C32 UNL     1       5.786  -3.094  15.866  1.00  0.00     0.021 C 
HETATM   14  C36 UNL     1       5.588  -1.764  16.478  1.00  0.00     0.159 C 
HETATM   15  C37 UNL     1       4.884  -0.695  15.742  1.00  0.00     0.158 C 
HETATM   16  C38 UNL     1       5.035  -0.689  14.206  1.00  0.00     0.022 A 
ENDROOT
BRANCH   1  17
HETATM   17  C11 UNL     1       5.861   0.991  12.442  1.00  0.00     0.154 C 
HETATM   18  O1  UNL     1       6.669   0.194  11.846  1.00  0.00    -0.293 OA
BRANCH  17  19
HETATM   19  C10 UNL     1       5.501   2.191  11.712  1.00  0.00     0.047 C 
HETATM   20  C9  UNL     1       6.387   2.922  11.028  1.00  0.00    -0.018 C 
BRANCH  20  21
HETATM   21  C7  UNL     1       5.950   4.161  10.315  1.00  0.00     0.012 C 
HETATM   22  C8  UNL     1       4.656   4.653  10.994  1.00  0.00     0.015 C 
BRANCH  21  23
HETATM   23  C3  UNL     1       6.987   5.268  10.425  1.00  0.00     0.018 C 
BRANCH  23  24
HETATM   24  C2  UNL     1       7.815   5.150  11.628  1.00  0.00    -0.031 C 
HETATM   25  C1  UNL     1       8.585   5.894  12.204  1.00  0.00     0.007 C 
ENDBRANCH  23  24
BRANCH  23  26
HETATM   26  C4  UNL     1       7.695   5.510   9.159  1.00  0.00    -0.014 C 
HETATM   27  C5  UNL     1       6.597   5.365   8.012  1.00  0.00     0.010 C 
HETATM   28  C6  UNL     1       8.702   4.483   8.696  1.00  0.00     0.010 C 
ENDBRANCH  23  26
ENDBRANCH  21  23
ENDBRANCH  20  21
ENDBRANCH  17  19
ENDBRANCH   1  17
BRANCH   3  29
HETATM   29  C15 UNL     1       3.382  -0.607  12.036  1.00  0.00     0.183 C 
HETATM   30  O2  UNL     1       3.839  -1.065  10.954  1.00  0.00    -0.647 OA
HETATM   31  O3  UNL     1       2.084  -0.052  11.762  1.00  0.00    -0.647 OA
ENDBRANCH   3  29
BRANCH  15  32
HETATM   32  O8  UNL     1       5.289   0.498  16.332  1.00  0.00    -0.392 OA
ATOM     33  H8  UNL     1       4.640   1.144  16.078  1.00  0.00     0.210 HD
ENDBRANCH  15  32
BRANCH  14  34
HETATM   34  O7  UNL     1       4.904  -1.847  17.726  1.00  0.00    -0.392 OA
ATOM     35  H7  UNL     1       5.482  -1.680  18.461  1.00  0.00     0.210 HD
ENDBRANCH  14  34
BRANCH  13  36
HETATM   36  C33 UNL     1       4.671  -4.051  16.144  1.00  0.00     0.181 C 
BRANCH  36  37
HETATM   37  O5  UNL     1       3.562  -3.388  16.740  1.00  0.00    -0.388 OA
BRANCH  37  38
HETATM   38  C34 UNL     1       2.945  -4.175  17.668  1.00  0.00     0.193 C 
BRANCH  38  39
HETATM   39  C35 UNL     1       3.610  -5.485  17.992  1.00  0.00     0.190 C 
BRANCH  39  40
HETATM   40  O6  UNL     1       3.860  -5.515  19.373  1.00  0.00    -0.399 OA
ATOM     41  H6  UNL     1       3.090  -5.865  19.804  1.00  0.00     0.209 HD
ENDBRANCH  39  40
ENDBRANCH  38  39
ENDBRANCH  37  38
ENDBRANCH  36  37
ENDBRANCH  13  36
BRANCH  12  42
HETATM   42  C25 UNL     1       8.391  -5.723  15.496  1.00  0.00     0.160 C 
HETATM   43  O4  UNL     1       9.151  -5.976  14.548  1.00  0.00    -0.296 OA
BRANCH  42  44
HETATM   44  C26 UNL     1       8.731  -6.315  16.794  1.00  0.00     0.350 C 
BRANCH  44  45
HETATM   45  N1  UNL     1       8.125  -7.579  17.031  1.00  0.00     0.098 N 
HETATM   46  C27 UNL     1       9.081  -8.593  17.426  1.00  0.00     0.303 C 
HETATM   47  C28 UNL     1       8.372  -9.924  17.125  1.00  0.00     0.302 C 
HETATM   48  N2  UNL     1       7.271 -10.056  18.034  1.00  0.00     0.087 N 
HETATM   49  C29 UNL     1       6.119 -10.728  17.463  1.00  0.00     0.310 C 
HETATM   50  C30 UNL     1       6.932  -8.865  18.736  1.00  0.00     0.302 C 
HETATM   51  C31 UNL     1       6.962  -7.633  17.843  1.00  0.00     0.303 C 
ENDBRANCH  44  45
ENDBRANCH  42  44
ENDBRANCH  12  42
TORSDOF 17
ENDMDL
MODEL 3
REMARK VINA RESULT: -7.667058196      3.934      7.373
REMARK  17 active torsions:
REMARK  status: ('A' for Active; 'I' for Inactive)
REMARK    1  A    between atoms: C2_2  and  C3_3 
REMARK    2  A    between atoms: C3_3  and  C4_4 
REMARK    3  A    between atoms: C3_3  and  C7_7 
REMARK    4  A    between atoms: C7_7  and  C9_9 
REMARK    5  A    between atoms: C10_10  and  C11_11 
REMARK    6  A    between atoms: C11_11  and  C12_13 
REMARK    7  A    between atoms: C14_15  and  C15_16 
REMARK    8  A    between atoms: C24_27  and  C25_28 
REMARK    9  A    between atoms: C25_28  and  C26_30 
REMARK   10  A    between atoms: C26_30  and  N1_31 
REMARK   11  A    between atoms: C32_38  and  C33_39 
REMARK   12  A    between atoms: C33_39  and  O5_40 
REMARK   13  A    between atoms: O5_40  and  C34_41 
REMARK   14  A    between atoms: C34_41  and  C35_42 
REMARK   15  A    between atoms: C35_42  and  O6_43 
REMARK   16  A    between atoms: C36_45  and  O7_46 
REMARK   17  A    between atoms: C37_48  and  O8_49 
ROOT
HETATM    1  C12 UNL     1       5.981  -3.011  14.079  1.00  0.00     0.074 C 
HETATM    2  C13 UNL     1       4.551  -3.398  14.519  1.00  0.00     0.035 C 
HETATM    3  C14 UNL     1       4.662  -2.058  15.191  1.00  0.00     0.065 A 
HETATM    4  C16 UNL     1       4.648  -0.743  14.685  1.00  0.00     0.019 A 
HETATM    5  C17 UNL     1       5.574   0.435  14.843  1.00  0.00     0.013 C 
HETATM    6  C18 UNL     1       6.145   0.709  13.474  1.00  0.00     0.005 C 
HETATM    7  C19 UNL     1       7.204   1.747  13.373  1.00  0.00     0.003 C 
HETATM    8  C20 UNL     1       8.236   1.310  12.327  1.00  0.00     0.007 C 
HETATM    9  C21 UNL     1       7.315   1.152  11.130  1.00  0.00     0.011 C 
HETATM   10  C22 UNL     1       5.989   1.787  11.486  1.00  0.00    -0.021 C 
HETATM   11  C23 UNL     1       5.256   2.357  10.358  1.00  0.00     0.017 C 
HETATM   12  C24 UNL     1       6.467   2.795  12.507  1.00  0.00     0.070 C 
HETATM   13  C32 UNL     1       5.135   0.883  12.397  1.00  0.00     0.021 C 
HETATM   14  C36 UNL     1       4.829  -0.421  11.773  1.00  0.00     0.159 C 
HETATM   15  C37 UNL     1       4.599  -1.618  12.607  1.00  0.00     0.158 C 
HETATM   16  C38 UNL     1       5.371  -1.699  13.940  1.00  0.00     0.022 A 
ENDROOT
BRANCH   1  17
HETATM   17  C11 UNL     1       7.009  -3.361  15.024  1.00  0.00     0.154 C 
HETATM   18  O1  UNL     1       8.013  -2.581  15.187  1.00  0.00    -0.293 OA
BRANCH  17  19
HETATM   19  C10 UNL     1       6.992  -4.553  15.847  1.00  0.00     0.047 C 
HETATM   20  C9  UNL     1       7.261  -4.540  17.157  1.00  0.00    -0.018 C 
BRANCH  20  21
HETATM   21  C7  UNL     1       7.245  -5.812  17.942  1.00  0.00     0.012 C 
HETATM   22  C8  UNL     1       5.837  -6.424  17.799  1.00  0.00     0.015 C 
BRANCH  21  23
HETATM   23  C3  UNL     1       8.251  -6.818  17.403  1.00  0.00     0.018 C 
BRANCH  23  24
HETATM   24  C2  UNL     1       9.638  -6.419  17.653  1.00  0.00    -0.031 C 
HETATM   25  C1  UNL     1      10.596  -6.192  16.939  1.00  0.00     0.007 C 
ENDBRANCH  23  24
BRANCH  23  26
HETATM   26  C4  UNL     1       7.894  -8.207  17.730  1.00  0.00    -0.014 C 
HETATM   27  C5  UNL     1       8.364  -8.434  19.236  1.00  0.00     0.010 C 
HETATM   28  C6  UNL     1       8.651  -9.318  17.042  1.00  0.00     0.010 C 
ENDBRANCH  23  26
ENDBRANCH  21  23
ENDBRANCH  20  21
ENDBRANCH  17  19
ENDBRANCH   1  17
BRANCH   3  29
HETATM   29  C15 UNL     1       4.780  -2.133  16.569  1.00  0.00     0.183 C 
HETATM   30  O2  UNL     1       5.465  -1.531  17.439  1.00  0.00    -0.647 OA
HETATM   31  O3  UNL     1       3.960  -3.098  17.251  1.00  0.00    -0.647 OA
ENDBRANCH   3  29
BRANCH  15  32
HETATM   32  O8  UNL     1       4.835  -2.708  11.775  1.00  0.00    -0.392 OA
ATOM     33  H8  UNL     1       4.925  -3.457  12.352  1.00  0.00     0.210 HD
ENDBRANCH  15  32
BRANCH  14  34
HETATM   34  O7  UNL     1       3.686  -0.353  10.924  1.00  0.00    -0.392 OA
ATOM     35  H7  UNL     1       3.804  -0.855  10.127  1.00  0.00     0.210 HD
ENDBRANCH  14  34
BRANCH  13  36
HETATM   36  C33 UNL     1       3.919   1.699  12.700  1.00  0.00     0.181 C 
BRANCH  36  37
HETATM   37  O5  UNL     1       2.809   0.867  13.017  1.00  0.00    -0.388 OA
BRANCH  37  38
HETATM   38  C34 UNL     1       1.647   1.364  12.502  1.00  0.00     0.193 C 
BRANCH  38  39
HETATM   39  C35 UNL     1       1.744   2.655  11.738  1.00  0.00     0.190 C 
BRANCH  39  40
HETATM   40  O6  UNL     1       0.632   3.444  12.074  1.00  0.00    -0.399 OA
ATOM     41  H6  UNL     1       0.950   4.274  12.407  1.00  0.00     0.209 HD
ENDBRANCH  39  40
ENDBRANCH  38  39
ENDBRANCH  37  38
ENDBRANCH  36  37
ENDBRANCH  13  36
BRANCH  12  42
HETATM   42  C25 UNL     1       7.396   3.806  11.974  1.00  0.00     0.160 C 
HETATM   43  O4  UNL     1       8.518   3.991  12.470  1.00  0.00    -0.296 OA
BRANCH  42  44
HETATM   44  C26 UNL     1       7.032   4.644  10.827  1.00  0.00     0.350 C 
BRANCH  44  45
HETATM   45  N1  UNL     1       8.093   4.857   9.905  1.00  0.00     0.098 N 
HETATM   46  C27 UNL     1       7.731   4.513   8.546  1.00  0.00     0.303 C 
HETATM   47  C28 UNL     1       9.078   4.301   7.833  1.00  0.00     0.302 C 
HETATM   48  N2  UNL     1       9.739   5.571   7.748  1.00  0.00     0.087 N 
HETATM   49  C29 UNL     1      11.182   5.487   7.860  1.00  0.00     0.310 C 
HETATM   50  C30 UNL     1       9.173   6.593   8.563  1.00  0.00     0.302 C 
HETATM   51  C31 UNL     1       8.794   6.091   9.949  1.00  0.00     0.303 C 
ENDBRANCH  44  45
ENDBRANCH  42  44
ENDBRANCH  12  42
TORSDOF 17
ENDMDL
MODEL 4
REMARK VINA RESULT: -7.619093899      5.339     10.018
REMARK  17 active torsions:
REMARK  status: ('A' for Active; 'I' for Inactive)
REMARK    1  A    between atoms: C2_2  and  C3_3 
REMARK    2  A    between atoms: C3_3  and  C4_4 
REMARK    3  A    between atoms: C3_3  and  C7_7 
REMARK    4  A    between atoms: C7_7  and  C9_9 
REMARK    5  A    between atoms: C10_10  and  C11_11 
REMARK    6  A    between atoms: C11_11  and  C12_13 
REMARK    7  A    between atoms: C14_15  and  C15_16 
REMARK    8  A    between atoms: C24_27  and  C25_28 
REMARK    9  A    between atoms: C25_28  and  C26_30 
REMARK   10  A    between atoms: C26_30  and  N1_31 
REMARK   11  A    between atoms: C32_38  and  C33_39 
REMARK   12  A    between atoms: C33_39  and  O5_40 
REMARK   13  A    between atoms: O5_40  and  C34_41 
REMARK   14  A    between atoms: C34_41  and  C35_42 
REMARK   15  A    between atoms: C35_42  and  O6_43 
REMARK   16  A    between atoms: C36_45  and  O7_46 
REMARK   17  A    between atoms: C37_48  and  O8_49 
ROOT
HETATM    1  C12 UNL     1       5.129   0.662  13.737  1.00  0.00     0.074 C 
HETATM    2  C13 UNL     1       3.620   0.851  14.009  1.00  0.00     0.035 C 
HETATM    3  C14 UNL     1       3.599  -0.550  13.464  1.00  0.00     0.065 A 
HETATM    4  C16 UNL     1       4.014  -1.782  14.008  1.00  0.00     0.019 A 
HETATM    5  C17 UNL     1       4.920  -2.878  13.510  1.00  0.00     0.013 C 
HETATM    6  C18 UNL     1       6.095  -2.914  14.454  1.00  0.00     0.005 C 
HETATM    7  C19 UNL     1       7.218  -3.825  14.109  1.00  0.00     0.003 C 
HETATM    8  C20 UNL     1       8.543  -3.159  14.499  1.00  0.00     0.007 C 
HETATM    9  C21 UNL     1       8.273  -2.931  15.975  1.00  0.00     0.011 C 
HETATM   10  C22 UNL     1       7.043  -3.729  16.345  1.00  0.00    -0.021 C 
HETATM   11  C23 UNL     1       7.012  -4.211  17.724  1.00  0.00     0.017 C 
HETATM   12  C24 UNL     1       7.130  -4.814  15.295  1.00  0.00     0.070 C 
HETATM   13  C32 UNL     1       5.742  -3.038  15.892  1.00  0.00     0.021 C 
HETATM   14  C36 UNL     1       5.576  -1.697  16.491  1.00  0.00     0.159 C 
HETATM   15  C37 UNL     1       4.812  -0.648  15.786  1.00  0.00     0.158 C 
HETATM   16  C38 UNL     1       4.853  -0.672  14.244  1.00  0.00     0.022 A 
ENDROOT
BRANCH   1  17
HETATM   17  C11 UNL     1       5.536   0.978  12.392  1.00  0.00     0.154 C 
HETATM   18  O1  UNL     1       6.298   0.170  11.752  1.00  0.00    -0.293 OA
BRANCH  17  19
HETATM   19  C10 UNL     1       5.124   2.166  11.672  1.00  0.00     0.047 C 
HETATM   20  C9  UNL     1       3.941   2.760  11.858  1.00  0.00    -0.018 C 
BRANCH  20  21
HETATM   21  C7  UNL     1       3.573   3.972  11.065  1.00  0.00     0.012 C 
HETATM   22  C8  UNL     1       4.471   3.994   9.812  1.00  0.00     0.015 C 
BRANCH  21  23
HETATM   23  C3  UNL     1       2.125   3.922  10.603  1.00  0.00     0.018 C 
BRANCH  23  24
HETATM   24  C2  UNL     1       1.962   4.335   9.206  1.00  0.00    -0.031 C 
HETATM   25  C1  UNL     1       1.304   5.191   8.646  1.00  0.00     0.007 C 
ENDBRANCH  23  24
BRANCH  23  26
HETATM   26  C4  UNL     1       1.442   2.684  11.008  1.00  0.00    -0.014 C 
HETATM   27  C5  UNL     1       0.975   1.981   9.656  1.00  0.00     0.010 C 
HETATM   28  C6  UNL     1       0.115   2.801  11.721  1.00  0.00     0.010 C 
ENDBRANCH  23  26
ENDBRANCH  21  23
ENDBRANCH  20  21
ENDBRANCH  17  19
ENDBRANCH   1  17
BRANCH   3  29
HETATM   29  C15 UNL     1       3.049  -0.646  12.197  1.00  0.00     0.183 C 
HETATM   30  O2  UNL     1       3.502  -0.883  11.044  1.00  0.00    -0.647 OA
HETATM   31  O3  UNL     1       1.629  -0.449  12.075  1.00  0.00    -0.647 OA
ENDBRANCH   3  29
BRANCH  15  32
HETATM   32  O8  UNL     1       5.247   0.560  16.323  1.00  0.00    -0.392 OA
ATOM     33  H8  UNL     1       5.086   1.212  15.652  1.00  0.00     0.210 HD
ENDBRANCH  15  32
BRANCH  14  34
HETATM   34  O7  UNL     1       4.984  -1.760  17.786  1.00  0.00    -0.392 OA
ATOM     35  H7  UNL     1       5.082  -0.944  18.263  1.00  0.00     0.210 HD
ENDBRANCH  14  34
BRANCH  13  36
HETATM   36  C33 UNL     1       4.658  -3.997  16.269  1.00  0.00     0.181 C 
BRANCH  36  37
HETATM   37  O5  UNL     1       3.594  -3.332  16.940  1.00  0.00    -0.388 OA
BRANCH  37  38
HETATM   38  C34 UNL     1       2.953  -4.163  17.811  1.00  0.00     0.193 C 
BRANCH  38  39
HETATM   39  C35 UNL     1       3.610  -5.487  18.090  1.00  0.00     0.190 C 
BRANCH  39  40
HETATM   40  O6  UNL     1       3.967  -5.517  19.448  1.00  0.00    -0.399 OA
ATOM     41  H6  UNL     1       3.396  -6.136  19.888  1.00  0.00     0.209 HD
ENDBRANCH  39  40
ENDBRANCH  38  39
ENDBRANCH  37  38
ENDBRANCH  36  37
ENDBRANCH  13  36
BRANCH  12  42
HETATM   42  C25 UNL     1       8.337  -5.654  15.389  1.00  0.00     0.160 C 
HETATM   43  O4  UNL     1       9.040  -5.904  14.398  1.00  0.00    -0.296 OA
BRANCH  42  44
HETATM   44  C26 UNL     1       8.761  -6.237  16.666  1.00  0.00     0.350 C 
BRANCH  44  45
HETATM   45  N1  UNL     1       8.147  -7.483  16.966  1.00  0.00     0.098 N 
HETATM   46  C27 UNL     1       9.101  -8.491  17.381  1.00  0.00     0.303 C 
HETATM   47  C28 UNL     1       8.372  -9.826  17.148  1.00  0.00     0.302 C 
HETATM   48  N2  UNL     1       7.290  -9.910  18.085  1.00  0.00     0.087 N 
HETATM   49  C29 UNL     1       6.120 -10.591  17.565  1.00  0.00     0.310 C 
HETATM   50  C30 UNL     1       6.979  -8.688  18.746  1.00  0.00     0.302 C 
HETATM   51  C31 UNL     1       7.001  -7.493  17.804  1.00  0.00     0.303 C 
ENDBRANCH  44  45
ENDBRANCH  42  44
ENDBRANCH  12  42
TORSDOF 17
ENDMDL
MODEL 5
REMARK VINA RESULT: -7.492589932      3.856      7.091
REMARK  17 active torsions:
REMARK  status: ('A' for Active; 'I' for Inactive)
REMARK    1  A    between atoms: C2_2  and  C3_3 
REMARK    2  A    between atoms: C3_3  and  C4_4 
REMARK    3  A    between atoms: C3_3  and  C7_7 
REMARK    4  A    between atoms: C7_7  and  C9_9 
REMARK    5  A    between atoms: C10_10  and  C11_11 
REMARK    6  A    between atoms: C11_11  and  C12_13 
REMARK    7  A    between atoms: C14_15  and  C15_16 
REMARK    8  A    between atoms: C24_27  and  C25_28 
REMARK    9  A    between atoms: C25_28  and  C26_30 
REMARK   10  A    between atoms: C26_30  and  N1_31 
REMARK   11  A    between atoms: C32_38  and  C33_39 
REMARK   12  A    between atoms: C33_39  and  O5_40 
REMARK   13  A    between atoms: O5_40  and  C34_41 
REMARK   14  A    between atoms: C34_41  and  C35_42 
REMARK   15  A    between atoms: C35_42  and  O6_43 
REMARK   16  A    between atoms: C36_45  and  O7_46 
REMARK   17  A    between atoms: C37_48  and  O8_49 
ROOT
HETATM    1  C12 UNL     1       6.321  -3.042  13.958  1.00  0.00     0.074 C 
HETATM    2  C13 UNL     1       4.953  -3.544  14.473  1.00  0.00     0.035 C 
HETATM    3  C14 UNL     1       5.002  -2.210  15.163  1.00  0.00     0.065 A 
HETATM    4  C16 UNL     1       4.859  -0.892  14.685  1.00  0.00     0.019 A 
HETATM    5  C17 UNL     1       5.700   0.351  14.813  1.00  0.00     0.013 C 
HETATM    6  C18 UNL     1       6.166   0.689  13.419  1.00  0.00     0.005 C 
HETATM    7  C19 UNL     1       7.136   1.807  13.277  1.00  0.00     0.003 C 
HETATM    8  C20 UNL     1       8.135   1.467  12.164  1.00  0.00     0.007 C 
HETATM    9  C21 UNL     1       7.159   1.256  11.021  1.00  0.00     0.011 C 
HETATM   10  C22 UNL     1       5.812   1.782  11.465  1.00  0.00    -0.021 C 
HETATM   11  C23 UNL     1       4.972   2.311  10.393  1.00  0.00     0.017 C 
HETATM   12  C24 UNL     1       6.271   2.808  12.477  1.00  0.00     0.070 C 
HETATM   13  C32 UNL     1       5.084   0.801  12.406  1.00  0.00     0.021 C 
HETATM   14  C36 UNL     1       4.842  -0.513  11.775  1.00  0.00     0.159 C 
HETATM   15  C37 UNL     1       4.753  -1.736  12.596  1.00  0.00     0.158 C 
HETATM   16  C38 UNL     1       5.607  -1.778  13.881  1.00  0.00     0.022 A 
ENDROOT
BRANCH   1  17
HETATM   17  C11 UNL     1       7.427  -3.325  14.835  1.00  0.00     0.154 C 
HETATM   18  O1  UNL     1       8.200  -2.374  15.211  1.00  0.00    -0.293 OA
BRANCH  17  19
HETATM   19  C10 UNL     1       7.737  -4.640  15.361  1.00  0.00     0.047 C 
HETATM   20  C9  UNL     1       7.889  -4.887  16.666  1.00  0.00    -0.018 C 
BRANCH  20  21
HETATM   21  C7  UNL     1       8.228  -6.264  17.138  1.00  0.00     0.012 C 
HETATM   22  C8  UNL     1       9.159  -6.117  18.358  1.00  0.00     0.015 C 
BRANCH  21  23
HETATM   23  C3  UNL     1       6.989  -7.027  17.582  1.00  0.00     0.018 C 
BRANCH  23  24
HETATM   24  C2  UNL     1       7.287  -8.056  18.581  1.00  0.00    -0.031 C 
HETATM   25  C1  UNL     1       7.412  -9.265  18.541  1.00  0.00     0.007 C 
ENDBRANCH  23  24
BRANCH  23  26
HETATM   26  C4  UNL     1       5.850  -6.141  17.865  1.00  0.00    -0.014 C 
HETATM   27  C5  UNL     1       5.500  -6.362  19.405  1.00  0.00     0.010 C 
HETATM   28  C6  UNL     1       4.516  -6.471  17.238  1.00  0.00     0.010 C 
ENDBRANCH  23  26
ENDBRANCH  21  23
ENDBRANCH  20  21
ENDBRANCH  17  19
ENDBRANCH   1  17
BRANCH   3  29
HETATM   29  C15 UNL     1       5.207  -2.297  16.531  1.00  0.00     0.183 C 
HETATM   30  O2  UNL     1       6.057  -1.831  17.336  1.00  0.00    -0.647 OA
HETATM   31  O3  UNL     1       4.272  -3.083  17.291  1.00  0.00    -0.647 OA
ENDBRANCH   3  29
BRANCH  15  32
HETATM   32  O8  UNL     1       5.021  -2.792  11.731  1.00  0.00    -0.392 OA
ATOM     33  H8  UNL     1       4.296  -3.397  11.831  1.00  0.00     0.210 HD
ENDBRANCH  15  32
BRANCH  14  34
HETATM   34  O7  UNL     1       3.649  -0.520  10.995  1.00  0.00    -0.392 OA
ATOM     35  H7  UNL     1       3.717  -1.096  10.244  1.00  0.00     0.210 HD
ENDBRANCH  14  34
BRANCH  13  36
HETATM   36  C33 UNL     1       3.829   1.516  12.794  1.00  0.00     0.181 C 
BRANCH  36  37
HETATM   37  O5  UNL     1       2.749   0.605  12.956  1.00  0.00    -0.388 OA
BRANCH  37  38
HETATM   38  C34 UNL     1       1.546   1.211  12.740  1.00  0.00     0.193 C 
BRANCH  38  39
HETATM   39  C35 UNL     1       1.557   2.454  11.894  1.00  0.00     0.190 C 
BRANCH  39  40
HETATM   40  O6  UNL     1       0.453   3.241  12.262  1.00  0.00    -0.399 OA
ATOM     41  H6  UNL     1       0.371   3.946  11.632  1.00  0.00     0.209 HD
ENDBRANCH  39  40
ENDBRANCH  38  39
ENDBRANCH  37  38
ENDBRANCH  36  37
ENDBRANCH  13  36
BRANCH  12  42
HETATM   42  C25 UNL     1       7.087   3.896  11.911  1.00  0.00     0.160 C 
HETATM   43  O4  UNL     1       8.112   4.308  12.476  1.00  0.00    -0.296 OA
BRANCH  42  44
HETATM   44  C26 UNL     1       6.722   4.543  10.646  1.00  0.00     0.350 C 
BRANCH  44  45
HETATM   45  N1  UNL     1       7.813   4.732   9.756  1.00  0.00     0.098 N 
HETATM   46  C27 UNL     1       7.584   4.137   8.456  1.00  0.00     0.303 C 
HETATM   47  C28 UNL     1       8.991   3.978   7.855  1.00  0.00     0.302 C 
HETATM   48  N2  UNL     1       9.514   5.287   7.594  1.00  0.00     0.087 N 
HETATM   49  C29 UNL     1      10.947   5.394   7.789  1.00  0.00     0.310 C 
HETATM   50  C30 UNL     1       8.786   6.350   8.200  1.00  0.00     0.302 C 
HETATM   51  C31 UNL     1       8.371   6.032   9.630  1.00  0.00     0.303 C 
ENDBRANCH  44  45
ENDBRANCH  42  44
ENDBRANCH  12  42
TORSDOF 17
ENDMDL
