MODEL 1
REMARK VINA RESULT: -6.560121270      0.000      0.000
REMARK  13 active torsions:
REMARK  status: ('A' for Active; 'I' for Inactive)
REMARK    1  A    between atoms: C2_2  and  C3_3 
REMARK    2  A    between atoms: C3_3  and  C4_4 
REMARK    3  A    between atoms: C4_4  and  C5_5 
REMARK    4  A    between atoms: C6_8  and  C7_9 
REMARK    5  A    between atoms: C7_9  and  C8_10 
REMARK    6  A    between atoms: C10_14  and  N3_15 
REMARK    7  A    between atoms: C14_25  and  C15_26 
REMARK    8  A    between atoms: C15_26  and  C16_27 
REMARK    9  A    between atoms: C16_27  and  C17_28 
REMARK   10  A    between atoms: C23_37  and  C24_38 
REMARK   11  A    between atoms: C24_38  and  C25_39 
REMARK   12  A    between atoms: C27_46  and  C28_47 
REMARK   13  A    between atoms: C31_52  and  O5_53 
ROOT
HETATM    1  C5  UNL     1      13.736   6.162  14.620  1.00  0.00     0.153 C 
HETATM    2  N1  UNL     1      14.478   7.245  14.139  1.00  0.00    -0.390 N 
ATOM      3  H1  UNL     1      14.777   7.293  13.165  1.00  0.00     0.156 HD
HETATM    4  C6  UNL     1      14.803   8.293  15.076  1.00  0.00     0.186 C 
HETATM    5  N5  UNL     1      15.501   7.941  16.241  1.00  0.00    -0.333 N 
HETATM    6  C12 UNL     1      15.268   8.807  17.430  1.00  0.00     0.155 C 
HETATM    7  C13 UNL     1      16.375   6.867  16.499  1.00  0.00     0.243 C 
HETATM    8  O1  UNL     1      16.162   6.283  17.633  1.00  0.00    -0.271 OA
HETATM    9  C14 UNL     1      17.461   6.312  15.707  1.00  0.00     0.176 C 
HETATM   10  N6  UNL     1      18.256   7.279  14.984  1.00  0.00    -0.348 N 
ATOM     11  H6  UNL     1      18.473   8.157  15.455  1.00  0.00     0.163 HD
HETATM   12  C19 UNL     1      18.748   7.105  13.690  1.00  0.00     0.218 C 
HETATM   13  O2  UNL     1      19.973   7.414  13.439  1.00  0.00    -0.274 OA
HETATM   14  C20 UNL     1      18.000   6.584  12.518  1.00  0.00     0.103 C 
HETATM   15  C21 UNL     1      17.955   5.081  12.451  1.00  0.00     0.011 C 
HETATM   16  C22 UNL     1      18.114   4.550  11.055  1.00  0.00     0.026 C 
HETATM   17  C23 UNL     1      16.880   3.790  10.593  1.00  0.00     0.092 C 
HETATM   18  N8  UNL     1      16.084   4.705   9.814  1.00  0.00    -0.354 N 
ATOM     19  H8  UNL     1      16.533   5.032   8.959  1.00  0.00     0.162 HD
HETATM   20  C26 UNL     1      14.801   5.223  10.027  1.00  0.00     0.241 C 
HETATM   21  O4  UNL     1      14.026   5.134   9.013  1.00  0.00    -0.271 OA
HETATM   22  C27 UNL     1      14.199   5.851  11.212  1.00  0.00     0.179 C 
HETATM   23  N9  UNL     1      13.971   4.971  12.307  1.00  0.00    -0.359 N 
ATOM     24  H9  UNL     1      14.274   4.011  12.140  1.00  0.00     0.162 HD
HETATM   25  C31 UNL     1      13.411   5.180  13.563  1.00  0.00     0.135 C 
ENDROOT
BRANCH   4  26
HETATM   26  C7  UNL     1      15.323   9.419  14.231  1.00  0.00     0.086 C 
BRANCH  26  27
HETATM   27  C8  UNL     1      14.398  10.460  13.836  1.00  0.00    -0.035 A 
HETATM   28  C9  UNL     1      14.676  11.705  13.342  1.00  0.00     0.097 A 
HETATM   29  N2  UNL     1      13.529  12.385  13.092  1.00  0.00    -0.351 N 
HETATM   30  C10 UNL     1      12.527  11.582  13.423  1.00  0.00     0.119 A 
ATOM     31  H2  UNL     1      13.453  13.333  12.721  1.00  0.00     0.166 HD
HETATM   32  C11 UNL     1      13.020  10.381  13.888  1.00  0.00     0.058 A 
BRANCH  30  33
HETATM   33  N3  UNL     1      11.146  11.949  13.300  1.00  0.00    -0.292 N 
HETATM   34  N4  UNL     1      10.720  12.162  12.129  1.00  0.00    -0.344 N 
ATOM     35  H42 UNL     1      11.340  12.073  11.324  1.00  0.00     0.176 HD
ATOM     36  H41 UNL     1       9.738  12.422  12.042  1.00  0.00     0.176 HD
ATOM     37  H3  UNL     1      10.539  12.032  14.115  1.00  0.00     0.188 HD
ENDBRANCH  30  33
ENDBRANCH  26  27
ENDBRANCH   4  26
BRANCH   1  38
HETATM   38  C4  UNL     1      12.473   6.512  15.366  1.00  0.00     0.033 C 
BRANCH  38  39
HETATM   39  C3  UNL     1      12.415   6.161  16.793  1.00  0.00     0.002 C 
BRANCH  39  40
HETATM   40  C2  UNL     1      10.998   5.630  17.067  1.00  0.00    -0.004 C 
HETATM   41  C1  UNL     1      10.962   4.126  17.010  1.00  0.00     0.005 C 
ENDBRANCH  39  40
ENDBRANCH  38  39
ENDBRANCH   1  38
BRANCH  25  42
HETATM   42  O5  UNL     1      12.428   4.395  13.905  1.00  0.00    -0.348 OA
ATOM     43  H5  UNL     1      11.939   4.084  13.152  1.00  0.00     0.219 HD
ENDBRANCH  25  42
BRANCH   9  44
HETATM   44  C15 UNL     1      18.461   5.570  16.609  1.00  0.00     0.035 C 
BRANCH  44  45
HETATM   45  C16 UNL     1      18.640   4.142  16.259  1.00  0.00     0.002 C 
BRANCH  45  46
HETATM   46  C17 UNL     1      19.803   3.995  15.269  1.00  0.00    -0.004 C 
HETATM   47  C18 UNL     1      20.955   4.833  15.769  1.00  0.00     0.005 C 
ENDBRANCH  45  46
ENDBRANCH  44  45
ENDBRANCH   9  44
BRANCH  22  48
HETATM   48  C28 UNL     1      12.891   6.535  10.777  1.00  0.00     0.009 C 
HETATM   49  C29 UNL     1      12.748   7.928  11.285  1.00  0.00     0.012 C 
HETATM   50  C30 UNL     1      11.706   5.660  11.114  1.00  0.00     0.012 C 
ENDBRANCH  22  48
BRANCH  17  51
HETATM   51  C24 UNL     1      17.456   2.727   9.636  1.00  0.00     0.124 C 
BRANCH  51  52
HETATM   52  C25 UNL     1      16.410   1.776   9.260  1.00  0.00     0.233 C 
HETATM   53  N7  UNL     1      16.316   0.499   9.885  1.00  0.00    -0.062 NA
HETATM   54  O3  UNL     1      15.570   2.063   8.379  1.00  0.00    -0.277 OA
ENDBRANCH  51  52
ENDBRANCH  17  51
TORSDOF 13
ENDMDL
MODEL 2
REMARK VINA RESULT: -6.426186346      0.985      1.211
REMARK  13 active torsions:
REMARK  status: ('A' for Active; 'I' for Inactive)
REMARK    1  A    between atoms: C2_2  and  C3_3 
REMARK    2  A    between atoms: C3_3  and  C4_4 
REMARK    3  A    between atoms: C4_4  and  C5_5 
REMARK    4  A    between atoms: C6_8  and  C7_9 
REMARK    5  A    between atoms: C7_9  and  C8_10 
REMARK    6  A    between atoms: C10_14  and  N3_15 
REMARK    7  A    between atoms: C14_25  and  C15_26 
REMARK    8  A    between atoms: C15_26  and  C16_27 
REMARK    9  A    between atoms: C16_27  and  C17_28 
REMARK   10  A    between atoms: C23_37  and  C24_38 
REMARK   11  A    between atoms: C24_38  and  C25_39 
REMARK   12  A    between atoms: C27_46  and  C28_47 
REMARK   13  A    between atoms: C31_52  and  O5_53 
ROOT
HETATM    1  C5  UNL     1      13.761   6.352  15.011  1.00  0.00     0.153 C 
HETATM    2  N1  UNL     1      14.486   7.467  14.579  1.00  0.00    -0.390 N 
ATOM      3  H1  UNL     1      14.897   7.504  13.646  1.00  0.00     0.156 HD
HETATM    4  C6  UNL     1      14.630   8.563  15.505  1.00  0.00     0.186 C 
HETATM    5  N5  UNL     1      15.203   8.295  16.758  1.00  0.00    -0.333 N 
HETATM    6  C12 UNL     1      14.774   9.181  17.876  1.00  0.00     0.155 C 
HETATM    7  C13 UNL     1      16.105   7.291  17.159  1.00  0.00     0.243 C 
HETATM    8  O1  UNL     1      15.794   6.730  18.282  1.00  0.00    -0.271 OA
HETATM    9  C14 UNL     1      17.311   6.785  16.524  1.00  0.00     0.176 C 
HETATM   10  N6  UNL     1      18.125   7.780  15.861  1.00  0.00    -0.348 N 
ATOM     11  H6  UNL     1      18.228   8.684  16.320  1.00  0.00     0.163 HD
HETATM   12  C19 UNL     1      18.779   7.598  14.643  1.00  0.00     0.218 C 
HETATM   13  O2  UNL     1      20.004   7.980  14.526  1.00  0.00    -0.274 OA
HETATM   14  C20 UNL     1      18.212   6.992  13.412  1.00  0.00     0.103 C 
HETATM   15  C21 UNL     1      18.269   5.488  13.399  1.00  0.00     0.011 C 
HETATM   16  C22 UNL     1      18.628   4.925  12.054  1.00  0.00     0.026 C 
HETATM   17  C23 UNL     1      17.509   4.070  11.479  1.00  0.00     0.092 C 
HETATM   18  N8  UNL     1      16.756   4.905  10.576  1.00  0.00    -0.354 N 
ATOM     19  H8  UNL     1      17.285   5.234   9.768  1.00  0.00     0.162 HD
HETATM   20  C26 UNL     1      15.428   5.343  10.616  1.00  0.00     0.241 C 
HETATM   21  O4  UNL     1      14.788   5.170   9.521  1.00  0.00    -0.271 OA
HETATM   22  C27 UNL     1      14.649   5.966  11.696  1.00  0.00     0.179 C 
HETATM   23  N9  UNL     1      14.347   5.107  12.790  1.00  0.00    -0.359 N 
ATOM     24  H9  UNL     1      14.727   4.165  12.698  1.00  0.00     0.162 HD
HETATM   25  C31 UNL     1      13.628   5.318  13.962  1.00  0.00     0.135 C 
ENDROOT
BRANCH   4  26
HETATM   26  C7  UNL     1      15.176   9.695  14.684  1.00  0.00     0.086 C 
BRANCH  26  27
HETATM   27  C8  UNL     1      14.238  10.623  14.090  1.00  0.00    -0.035 A 
HETATM   28  C9  UNL     1      14.500  11.751  13.362  1.00  0.00     0.097 A 
HETATM   29  N2  UNL     1      13.344  12.351  12.981  1.00  0.00    -0.351 N 
HETATM   30  C10 UNL     1      12.353  11.612  13.461  1.00  0.00     0.119 A 
ATOM     31  H2  UNL     1      13.256  13.205  12.431  1.00  0.00     0.166 HD
HETATM   32  C11 UNL     1      12.861  10.534  14.154  1.00  0.00     0.058 A 
BRANCH  30  33
HETATM   33  N3  UNL     1      10.967  11.926  13.265  1.00  0.00    -0.292 N 
HETATM   34  N4  UNL     1      10.606  12.178  12.081  1.00  0.00    -0.344 N 
ATOM     35  H42 UNL     1      11.279  12.156  11.314  1.00  0.00     0.176 HD
ATOM     36  H41 UNL     1       9.621  12.401  11.941  1.00  0.00     0.176 HD
ATOM     37  H3  UNL     1      10.307  11.944  14.042  1.00  0.00     0.188 HD
ENDBRANCH  30  33
ENDBRANCH  26  27
ENDBRANCH   4  26
BRANCH   1  38
HETATM   38  C4  UNL     1      12.398   6.641  15.588  1.00  0.00     0.033 C 
BRANCH  38  39
HETATM   39  C3  UNL     1      12.190   6.331  17.010  1.00  0.00     0.002 C 
BRANCH  39  40
HETATM   40  C2  UNL     1      10.798   5.690  17.132  1.00  0.00    -0.004 C 
HETATM   41  C1  UNL     1      10.893   4.187  17.140  1.00  0.00     0.005 C 
ENDBRANCH  39  40
ENDBRANCH  38  39
ENDBRANCH   1  38
BRANCH  25  42
HETATM   42  O5  UNL     1      12.661   4.480  14.216  1.00  0.00    -0.348 OA
ATOM     43  H5  UNL     1      12.798   3.638  13.799  1.00  0.00     0.219 HD
ENDBRANCH  25  42
BRANCH   9  44
HETATM   44  C15 UNL     1      18.240   6.140  17.565  1.00  0.00     0.035 C 
BRANCH  44  45
HETATM   45  C16 UNL     1      18.538   4.714  17.303  1.00  0.00     0.002 C 
BRANCH  45  46
HETATM   46  C17 UNL     1      18.967   4.028  18.606  1.00  0.00    -0.004 C 
HETATM   47  C18 UNL     1      18.254   4.704  19.751  1.00  0.00     0.005 C 
ENDBRANCH  45  46
ENDBRANCH  44  45
ENDBRANCH   9  44
BRANCH  22  48
HETATM   48  C28 UNL     1      13.363   6.547  11.083  1.00  0.00     0.009 C 
HETATM   49  C29 UNL     1      13.063   7.936  11.529  1.00  0.00     0.012 C 
HETATM   50  C30 UNL     1      12.207   5.597  11.295  1.00  0.00     0.012 C 
ENDBRANCH  22  48
BRANCH  17  51
HETATM   51  C24 UNL     1      18.262   3.018  10.640  1.00  0.00     0.124 C 
BRANCH  51  52
HETATM   52  C25 UNL     1      17.386   2.502   9.588  1.00  0.00     0.233 C 
HETATM   53  N7  UNL     1      16.157   1.853   9.904  1.00  0.00    -0.062 NA
HETATM   54  O3  UNL     1      17.696   2.618   8.382  1.00  0.00    -0.277 OA
ENDBRANCH  51  52
ENDBRANCH  17  51
TORSDOF 13
ENDMDL
MODEL 3
REMARK VINA RESULT: -6.335399911      1.321      1.629
REMARK  13 active torsions:
REMARK  status: ('A' for Active; 'I' for Inactive)
REMARK    1  A    between atoms: C2_2  and  C3_3 
REMARK    2  A    between atoms: C3_3  and  C4_4 
REMARK    3  A    between atoms: C4_4  and  C5_5 
REMARK    4  A    between atoms: C6_8  and  C7_9 
REMARK    5  A    between atoms: C7_9  and  C8_10 
REMARK    6  A    between atoms: C10_14  and  N3_15 
REMARK    7  A    between atoms: C14_25  and  C15_26 
REMARK    8  A    between atoms: C15_26  and  C16_27 
REMARK    9  A    between atoms: C16_27  and  C17_28 
REMARK   10  A    between atoms: C23_37  and  C24_38 
REMARK   11  A    between atoms: C24_38  and  C25_39 
REMARK   12  A    between atoms: C27_46  and  C28_47 
REMARK   13  A    between atoms: C31_52  and  O5_53 
ROOT
HETATM    1  C5  UNL     1      13.380   6.321  15.317  1.00  0.00     0.153 C 
HETATM    2  N1  UNL     1      13.846   7.528  14.787  1.00  0.00    -0.390 N 
ATOM      3  H1  UNL     1      14.215   7.583  13.838  1.00  0.00     0.156 HD
HETATM    4  C6  UNL     1      13.783   8.692  15.636  1.00  0.00     0.186 C 
HETATM    5  N5  UNL     1      14.432   8.636  16.880  1.00  0.00    -0.333 N 
HETATM    6  C12 UNL     1      13.858   9.491  17.955  1.00  0.00     0.155 C 
HETATM    7  C13 UNL     1      15.533   7.869  17.307  1.00  0.00     0.243 C 
HETATM    8  O1  UNL     1      15.375   7.337  18.475  1.00  0.00    -0.271 OA
HETATM    9  C14 UNL     1      16.801   7.579  16.657  1.00  0.00     0.176 C 
HETATM   10  N6  UNL     1      17.373   8.671  15.901  1.00  0.00    -0.348 N 
ATOM     11  H6  UNL     1      17.298   9.607  16.297  1.00  0.00     0.163 HD
HETATM   12  C19 UNL     1      18.018   8.543  14.671  1.00  0.00     0.218 C 
HETATM   13  O2  UNL     1      19.133   9.159  14.482  1.00  0.00    -0.274 OA
HETATM   14  C20 UNL     1      17.558   7.749  13.504  1.00  0.00     0.103 C 
HETATM   15  C21 UNL     1      17.926   6.292  13.584  1.00  0.00     0.011 C 
HETATM   16  C22 UNL     1      18.358   5.722  12.263  1.00  0.00     0.026 C 
HETATM   17  C23 UNL     1      17.426   4.617  11.789  1.00  0.00     0.092 C 
HETATM   18  N8  UNL     1      16.494   5.214  10.866  1.00  0.00    -0.354 N 
ATOM     19  H8  UNL     1      16.920   5.588  10.019  1.00  0.00     0.162 HD
HETATM   20  C26 UNL     1      15.104   5.371  10.931  1.00  0.00     0.241 C 
HETATM   21  O4  UNL     1      14.486   4.995   9.876  1.00  0.00    -0.271 OA
HETATM   22  C27 UNL     1      14.242   5.895  12.000  1.00  0.00     0.179 C 
HETATM   23  N9  UNL     1      14.153   5.071  13.158  1.00  0.00    -0.359 N 
ATOM     24  H9  UNL     1      14.718   4.223  13.110  1.00  0.00     0.162 HD
HETATM   25  C31 UNL     1      13.437   5.211  14.342  1.00  0.00     0.135 C 
ENDROOT
BRANCH   4  26
HETATM   26  C7  UNL     1      14.061   9.852  14.724  1.00  0.00     0.086 C 
BRANCH  26  27
HETATM   27  C8  UNL     1      12.938  10.633  14.251  1.00  0.00    -0.035 A 
HETATM   28  C9  UNL     1      11.883  11.129  14.966  1.00  0.00     0.097 A 
HETATM   29  N2  UNL     1      11.036  11.811  14.154  1.00  0.00    -0.351 N 
HETATM   30  C10 UNL     1      11.547  11.752  12.931  1.00  0.00     0.119 A 
ATOM     31  H2  UNL     1      10.174  12.280  14.431  1.00  0.00     0.166 HD
HETATM   32  C11 UNL     1      12.722  11.033  12.946  1.00  0.00     0.058 A 
BRANCH  30  33
HETATM   33  N3  UNL     1      10.932  12.361  11.788  1.00  0.00    -0.292 N 
HETATM   34  N4  UNL     1       9.690  12.581  11.863  1.00  0.00    -0.344 N 
ATOM     35  H42 UNL     1       9.166  12.330  12.701  1.00  0.00     0.176 HD
ATOM     36  H41 UNL     1       9.253  13.014  11.050  1.00  0.00     0.176 HD
ATOM     37  H3  UNL     1      11.471  12.606  10.957  1.00  0.00     0.188 HD
ENDBRANCH  30  33
ENDBRANCH  26  27
ENDBRANCH   4  26
BRANCH   1  38
HETATM   38  C4  UNL     1      12.002   6.363  15.930  1.00  0.00     0.033 C 
BRANCH  38  39
HETATM   39  C3  UNL     1      11.890   6.031  17.357  1.00  0.00     0.002 C 
BRANCH  39  40
HETATM   40  C2  UNL     1      10.495   5.419  17.567  1.00  0.00    -0.004 C 
HETATM   41  C1  UNL     1      10.542   3.917  17.469  1.00  0.00     0.005 C 
ENDBRANCH  39  40
ENDBRANCH  38  39
ENDBRANCH   1  38
BRANCH  25  42
HETATM   42  O5  UNL     1      12.672   4.212  14.686  1.00  0.00    -0.348 OA
ATOM     43  H5  UNL     1      11.990   4.476  15.292  1.00  0.00     0.219 HD
ENDBRANCH  25  42
BRANCH   9  44
HETATM   44  C15 UNL     1      17.870   7.213  17.699  1.00  0.00     0.035 C 
BRANCH  44  45
HETATM   45  C16 UNL     1      18.861   6.222  17.219  1.00  0.00     0.002 C 
BRANCH  45  46
HETATM   46  C17 UNL     1      18.432   4.814  17.650  1.00  0.00    -0.004 C 
HETATM   47  C18 UNL     1      18.330   3.954  16.414  1.00  0.00     0.005 C 
ENDBRANCH  45  46
ENDBRANCH  44  45
ENDBRANCH   9  44
BRANCH  22  48
HETATM   48  C28 UNL     1      12.847   6.155  11.404  1.00  0.00     0.009 C 
HETATM   49  C29 UNL     1      12.247   7.450  11.830  1.00  0.00     0.012 C 
HETATM   50  C30 UNL     1      11.941   4.973  11.659  1.00  0.00     0.012 C 
ENDBRANCH  22  48
BRANCH  17  51
HETATM   51  C24 UNL     1      18.359   3.686  10.988  1.00  0.00     0.124 C 
BRANCH  51  52
HETATM   52  C25 UNL     1      17.585   2.940   9.996  1.00  0.00     0.233 C 
HETATM   53  N7  UNL     1      16.543   2.051  10.391  1.00  0.00    -0.062 NA
HETATM   54  O3  UNL     1      17.819   3.065   8.774  1.00  0.00    -0.277 OA
ENDBRANCH  51  52
ENDBRANCH  17  51
TORSDOF 13
ENDMDL
MODEL 4
REMARK VINA RESULT: -6.091906739      0.894      1.245
REMARK  13 active torsions:
REMARK  status: ('A' for Active; 'I' for Inactive)
REMARK    1  A    between atoms: C2_2  and  C3_3 
REMARK    2  A    between atoms: C3_3  and  C4_4 
REMARK    3  A    between atoms: C4_4  and  C5_5 
REMARK    4  A    between atoms: C6_8  and  C7_9 
REMARK    5  A    between atoms: C7_9  and  C8_10 
REMARK    6  A    between atoms: C10_14  and  N3_15 
REMARK    7  A    between atoms: C14_25  and  C15_26 
REMARK    8  A    between atoms: C15_26  and  C16_27 
REMARK    9  A    between atoms: C16_27  and  C17_28 
REMARK   10  A    between atoms: C23_37  and  C24_38 
REMARK   11  A    between atoms: C24_38  and  C25_39 
REMARK   12  A    between atoms: C27_46  and  C28_47 
REMARK   13  A    between atoms: C31_52  and  O5_53 
ROOT
HETATM    1  C5  UNL     1      13.917   6.139  14.331  1.00  0.00     0.153 C 
HETATM    2  N1  UNL     1      14.762   7.153  13.869  1.00  0.00    -0.390 N 
ATOM      3  H1  UNL     1      15.085   7.175  12.902  1.00  0.00     0.156 HD
HETATM    4  C6  UNL     1      15.159   8.166  14.816  1.00  0.00     0.186 C 
HETATM    5  N5  UNL     1      15.798   7.751  15.995  1.00  0.00    -0.333 N 
HETATM    6  C12 UNL     1      15.617   8.633  17.182  1.00  0.00     0.155 C 
HETATM    7  C13 UNL     1      16.567   6.603  16.268  1.00  0.00     0.243 C 
HETATM    8  O1  UNL     1      16.279   6.039  17.395  1.00  0.00    -0.271 OA
HETATM    9  C14 UNL     1      17.617   5.955  15.497  1.00  0.00     0.176 C 
HETATM   10  N6  UNL     1      18.509   6.849  14.794  1.00  0.00    -0.348 N 
ATOM     11  H6  UNL     1      18.793   7.703  15.273  1.00  0.00     0.163 HD
HETATM   12  C19 UNL     1      19.011   6.634  13.510  1.00  0.00     0.218 C 
HETATM   13  O2  UNL     1      20.264   6.833  13.286  1.00  0.00    -0.274 OA
HETATM   14  C20 UNL     1      18.245   6.184  12.320  1.00  0.00     0.103 C 
HETATM   15  C21 UNL     1      18.068   4.691  12.247  1.00  0.00     0.011 C 
HETATM   16  C22 UNL     1      18.209   4.150  10.853  1.00  0.00     0.026 C 
HETATM   17  C23 UNL     1      16.922   3.504  10.362  1.00  0.00     0.092 C 
HETATM   18  N8  UNL     1      16.227   4.488   9.570  1.00  0.00    -0.354 N 
ATOM     19  H8  UNL     1      16.722   4.775   8.726  1.00  0.00     0.162 HD
HETATM   20  C26 UNL     1      14.991   5.117   9.758  1.00  0.00     0.241 C 
HETATM   21  O4  UNL     1      14.234   5.099   8.727  1.00  0.00    -0.271 OA
HETATM   22  C27 UNL     1      14.423   5.794  10.932  1.00  0.00     0.179 C 
HETATM   23  N9  UNL     1      14.094   4.936  12.019  1.00  0.00    -0.359 N 
ATOM     24  H9  UNL     1      14.314   3.953  11.855  1.00  0.00     0.162 HD
HETATM   25  C31 UNL     1      13.528   5.192  13.263  1.00  0.00     0.135 C 
ENDROOT
BRANCH   4  26
HETATM   26  C7  UNL     1      15.795   9.243  13.987  1.00  0.00     0.086 C 
BRANCH  26  27
HETATM   27  C8  UNL     1      15.012  10.421  13.680  1.00  0.00    -0.035 A 
HETATM   28  C9  UNL     1      15.439  11.710  13.513  1.00  0.00     0.097 A 
HETATM   29  N2  UNL     1      14.393  12.526  13.233  1.00  0.00    -0.351 N 
HETATM   30  C10 UNL     1      13.306  11.766  13.222  1.00  0.00     0.119 A 
ATOM     31  H2  UNL     1      14.434  13.532  13.065  1.00  0.00     0.166 HD
HETATM   32  C11 UNL     1      13.644  10.457  13.493  1.00  0.00     0.058 A 
BRANCH  30  33
HETATM   33  N3  UNL     1      11.990  12.272  12.960  1.00  0.00    -0.292 N 
HETATM   34  N4  UNL     1      11.229  11.538  12.269  1.00  0.00    -0.344 N 
ATOM     35  H42 UNL     1      11.549  10.633  11.922  1.00  0.00     0.176 HD
ATOM     36  H41 UNL     1      10.293  11.898  12.083  1.00  0.00     0.176 HD
ATOM     37  H3  UNL     1      11.685  13.179  13.314  1.00  0.00     0.188 HD
ENDBRANCH  30  33
ENDBRANCH  26  27
ENDBRANCH   4  26
BRANCH   1  38
HETATM   38  C4  UNL     1      12.674   6.599  15.052  1.00  0.00     0.033 C 
BRANCH  38  39
HETATM   39  C3  UNL     1      12.531   6.209  16.462  1.00  0.00     0.002 C 
BRANCH  39  40
HETATM   40  C2  UNL     1      12.092   7.465  17.233  1.00  0.00    -0.004 C 
HETATM   41  C1  UNL     1      11.827   8.612  16.293  1.00  0.00     0.005 C 
ENDBRANCH  39  40
ENDBRANCH  38  39
ENDBRANCH   1  38
BRANCH  25  42
HETATM   42  O5  UNL     1      12.472   4.497  13.582  1.00  0.00    -0.348 OA
ATOM     43  H5  UNL     1      12.569   3.577  13.367  1.00  0.00     0.219 HD
ENDBRANCH  25  42
BRANCH   9  44
HETATM   44  C15 UNL     1      18.527   5.126  16.417  1.00  0.00     0.035 C 
BRANCH  44  45
HETATM   45  C16 UNL     1      19.634   5.901  17.022  1.00  0.00     0.002 C 
BRANCH  45  46
HETATM   46  C17 UNL     1      20.010   5.291  18.378  1.00  0.00    -0.004 C 
HETATM   47  C18 UNL     1      19.006   4.212  18.704  1.00  0.00     0.005 C 
ENDBRANCH  45  46
ENDBRANCH  44  45
ENDBRANCH   9  44
BRANCH  22  48
HETATM   48  C28 UNL     1      13.190   6.593  10.472  1.00  0.00     0.009 C 
HETATM   49  C29 UNL     1      13.132   7.973  11.027  1.00  0.00     0.012 C 
HETATM   50  C30 UNL     1      11.929   5.801  10.728  1.00  0.00     0.012 C 
ENDBRANCH  22  48
BRANCH  17  51
HETATM   51  C24 UNL     1      17.422   2.396   9.414  1.00  0.00     0.124 C 
BRANCH  51  52
HETATM   52  C25 UNL     1      16.339   1.452   9.136  1.00  0.00     0.233 C 
HETATM   53  N7  UNL     1      16.546   0.318   8.298  1.00  0.00    -0.062 NA
HETATM   54  O3  UNL     1      15.202   1.618   9.630  1.00  0.00    -0.277 OA
ENDBRANCH  51  52
ENDBRANCH  17  51
TORSDOF 13
ENDMDL
MODEL 5
REMARK VINA RESULT: -6.018278542      1.609      1.968
REMARK  13 active torsions:
REMARK  status: ('A' for Active; 'I' for Inactive)
REMARK    1  A    between atoms: C2_2  and  C3_3 
REMARK    2  A    between atoms: C3_3  and  C4_4 
REMARK    3  A    between atoms: C4_4  and  C5_5 
REMARK    4  A    between atoms: C6_8  and  C7_9 
REMARK    5  A    between atoms: C7_9  and  C8_10 
REMARK    6  A    between atoms: C10_14  and  N3_15 
REMARK    7  A    between atoms: C14_25  and  C15_26 
REMARK    8  A    between atoms: C15_26  and  C16_27 
REMARK    9  A    between atoms: C16_27  and  C17_28 
REMARK   10  A    between atoms: C23_37  and  C24_38 
REMARK   11  A    between atoms: C24_38  and  C25_39 
REMARK   12  A    between atoms: C27_46  and  C28_47 
REMARK   13  A    between atoms: C31_52  and  O5_53 
ROOT
HETATM    1  C5  UNL     1      13.234   6.140  15.433  1.00  0.00     0.153 C 
HETATM    2  N1  UNL     1      13.774   7.367  15.033  1.00  0.00    -0.390 N 
ATOM      3  H1  UNL     1      14.191   7.487  14.110  1.00  0.00     0.156 HD
HETATM    4  C6  UNL     1      13.718   8.455  15.978  1.00  0.00     0.186 C 
HETATM    5  N5  UNL     1      14.304   8.263  17.240  1.00  0.00    -0.333 N 
HETATM    6  C12 UNL     1      13.714   9.046  18.360  1.00  0.00     0.155 C 
HETATM    7  C13 UNL     1      15.351   7.413  17.646  1.00  0.00     0.243 C 
HETATM    8  O1  UNL     1      15.114   6.789  18.753  1.00  0.00    -0.271 OA
HETATM    9  C14 UNL     1      16.636   7.123  17.029  1.00  0.00     0.176 C 
HETATM   10  N6  UNL     1      17.287   8.250  16.399  1.00  0.00    -0.348 N 
ATOM     11  H6  UNL     1      17.231   9.151  16.873  1.00  0.00     0.163 HD
HETATM   12  C19 UNL     1      17.985   8.200  15.193  1.00  0.00     0.218 C 
HETATM   13  O2  UNL     1      19.132   8.780  15.108  1.00  0.00    -0.274 OA
HETATM   14  C20 UNL     1      17.549   7.532  13.941  1.00  0.00     0.103 C 
HETATM   15  C21 UNL     1      17.853   6.058  13.908  1.00  0.00     0.011 C 
HETATM   16  C22 UNL     1      18.325   5.586  12.562  1.00  0.00     0.026 C 
HETATM   17  C23 UNL     1      17.372   4.569  11.951  1.00  0.00     0.092 C 
HETATM   18  N8  UNL     1      16.510   5.285  11.044  1.00  0.00    -0.354 N 
ATOM     19  H8  UNL     1      16.992   5.711  10.253  1.00  0.00     0.162 HD
HETATM   20  C26 UNL     1      15.127   5.497  11.061  1.00  0.00     0.241 C 
HETATM   21  O4  UNL     1      14.546   5.242   9.951  1.00  0.00    -0.271 OA
HETATM   22  C27 UNL     1      14.237   5.965  12.133  1.00  0.00     0.179 C 
HETATM   23  N9  UNL     1      14.059   5.049  13.208  1.00  0.00    -0.359 N 
ATOM     24  H9  UNL     1      14.591   4.184  13.111  1.00  0.00     0.162 HD
HETATM   25  C31 UNL     1      13.293   5.118  14.367  1.00  0.00     0.135 C 
ENDROOT
BRANCH   4  26
HETATM   26  C7  UNL     1      14.086   9.676  15.186  1.00  0.00     0.086 C 
BRANCH  26  27
HETATM   27  C8  UNL     1      13.086  10.708  15.018  1.00  0.00    -0.035 A 
HETATM   28  C9  UNL     1      13.261  12.011  14.641  1.00  0.00     0.097 A 
HETATM   29  N2  UNL     1      12.071  12.660  14.600  1.00  0.00    -0.351 N 
HETATM   30  C10 UNL     1      11.142  11.779  14.948  1.00  0.00     0.119 A 
ATOM     31  H2  UNL     1      11.918  13.637  14.350  1.00  0.00     0.166 HD
HETATM   32  C11 UNL     1      11.727  10.559  15.215  1.00  0.00     0.058 A 
BRANCH  30  33
HETATM   33  N3  UNL     1       9.744  12.091  15.023  1.00  0.00    -0.292 N 
HETATM   34  N4  UNL     1       9.007  11.247  15.607  1.00  0.00    -0.344 N 
ATOM     35  H42 UNL     1       9.402  10.392  16.000  1.00  0.00     0.176 HD
ATOM     36  H41 UNL     1       8.013  11.469  15.660  1.00  0.00     0.176 HD
ATOM     37  H3  UNL     1       9.365  12.950  14.626  1.00  0.00     0.188 HD
ENDBRANCH  30  33
ENDBRANCH  26  27
ENDBRANCH   4  26
BRANCH   1  38
HETATM   38  C4  UNL     1      11.831   6.191  15.985  1.00  0.00     0.033 C 
BRANCH  38  39
HETATM   39  C3  UNL     1      11.648   5.813  17.394  1.00  0.00     0.002 C 
BRANCH  39  40
HETATM   40  C2  UNL     1      10.287   5.106  17.496  1.00  0.00    -0.004 C 
HETATM   41  C1  UNL     1      10.455   3.610  17.524  1.00  0.00     0.005 C 
ENDBRANCH  39  40
ENDBRANCH  38  39
ENDBRANCH   1  38
BRANCH  25  42
HETATM   42  O5  UNL     1      12.472   4.128  14.588  1.00  0.00    -0.348 OA
ATOM     43  H5  UNL     1      11.632   4.258  14.165  1.00  0.00     0.219 HD
ENDBRANCH  25  42
BRANCH   9  44
HETATM   44  C15 UNL     1      17.638   6.622  18.081  1.00  0.00     0.035 C 
BRANCH  44  45
HETATM   45  C16 UNL     1      18.271   5.328  17.737  1.00  0.00     0.002 C 
BRANCH  45  46
HETATM   46  C17 UNL     1      18.631   4.572  19.022  1.00  0.00    -0.004 C 
HETATM   47  C18 UNL     1      17.743   5.080  20.132  1.00  0.00     0.005 C 
ENDBRANCH  45  46
ENDBRANCH  44  45
ENDBRANCH   9  44
BRANCH  22  48
HETATM   48  C28 UNL     1      12.884   6.337  11.501  1.00  0.00     0.009 C 
HETATM   49  C29 UNL     1      12.327   7.627  11.998  1.00  0.00     0.012 C 
HETATM   50  C30 UNL     1      11.913   5.188  11.629  1.00  0.00     0.012 C 
ENDBRANCH  22  48
BRANCH  17  51
HETATM   51  C24 UNL     1      18.304   3.670  11.113  1.00  0.00     0.124 C 
BRANCH  51  52
HETATM   52  C25 UNL     1      17.516   2.883  10.165  1.00  0.00     0.233 C 
HETATM   53  N7  UNL     1      17.817   2.889   8.772  1.00  0.00    -0.062 NA
HETATM   54  O3  UNL     1      16.556   2.182  10.555  1.00  0.00    -0.277 OA
ENDBRANCH  51  52
ENDBRANCH  17  51
TORSDOF 13
ENDMDL
