MODEL 1
REMARK VINA RESULT: -9.458769495      0.000      0.000
REMARK  10 active torsions:
REMARK  status: ('A' for Active; 'I' for Inactive)
REMARK    1  A    between atoms: C2_2  and  C3_3 
REMARK    2  A    between atoms: C4_4  and  C5_5 
REMARK    3  A    between atoms: C5_5  and  N1_6 
REMARK       I    between atoms: N1_6  and  C6_8 
REMARK    4  A    between atoms: C6_8  and  O2_10 
REMARK    5  A    between atoms: O2_10  and  C7_11 
REMARK    6  A    between atoms: C24_28  and  C26_30 
REMARK       I    between atoms: C26_30  and  N2_32 
REMARK    7  A    between atoms: N2_32  and  C27_34 
REMARK    8  A    between atoms: C27_34  and  C28_35 
REMARK    9  A    between atoms: C28_35  and  C29_36 
REMARK   10  A    between atoms: C29_36  and  N3_37 
ROOT
HETATM    1  C7  UNL     1     -12.555  12.770  32.359  1.00  0.00     0.134 C 
HETATM    2  C8  UNL     1     -13.507  11.893  31.576  1.00  0.00     0.033 C 
HETATM    3  C9  UNL     1     -12.780  11.754  30.230  1.00  0.00     0.012 C 
HETATM    4  C10 UNL     1     -13.034  13.091  29.508  1.00  0.00    -0.040 C 
HETATM    5  C11 UNL     1     -14.571  13.118  29.391  1.00  0.00     0.015 C 
HETATM    6  C12 UNL     1     -12.517  12.899  28.129  1.00  0.00     0.010 C 
HETATM    7  C13 UNL     1     -11.192  13.489  27.831  1.00  0.00     0.011 C 
HETATM    8  C14 UNL     1     -11.084  14.907  28.290  1.00  0.00    -0.032 C 
HETATM    9  C15 UNL     1     -11.993  15.737  27.424  1.00  0.00     0.016 C 
HETATM   10  C16 UNL     1     -11.354  14.966  29.732  1.00  0.00    -0.001 C 
HETATM   11  C17 UNL     1     -11.341  16.441  30.157  1.00  0.00     0.006 C 
HETATM   12  C18 UNL     1     -10.096  17.151  29.786  1.00  0.00     0.006 C 
HETATM   13  C19 UNL     1      -9.580  16.895  28.418  1.00  0.00    -0.001 C 
HETATM   14  C20 UNL     1      -8.096  17.276  28.313  1.00  0.00    -0.004 C 
HETATM   15  C21 UNL     1      -7.903  18.739  28.671  1.00  0.00     0.005 C 
HETATM   16  C22 UNL     1      -7.270  19.522  27.537  1.00  0.00     0.002 C 
HETATM   17  C23 UNL     1      -6.017  18.891  27.027  1.00  0.00     0.019 C 
HETATM   18  C24 UNL     1      -6.169  17.402  26.758  1.00  0.00     0.041 C 
HETATM   19  C25 UNL     1      -5.319  16.688  27.768  1.00  0.00     0.026 C 
HETATM   20  C32 UNL     1      -7.639  17.089  26.908  1.00  0.00     0.007 C 
HETATM   21  C33 UNL     1      -7.893  15.720  26.342  1.00  0.00     0.007 C 
HETATM   22  C34 UNL     1      -9.211  15.122  26.687  1.00  0.00     0.011 C 
HETATM   23  C35 UNL     1      -9.667  15.435  28.075  1.00  0.00    -0.032 C 
HETATM   24  C36 UNL     1      -8.670  14.726  28.993  1.00  0.00     0.016 C 
HETATM   25  C37 UNL     1     -12.561  14.257  30.272  1.00  0.00     0.001 C 
HETATM   26  C38 UNL     1     -12.405  14.105  31.747  1.00  0.00     0.038 C 
ENDROOT
BRANCH  18  27
HETATM   27  C26 UNL     1      -5.679  17.078  25.401  1.00  0.00     0.226 C 
HETATM   28  O3  UNL     1      -4.592  16.469  25.263  1.00  0.00    -0.273 OA
HETATM   29  N2  UNL     1      -6.393  17.433  24.241  1.00  0.00    -0.360 N 
ATOM     30  H2  UNL     1      -7.280  17.930  24.327  1.00  0.00     0.162 HD
BRANCH  29  31
HETATM   31  C27 UNL     1      -5.887  17.105  22.941  1.00  0.00     0.124 C 
BRANCH  31  32
HETATM   32  C28 UNL     1      -6.995  16.697  22.004  1.00  0.00     0.050 C 
BRANCH  32  33
HETATM   33  C29 UNL     1      -7.759  15.520  22.551  1.00  0.00     0.273 C 
BRANCH  33  34
HETATM   34  N3  UNL     1      -9.115  15.539  22.031  1.00  0.00     0.080 N 
HETATM   35  C30 UNL     1     -10.077  15.579  23.115  1.00  0.00     0.309 C 
HETATM   36  C31 UNL     1      -9.305  16.704  21.207  1.00  0.00     0.309 C 
ENDBRANCH  33  34
ENDBRANCH  32  33
ENDBRANCH  31  32
ENDBRANCH  29  31
ENDBRANCH  18  27
BRANCH   1  37
HETATM   37  O2  UNL     1     -12.920  12.823  33.735  1.00  0.00    -0.299 OA
BRANCH  37  38
HETATM   38  C6  UNL     1     -12.137  13.469  34.686  1.00  0.00     0.361 C 
HETATM   39  N1  UNL     1     -12.472  14.680  35.294  1.00  0.00    -0.327 N 
ATOM     40  H1  UNL     1     -13.343  15.153  35.050  1.00  0.00     0.165 HD
HETATM   41  O1  UNL     1     -11.063  12.895  34.995  1.00  0.00    -0.238 OA
BRANCH  39  42
HETATM   42  C5  UNL     1     -11.579  15.262  36.273  1.00  0.00     0.219 C 
BRANCH  42  43
HETATM   43  C4  UNL     1     -10.444  15.944  35.606  1.00  0.00    -0.087 C 
HETATM   44  C3  UNL     1      -9.525  16.491  35.045  1.00  0.00    -0.105 C 
BRANCH  44  45
HETATM   45  C2  UNL     1      -8.420  17.145  34.342  1.00  0.00     0.089 C 
HETATM   46  C1  UNL     1      -8.326  16.661  32.890  1.00  0.00     0.018 C 
ENDBRANCH  44  45
ENDBRANCH  42  43
ENDBRANCH  39  42
ENDBRANCH  37  38
ENDBRANCH   1  37
TORSDOF 10
ENDMDL
MODEL 2
REMARK VINA RESULT: -9.455297273      1.482      2.196
REMARK  10 active torsions:
REMARK  status: ('A' for Active; 'I' for Inactive)
REMARK    1  A    between atoms: C2_2  and  C3_3 
REMARK    2  A    between atoms: C4_4  and  C5_5 
REMARK    3  A    between atoms: C5_5  and  N1_6 
REMARK       I    between atoms: N1_6  and  C6_8 
REMARK    4  A    between atoms: C6_8  and  O2_10 
REMARK    5  A    between atoms: O2_10  and  C7_11 
REMARK    6  A    between atoms: C24_28  and  C26_30 
REMARK       I    between atoms: C26_30  and  N2_32 
REMARK    7  A    between atoms: N2_32  and  C27_34 
REMARK    8  A    between atoms: C27_34  and  C28_35 
REMARK    9  A    between atoms: C28_35  and  C29_36 
REMARK   10  A    between atoms: C29_36  and  N3_37 
ROOT
HETATM    1  C7  UNL     1     -12.906  12.192  33.481  1.00  0.00     0.134 C 
HETATM    2  C8  UNL     1     -13.883  11.123  33.047  1.00  0.00     0.033 C 
HETATM    3  C9  UNL     1     -13.447  10.859  31.598  1.00  0.00     0.012 C 
HETATM    4  C10 UNL     1     -14.013  12.046  30.796  1.00  0.00    -0.040 C 
HETATM    5  C11 UNL     1     -15.530  11.908  31.028  1.00  0.00     0.015 C 
HETATM    6  C12 UNL     1     -13.779  11.705  29.369  1.00  0.00     0.010 C 
HETATM    7  C13 UNL     1     -12.632  12.369  28.709  1.00  0.00     0.011 C 
HETATM    8  C14 UNL     1     -12.608  13.842  28.956  1.00  0.00    -0.032 C 
HETATM    9  C15 UNL     1     -13.777  14.446  28.225  1.00  0.00     0.016 C 
HETATM   10  C16 UNL     1     -12.572  14.085  30.405  1.00  0.00    -0.001 C 
HETATM   11  C17 UNL     1     -12.655  15.601  30.633  1.00  0.00     0.006 C 
HETATM   12  C18 UNL     1     -11.616  16.364  29.907  1.00  0.00     0.006 C 
HETATM   13  C19 UNL     1     -11.373  15.962  28.499  1.00  0.00    -0.001 C 
HETATM   14  C20 UNL     1     -10.005  16.464  28.015  1.00  0.00    -0.004 C 
HETATM   15  C21 UNL     1      -9.925  17.976  28.140  1.00  0.00     0.005 C 
HETATM   16  C22 UNL     1      -9.650  18.642  26.805  1.00  0.00     0.002 C 
HETATM   17  C23 UNL     1      -8.464  18.066  26.106  1.00  0.00     0.019 C 
HETATM   18  C24 UNL     1      -8.481  16.545  26.060  1.00  0.00     0.041 C 
HETATM   19  C25 UNL     1      -7.354  16.072  26.930  1.00  0.00     0.026 C 
HETATM   20  C32 UNL     1      -9.835  16.119  26.577  1.00  0.00     0.007 C 
HETATM   21  C33 UNL     1     -10.029  14.664  26.253  1.00  0.00     0.007 C 
HETATM   22  C34 UNL     1     -11.159  13.999  26.958  1.00  0.00     0.011 C 
HETATM   23  C35 UNL     1     -11.347  14.466  28.364  1.00  0.00    -0.032 C 
HETATM   24  C36 UNL     1     -10.097  13.998  29.111  1.00  0.00     0.016 C 
HETATM   25  C37 UNL     1     -13.540  13.351  31.286  1.00  0.00     0.001 C 
HETATM   26  C38 UNL     1     -13.057  13.431  32.694  1.00  0.00     0.038 C 
ENDROOT
BRANCH  18  27
HETATM   27  C26 UNL     1      -8.253  16.076  24.677  1.00  0.00     0.226 C 
HETATM   28  O3  UNL     1      -7.228  15.405  24.412  1.00  0.00    -0.273 OA
HETATM   29  N2  UNL     1      -9.152  16.357  23.631  1.00  0.00    -0.360 N 
ATOM     30  H2  UNL     1      -9.993  16.902  23.822  1.00  0.00     0.162 HD
BRANCH  29  31
HETATM   31  C27 UNL     1      -8.897  15.886  22.301  1.00  0.00     0.124 C 
BRANCH  31  32
HETATM   32  C28 UNL     1      -9.005  17.000  21.292  1.00  0.00     0.050 C 
BRANCH  32  33
HETATM   33  C29 UNL     1      -7.758  17.091  20.452  1.00  0.00     0.273 C 
BRANCH  33  34
HETATM   34  N3  UNL     1      -6.593  16.861  21.288  1.00  0.00     0.080 N 
HETATM   35  C30 UNL     1      -5.582  16.119  20.562  1.00  0.00     0.309 C 
HETATM   36  C31 UNL     1      -6.031  18.122  21.696  1.00  0.00     0.309 C 
ENDBRANCH  33  34
ENDBRANCH  32  33
ENDBRANCH  31  32
ENDBRANCH  29  31
ENDBRANCH  18  27
BRANCH   1  37
HETATM   37  O2  UNL     1     -12.975  12.409  34.887  1.00  0.00    -0.299 OA
BRANCH  37  38
HETATM   38  C6  UNL     1     -12.086  13.247  35.553  1.00  0.00     0.361 C 
HETATM   39  N1  UNL     1     -12.339  14.588  35.851  1.00  0.00    -0.327 N 
ATOM     40  H1  UNL     1     -13.224  15.016  35.579  1.00  0.00     0.165 HD
HETATM   41  O1  UNL     1     -10.994  12.730  35.894  1.00  0.00    -0.238 OA
BRANCH  39  42
HETATM   42  C5  UNL     1     -11.339  15.367  36.550  1.00  0.00     0.219 C 
BRANCH  42  43
HETATM   43  C4  UNL     1     -10.343  15.916  35.598  1.00  0.00    -0.087 C 
HETATM   44  C3  UNL     1      -9.540  16.350  34.808  1.00  0.00    -0.105 C 
BRANCH  44  45
HETATM   45  C2  UNL     1      -8.576  16.861  33.832  1.00  0.00     0.089 C 
HETATM   46  C1  UNL     1      -8.743  16.165  32.475  1.00  0.00     0.018 C 
ENDBRANCH  44  45
ENDBRANCH  42  43
ENDBRANCH  39  42
ENDBRANCH  37  38
ENDBRANCH   1  37
TORSDOF 10
ENDMDL
MODEL 3
REMARK VINA RESULT: -9.061544735      1.691      2.560
REMARK  10 active torsions:
REMARK  status: ('A' for Active; 'I' for Inactive)
REMARK    1  A    between atoms: C2_2  and  C3_3 
REMARK    2  A    between atoms: C4_4  and  C5_5 
REMARK    3  A    between atoms: C5_5  and  N1_6 
REMARK       I    between atoms: N1_6  and  C6_8 
REMARK    4  A    between atoms: C6_8  and  O2_10 
REMARK    5  A    between atoms: O2_10  and  C7_11 
REMARK    6  A    between atoms: C24_28  and  C26_30 
REMARK       I    between atoms: C26_30  and  N2_32 
REMARK    7  A    between atoms: N2_32  and  C27_34 
REMARK    8  A    between atoms: C27_34  and  C28_35 
REMARK    9  A    between atoms: C28_35  and  C29_36 
REMARK   10  A    between atoms: C29_36  and  N3_37 
ROOT
HETATM    1  C7  UNL     1     -13.063  11.624  34.211  1.00  0.00     0.134 C 
HETATM    2  C8  UNL     1     -14.011  10.537  33.755  1.00  0.00     0.033 C 
HETATM    3  C9  UNL     1     -13.558  10.302  32.307  1.00  0.00     0.012 C 
HETATM    4  C10 UNL     1     -14.147  11.484  31.515  1.00  0.00    -0.040 C 
HETATM    5  C11 UNL     1     -15.662  11.308  31.733  1.00  0.00     0.015 C 
HETATM    6  C12 UNL     1     -13.894  11.168  30.086  1.00  0.00     0.010 C 
HETATM    7  C13 UNL     1     -12.758  11.868  29.443  1.00  0.00     0.011 C 
HETATM    8  C14 UNL     1     -12.772  13.337  29.709  1.00  0.00    -0.032 C 
HETATM    9  C15 UNL     1     -13.950  13.922  28.976  1.00  0.00     0.016 C 
HETATM   10  C16 UNL     1     -12.753  13.563  31.160  1.00  0.00    -0.001 C 
HETATM   11  C17 UNL     1     -12.874  15.073  31.407  1.00  0.00     0.006 C 
HETATM   12  C18 UNL     1     -11.848  15.871  30.698  1.00  0.00     0.006 C 
HETATM   13  C19 UNL     1     -11.586  15.492  29.287  1.00  0.00    -0.001 C 
HETATM   14  C20 UNL     1     -10.226  16.033  28.821  1.00  0.00    -0.004 C 
HETATM   15  C21 UNL     1     -10.184  17.545  28.965  1.00  0.00     0.005 C 
HETATM   16  C22 UNL     1      -9.915  18.234  27.640  1.00  0.00     0.002 C 
HETATM   17  C23 UNL     1      -8.711  17.696  26.943  1.00  0.00     0.019 C 
HETATM   18  C24 UNL     1      -8.690  16.176  26.878  1.00  0.00     0.041 C 
HETATM   19  C25 UNL     1      -7.558  15.719  27.752  1.00  0.00     0.026 C 
HETATM   20  C32 UNL     1     -10.037  15.710  27.379  1.00  0.00     0.007 C 
HETATM   21  C33 UNL     1     -10.194  14.255  27.036  1.00  0.00     0.007 C 
HETATM   22  C34 UNL     1     -11.312  13.554  27.724  1.00  0.00     0.011 C 
HETATM   23  C35 UNL     1     -11.522  13.999  29.134  1.00  0.00    -0.032 C 
HETATM   24  C36 UNL     1     -10.267  13.552  29.886  1.00  0.00     0.016 C 
HETATM   25  C37 UNL     1     -13.709  12.794  32.025  1.00  0.00     0.001 C 
HETATM   26  C38 UNL     1     -13.239  12.869  33.438  1.00  0.00     0.038 C 
ENDROOT
BRANCH  18  27
HETATM   27  C26 UNL     1      -8.441  15.729  25.491  1.00  0.00     0.226 C 
HETATM   28  O3  UNL     1      -7.263  15.643  25.071  1.00  0.00    -0.273 OA
HETATM   29  N2  UNL     1      -9.486  15.395  24.611  1.00  0.00    -0.360 N 
ATOM     30  H2  UNL     1     -10.454  15.457  24.929  1.00  0.00     0.162 HD
BRANCH  29  31
HETATM   31  C27 UNL     1      -9.206  14.967  23.272  1.00  0.00     0.124 C 
BRANCH  31  32
HETATM   32  C28 UNL     1      -9.623  16.005  22.262  1.00  0.00     0.050 C 
BRANCH  32  33
HETATM   33  C29 UNL     1      -8.448  16.840  21.828  1.00  0.00     0.273 C 
BRANCH  33  34
HETATM   34  N3  UNL     1      -8.597  17.197  20.428  1.00  0.00     0.080 N 
HETATM   35  C30 UNL     1      -7.342  17.679  19.886  1.00  0.00     0.309 C 
HETATM   36  C31 UNL     1      -9.009  16.043  19.672  1.00  0.00     0.309 C 
ENDBRANCH  33  34
ENDBRANCH  32  33
ENDBRANCH  31  32
ENDBRANCH  29  31
ENDBRANCH  18  27
BRANCH   1  37
HETATM   37  O2  UNL     1     -13.148  11.822  35.619  1.00  0.00    -0.299 OA
BRANCH  37  38
HETATM   38  C6  UNL     1     -12.361  12.755  36.285  1.00  0.00     0.361 C 
HETATM   39  N1  UNL     1     -12.602  14.131  36.289  1.00  0.00    -0.327 N 
ATOM     40  H1  UNL     1     -13.399  14.514  35.781  1.00  0.00     0.165 HD
HETATM   41  O1  UNL     1     -11.378  12.295  36.916  1.00  0.00    -0.238 OA
BRANCH  39  42
HETATM   42  C5  UNL     1     -11.715  15.012  37.019  1.00  0.00     0.219 C 
BRANCH  42  43
HETATM   43  C4  UNL     1     -10.723  15.630  36.107  1.00  0.00    -0.087 C 
HETATM   44  C3  UNL     1      -9.905  16.140  35.380  1.00  0.00    -0.105 C 
BRANCH  44  45
HETATM   45  C2  UNL     1      -8.900  16.767  34.520  1.00  0.00     0.089 C 
HETATM   46  C1  UNL     1      -8.936  16.173  33.106  1.00  0.00     0.018 C 
ENDBRANCH  44  45
ENDBRANCH  42  43
ENDBRANCH  39  42
ENDBRANCH  37  38
ENDBRANCH   1  37
TORSDOF 10
ENDMDL
MODEL 4
REMARK VINA RESULT: -9.046196243      1.146      1.467
REMARK  10 active torsions:
REMARK  status: ('A' for Active; 'I' for Inactive)
REMARK    1  A    between atoms: C2_2  and  C3_3 
REMARK    2  A    between atoms: C4_4  and  C5_5 
REMARK    3  A    between atoms: C5_5  and  N1_6 
REMARK       I    between atoms: N1_6  and  C6_8 
REMARK    4  A    between atoms: C6_8  and  O2_10 
REMARK    5  A    between atoms: O2_10  and  C7_11 
REMARK    6  A    between atoms: C24_28  and  C26_30 
REMARK       I    between atoms: C26_30  and  N2_32 
REMARK    7  A    between atoms: N2_32  and  C27_34 
REMARK    8  A    between atoms: C27_34  and  C28_35 
REMARK    9  A    between atoms: C28_35  and  C29_36 
REMARK   10  A    between atoms: C29_36  and  N3_37 
ROOT
HETATM    1  C7  UNL     1     -12.772  12.497  33.017  1.00  0.00     0.134 C 
HETATM    2  C8  UNL     1     -13.853  11.612  32.436  1.00  0.00     0.033 C 
HETATM    3  C9  UNL     1     -13.364  11.414  30.994  1.00  0.00     0.012 C 
HETATM    4  C10 UNL     1     -13.717  12.731  30.276  1.00  0.00    -0.040 C 
HETATM    5  C11 UNL     1     -15.251  12.783  30.416  1.00  0.00     0.015 C 
HETATM    6  C12 UNL     1     -13.440  12.483  28.837  1.00  0.00     0.010 C 
HETATM    7  C13 UNL     1     -12.176  13.038  28.302  1.00  0.00     0.011 C 
HETATM    8  C14 UNL     1     -11.974  14.467  28.685  1.00  0.00    -0.032 C 
HETATM    9  C15 UNL     1     -13.005  15.285  27.953  1.00  0.00     0.016 C 
HETATM   10  C16 UNL     1     -11.998  14.580  30.149  1.00  0.00    -0.001 C 
HETATM   11  C17 UNL     1     -11.895  16.068  30.512  1.00  0.00     0.006 C 
HETATM   12  C18 UNL     1     -10.721  16.741  29.913  1.00  0.00     0.006 C 
HETATM   13  C19 UNL     1     -10.445  16.429  28.488  1.00  0.00    -0.001 C 
HETATM   14  C20 UNL     1      -8.994  16.779  28.124  1.00  0.00    -0.004 C 
HETATM   15  C21 UNL     1      -8.725  18.249  28.391  1.00  0.00     0.005 C 
HETATM   16  C22 UNL     1      -8.280  18.982  27.140  1.00  0.00     0.002 C 
HETATM   17  C23 UNL     1      -7.138  18.311  26.452  1.00  0.00     0.019 C 
HETATM   18  C24 UNL     1      -7.353  16.816  26.265  1.00  0.00     0.041 C 
HETATM   19  C25 UNL     1      -6.355  16.120  27.145  1.00  0.00     0.026 C 
HETATM   20  C32 UNL     1      -8.780  16.536  26.670  1.00  0.00     0.007 C 
HETATM   21  C33 UNL     1      -9.144  15.154  26.204  1.00  0.00     0.007 C 
HETATM   22  C34 UNL     1     -10.393  14.593  26.786  1.00  0.00     0.011 C 
HETATM   23  C35 UNL     1     -10.607  14.961  28.217  1.00  0.00    -0.032 C 
HETATM   24  C36 UNL     1      -9.480  14.265  28.982  1.00  0.00     0.016 C 
HETATM   25  C37 UNL     1     -13.108  13.913  30.908  1.00  0.00     0.001 C 
HETATM   26  C38 UNL     1     -12.709  13.807  32.340  1.00  0.00     0.038 C 
ENDROOT
BRANCH  18  27
HETATM   27  C26 UNL     1      -7.101  16.438  24.858  1.00  0.00     0.226 C 
HETATM   28  O3  UNL     1      -6.153  16.970  24.234  1.00  0.00    -0.273 OA
HETATM   29  N2  UNL     1      -7.895  15.494  24.182  1.00  0.00    -0.360 N 
ATOM     30  H2  UNL     1      -8.673  15.047  24.668  1.00  0.00     0.162 HD
BRANCH  29  31
HETATM   31  C27 UNL     1      -7.623  15.153  22.816  1.00  0.00     0.124 C 
BRANCH  31  32
HETATM   32  C28 UNL     1      -8.746  15.579  21.906  1.00  0.00     0.050 C 
BRANCH  32  33
HETATM   33  C29 UNL     1      -8.663  17.050  21.597  1.00  0.00     0.273 C 
BRANCH  33  34
HETATM   34  N3  UNL     1      -8.570  17.240  20.161  1.00  0.00     0.080 N 
HETATM   35  C30 UNL     1      -7.225  17.622  19.781  1.00  0.00     0.309 C 
HETATM   36  C31 UNL     1      -8.907  16.015  19.485  1.00  0.00     0.309 C 
ENDBRANCH  33  34
ENDBRANCH  32  33
ENDBRANCH  31  32
ENDBRANCH  29  31
ENDBRANCH  18  27
BRANCH   1  37
HETATM   37  O2  UNL     1     -12.901  12.602  34.431  1.00  0.00    -0.299 OA
BRANCH  37  38
HETATM   38  C6  UNL     1     -12.019  13.352  35.202  1.00  0.00     0.361 C 
HETATM   39  N1  UNL     1     -12.305  14.616  35.724  1.00  0.00    -0.327 N 
ATOM     40  H1  UNL     1     -13.212  15.050  35.549  1.00  0.00     0.165 HD
HETATM   41  O1  UNL     1     -10.900  12.826  35.425  1.00  0.00    -0.238 OA
BRANCH  39  42
HETATM   42  C5  UNL     1     -11.309  15.307  36.515  1.00  0.00     0.219 C 
BRANCH  42  43
HETATM   43  C4  UNL     1     -10.289  15.934  35.641  1.00  0.00    -0.087 C 
HETATM   44  C3  UNL     1      -9.467  16.464  34.933  1.00  0.00    -0.105 C 
BRANCH  44  45
HETATM   45  C2  UNL     1      -8.478  17.129  34.082  1.00  0.00     0.089 C 
HETATM   46  C1  UNL     1      -8.413  16.474  32.697  1.00  0.00     0.018 C 
ENDBRANCH  44  45
ENDBRANCH  42  43
ENDBRANCH  39  42
ENDBRANCH  37  38
ENDBRANCH   1  37
TORSDOF 10
ENDMDL
MODEL 5
REMARK VINA RESULT: -9.044590025      1.704     10.618
REMARK  10 active torsions:
REMARK  status: ('A' for Active; 'I' for Inactive)
REMARK    1  A    between atoms: C2_2  and  C3_3 
REMARK    2  A    between atoms: C4_4  and  C5_5 
REMARK    3  A    between atoms: C5_5  and  N1_6 
REMARK       I    between atoms: N1_6  and  C6_8 
REMARK    4  A    between atoms: C6_8  and  O2_10 
REMARK    5  A    between atoms: O2_10  and  C7_11 
REMARK    6  A    between atoms: C24_28  and  C26_30 
REMARK       I    between atoms: C26_30  and  N2_32 
REMARK    7  A    between atoms: N2_32  and  C27_34 
REMARK    8  A    between atoms: C27_34  and  C28_35 
REMARK    9  A    between atoms: C28_35  and  C29_36 
REMARK   10  A    between atoms: C29_36  and  N3_37 
ROOT
HETATM    1  C7  UNL     1      -6.893  16.194  25.272  1.00  0.00     0.134 C 
HETATM    2  C8  UNL     1      -6.031  17.279  25.878  1.00  0.00     0.033 C 
HETATM    3  C9  UNL     1      -6.250  17.059  27.382  1.00  0.00     0.012 C 
HETATM    4  C10 UNL     1      -7.637  17.663  27.670  1.00  0.00    -0.040 C 
HETATM    5  C11 UNL     1      -7.444  19.140  27.274  1.00  0.00     0.015 C 
HETATM    6  C12 UNL     1      -7.777  17.644  29.149  1.00  0.00     0.010 C 
HETATM    7  C13 UNL     1      -8.611  16.563  29.721  1.00  0.00     0.011 C 
HETATM    8  C14 UNL     1      -9.923  16.424  29.021  1.00  0.00    -0.032 C 
HETATM    9  C15 UNL     1     -10.741  17.647  29.340  1.00  0.00     0.016 C 
HETATM   10  C16 UNL     1      -9.682  16.178  27.593  1.00  0.00    -0.001 C 
HETATM   11  C17 UNL     1     -11.041  16.146  26.881  1.00  0.00     0.006 C 
HETATM   12  C18 UNL     1     -11.991  15.175  27.468  1.00  0.00     0.006 C 
HETATM   13  C19 UNL     1     -12.067  15.149  28.950  1.00  0.00    -0.001 C 
HETATM   14  C20 UNL     1     -12.688  13.833  29.442  1.00  0.00    -0.004 C 
HETATM   15  C21 UNL     1     -14.076  13.654  28.852  1.00  0.00     0.005 C 
HETATM   16  C22 UNL     1     -15.138  13.527  29.928  1.00  0.00     0.002 C 
HETATM   17  C23 UNL     1     -14.812  12.481  30.941  1.00  0.00     0.019 C 
HETATM   18  C24 UNL     1     -13.389  12.587  31.469  1.00  0.00     0.041 C 
HETATM   19  C25 UNL     1     -12.649  11.380  30.972  1.00  0.00     0.026 C 
HETATM   20  C32 UNL     1     -12.828  13.880  30.924  1.00  0.00     0.007 C 
HETATM   21  C33 UNL     1     -11.559  14.196  31.665  1.00  0.00     0.007 C 
HETATM   22  C34 UNL     1     -10.710  15.254  31.053  1.00  0.00     0.011 C 
HETATM   23  C35 UNL     1     -10.696  15.223  29.560  1.00  0.00    -0.032 C 
HETATM   24  C36 UNL     1     -10.000  13.911  29.194  1.00  0.00     0.016 C 
HETATM   25  C37 UNL     1      -8.708  17.056  26.862  1.00  0.00     0.001 C 
HETATM   26  C38 UNL     1      -8.322  16.383  25.589  1.00  0.00     0.038 C 
ENDROOT
BRANCH  18  27
HETATM   27  C26 UNL     1     -13.393  12.576  32.947  1.00  0.00     0.226 C 
HETATM   28  O3  UNL     1     -14.103  13.399  33.571  1.00  0.00    -0.273 OA
HETATM   29  N2  UNL     1     -12.620  11.666  33.693  1.00  0.00    -0.360 N 
ATOM     30  H2  UNL     1     -12.033  10.987  33.208  1.00  0.00     0.162 HD
BRANCH  29  31
HETATM   31  C27 UNL     1     -12.648  11.685  35.126  1.00  0.00     0.124 C 
BRANCH  31  32
HETATM   32  C28 UNL     1     -11.416  12.342  35.694  1.00  0.00     0.050 C 
BRANCH  32  33
HETATM   33  C29 UNL     1     -11.713  13.748  36.145  1.00  0.00     0.273 C 
BRANCH  33  34
HETATM   34  N3  UNL     1     -10.621  14.623  35.755  1.00  0.00     0.080 N 
HETATM   35  C30 UNL     1     -11.108  15.710  34.928  1.00  0.00     0.309 C 
HETATM   36  C31 UNL     1     -10.002  15.182  36.928  1.00  0.00     0.309 C 
ENDBRANCH  33  34
ENDBRANCH  32  33
ENDBRANCH  31  32
ENDBRANCH  29  31
ENDBRANCH  18  27
BRANCH   1  37
HETATM   37  O2  UNL     1      -6.642  16.059  23.877  1.00  0.00    -0.299 OA
BRANCH  37  38
HETATM   38  C6  UNL     1      -7.497  16.586  22.915  1.00  0.00     0.361 C 
HETATM   39  N1  UNL     1      -8.464  15.848  22.229  1.00  0.00    -0.327 N 
ATOM     40  H1  UNL     1      -8.580  14.853  22.420  1.00  0.00     0.165 HD
HETATM   41  O1  UNL     1      -7.363  17.812  22.673  1.00  0.00    -0.238 OA
BRANCH  39  42
HETATM   42  C5  UNL     1      -9.301  16.502  21.245  1.00  0.00     0.219 C 
BRANCH  42  43
HETATM   43  C4  UNL     1      -8.629  16.535  19.924  1.00  0.00    -0.087 C 
HETATM   44  C3  UNL     1      -8.064  16.565  18.858  1.00  0.00    -0.105 C 
BRANCH  44  45
HETATM   45  C2  UNL     1      -7.356  16.603  17.577  1.00  0.00     0.089 C 
HETATM   46  C1  UNL     1      -5.898  17.039  17.765  1.00  0.00     0.018 C 
ENDBRANCH  44  45
ENDBRANCH  42  43
ENDBRANCH  39  42
ENDBRANCH  37  38
ENDBRANCH   1  37
TORSDOF 10
ENDMDL
