MODEL 1
REMARK VINA RESULT: -7.909643425      0.000      0.000
REMARK  9 active torsions:
REMARK  status: ('A' for Active; 'I' for Inactive)
REMARK    1  A    between atoms: C2_2  and  C4_4 
REMARK    2  A    between atoms: C4_4  and  C5_5 
REMARK    3  A    between atoms: C5_5  and  C6_6 
REMARK    4  A    between atoms: C5_5  and  N2_16 
REMARK       I    between atoms: C6_6  and  N1_8 
REMARK    5  A    between atoms: N1_8  and  C7_10 
REMARK    6  A    between atoms: C7_10  and  C8_11 
REMARK    7  A    between atoms: C8_11  and  C9_12 
REMARK    8  A    between atoms: C16_21  and  C17_22 
REMARK       I    between atoms: C17_22  and  N3_24 
REMARK    9  A    between atoms: N3_24  and  C18_26 
ROOT
HETATM    1  N2  UNL     1      -9.052  16.042  28.207  1.00  0.00    -0.299 N 
HETATM    2  C13 UNL     1      -9.049  14.637  27.944  1.00  0.00     0.225 C 
HETATM    3  O2  UNL     1      -8.079  13.865  27.744  1.00  0.00    -0.273 OA
HETATM    4  C14 UNL     1     -10.470  14.194  27.943  1.00  0.00     0.106 C 
HETATM    5  C15 UNL     1     -11.161  15.415  27.378  1.00  0.00     0.044 C 
HETATM    6  C16 UNL     1     -10.241  16.588  27.505  1.00  0.00     0.185 C 
ENDROOT
BRANCH   1   7
HETATM    7  C5  UNL     1      -8.123  16.744  29.023  1.00  0.00     0.102 C 
BRANCH   7   8
HETATM    8  C4  UNL     1      -7.869  16.281  30.409  1.00  0.00     0.012 C 
BRANCH   8   9
HETATM    9  C2  UNL     1      -8.865  16.362  31.472  1.00  0.00     0.002 C 
HETATM   10  C1  UNL     1      -9.415  14.888  31.605  1.00  0.00     0.013 C 
HETATM   11  C3  UNL     1      -8.332  16.611  32.868  1.00  0.00     0.013 C 
ENDBRANCH   8   9
ENDBRANCH   7   8
BRANCH   7  12
HETATM   12  C6  UNL     1      -6.936  17.289  28.346  1.00  0.00     0.268 C 
HETATM   13  O1  UNL     1      -5.778  16.802  28.438  1.00  0.00    -0.266 OA
HETATM   14  N1  UNL     1      -7.057  18.447  27.518  1.00  0.00    -0.356 N 
ATOM     15  H1  UNL     1      -7.987  18.855  27.424  1.00  0.00     0.162 HD
BRANCH  14  16
HETATM   16  C7  UNL     1      -6.001  19.079  26.816  1.00  0.00     0.123 C 
BRANCH  16  17
HETATM   17  C8  UNL     1      -6.018  18.838  25.334  1.00  0.00     0.028 C 
BRANCH  17  18
HETATM   18  C9  UNL     1      -4.615  18.548  24.837  1.00  0.00    -0.050 C 
HETATM   19  C10 UNL     1      -3.814  19.829  24.954  1.00  0.00     0.014 C 
HETATM   20  C11 UNL     1      -4.657  18.083  23.404  1.00  0.00     0.014 C 
HETATM   21  C12 UNL     1      -3.931  17.500  25.671  1.00  0.00     0.014 C 
ENDBRANCH  17  18
ENDBRANCH  16  17
ENDBRANCH  14  16
ENDBRANCH   7  12
ENDBRANCH   1   7
BRANCH   6  22
HETATM   22  C17 UNL     1      -9.931  17.074  26.150  1.00  0.00     0.241 C 
HETATM   23  O3  UNL     1      -9.723  18.273  25.850  1.00  0.00    -0.271 OA
HETATM   24  N3  UNL     1      -9.846  16.153  25.039  1.00  0.00    -0.355 N 
ATOM     25  H3  UNL     1     -10.003  15.160  25.213  1.00  0.00     0.162 HD
BRANCH  24  26
HETATM   26  C18 UNL     1      -9.547  16.582  23.692  1.00  0.00     0.084 C 
HETATM   27  C19 UNL     1      -8.076  16.502  23.362  1.00  0.00     0.025 C 
HETATM   28  C20 UNL     1      -7.879  16.815  21.917  1.00  0.00     0.002 C 
HETATM   29  C21 UNL     1      -8.605  15.768  21.097  1.00  0.00     0.000 C 
HETATM   30  C22 UNL     1     -10.089  15.993  21.315  1.00  0.00     0.002 C 
HETATM   31  C23 UNL     1     -10.390  15.745  22.764  1.00  0.00     0.025 C 
ENDBRANCH  24  26
ENDBRANCH   6  22
TORSDOF 9
ENDMDL
MODEL 2
REMARK VINA RESULT: -7.689969594      2.070      5.773
REMARK  9 active torsions:
REMARK  status: ('A' for Active; 'I' for Inactive)
REMARK    1  A    between atoms: C2_2  and  C4_4 
REMARK    2  A    between atoms: C4_4  and  C5_5 
REMARK    3  A    between atoms: C5_5  and  C6_6 
REMARK    4  A    between atoms: C5_5  and  N2_16 
REMARK       I    between atoms: C6_6  and  N1_8 
REMARK    5  A    between atoms: N1_8  and  C7_10 
REMARK    6  A    between atoms: C7_10  and  C8_11 
REMARK    7  A    between atoms: C8_11  and  C9_12 
REMARK    8  A    between atoms: C16_21  and  C17_22 
REMARK       I    between atoms: C17_22  and  N3_24 
REMARK    9  A    between atoms: N3_24  and  C18_26 
ROOT
HETATM    1  N2  UNL     1      -8.405  16.911  28.034  1.00  0.00    -0.299 N 
HETATM    2  C13 UNL     1      -8.981  18.189  27.751  1.00  0.00     0.225 C 
HETATM    3  O2  UNL     1     -10.184  18.544  27.776  1.00  0.00    -0.273 OA
HETATM    4  C14 UNL     1      -7.858  19.099  27.395  1.00  0.00     0.106 C 
HETATM    5  C15 UNL     1      -6.908  18.146  26.705  1.00  0.00     0.044 C 
HETATM    6  C16 UNL     1      -7.283  16.746  27.075  1.00  0.00     0.185 C 
ENDROOT
BRANCH   1   7
HETATM    7  C5  UNL     1      -8.809  16.020  29.065  1.00  0.00     0.102 C 
BRANCH   7   8
HETATM    8  C4  UNL     1      -8.814  16.483  30.474  1.00  0.00     0.012 C 
BRANCH   8   9
HETATM    9  C2  UNL     1      -8.948  15.577  31.610  1.00  0.00     0.002 C 
HETATM   10  C1  UNL     1      -7.821  16.040  32.614  1.00  0.00     0.013 C 
HETATM   11  C3  UNL     1     -10.193  15.747  32.456  1.00  0.00     0.013 C 
ENDBRANCH   8   9
ENDBRANCH   7   8
BRANCH   7  12
HETATM   12  C6  UNL     1      -9.899  15.088  28.737  1.00  0.00     0.268 C 
HETATM   13  O1  UNL     1      -9.734  13.872  28.452  1.00  0.00    -0.266 OA
HETATM   14  N1  UNL     1     -11.252  15.548  28.729  1.00  0.00    -0.356 N 
ATOM     15  H1  UNL     1     -11.410  16.528  28.962  1.00  0.00     0.162 HD
BRANCH  14  16
HETATM   16  C7  UNL     1     -12.393  14.764  28.425  1.00  0.00     0.123 C 
BRANCH  16  17
HETATM   17  C8  UNL     1     -13.302  14.524  29.596  1.00  0.00     0.028 C 
BRANCH  17  18
HETATM   18  C9  UNL     1     -13.143  13.101  30.095  1.00  0.00    -0.050 C 
HETATM   19  C10 UNL     1     -12.684  12.254  28.925  1.00  0.00     0.014 C 
HETATM   20  C11 UNL     1     -14.455  12.588  30.631  1.00  0.00     0.014 C 
HETATM   21  C12 UNL     1     -12.100  12.998  31.174  1.00  0.00     0.014 C 
ENDBRANCH  17  18
ENDBRANCH  16  17
ENDBRANCH  14  16
ENDBRANCH   7  12
ENDBRANCH   1   7
BRANCH   6  22
HETATM   22  C17 UNL     1      -7.680  16.038  25.847  1.00  0.00     0.241 C 
HETATM   23  O3  UNL     1      -7.975  14.822  25.784  1.00  0.00    -0.271 OA
HETATM   24  N3  UNL     1      -7.756  16.741  24.585  1.00  0.00    -0.355 N 
ATOM     25  H3  UNL     1      -7.529  17.735  24.564  1.00  0.00     0.162 HD
BRANCH  24  26
HETATM   26  C18 UNL     1      -8.138  16.090  23.352  1.00  0.00     0.084 C 
HETATM   27  C19 UNL     1      -9.632  15.922  23.216  1.00  0.00     0.025 C 
HETATM   28  C20 UNL     1      -9.944  15.386  21.859  1.00  0.00     0.002 C 
HETATM   29  C21 UNL     1      -9.486  16.396  20.828  1.00  0.00     0.000 C 
HETATM   30  C22 UNL     1      -7.970  16.409  20.871  1.00  0.00     0.002 C 
HETATM   31  C23 UNL     1      -7.546  16.896  22.225  1.00  0.00     0.025 C 
ENDBRANCH  24  26
ENDBRANCH   6  22
TORSDOF 9
ENDMDL
MODEL 3
REMARK VINA RESULT: -7.607509035      1.878      2.833
REMARK  9 active torsions:
REMARK  status: ('A' for Active; 'I' for Inactive)
REMARK    1  A    between atoms: C2_2  and  C4_4 
REMARK    2  A    between atoms: C4_4  and  C5_5 
REMARK    3  A    between atoms: C5_5  and  C6_6 
REMARK    4  A    between atoms: C5_5  and  N2_16 
REMARK       I    between atoms: C6_6  and  N1_8 
REMARK    5  A    between atoms: N1_8  and  C7_10 
REMARK    6  A    between atoms: C7_10  and  C8_11 
REMARK    7  A    between atoms: C8_11  and  C9_12 
REMARK    8  A    between atoms: C16_21  and  C17_22 
REMARK       I    between atoms: C17_22  and  N3_24 
REMARK    9  A    between atoms: N3_24  and  C18_26 
ROOT
HETATM    1  N2  UNL     1     -11.279  15.651  29.486  1.00  0.00    -0.299 N 
HETATM    2  C13 UNL     1     -12.067  14.474  29.682  1.00  0.00     0.225 C 
HETATM    3  O2  UNL     1     -11.757  13.389  30.232  1.00  0.00    -0.273 OA
HETATM    4  C14 UNL     1     -13.406  14.747  29.092  1.00  0.00     0.106 C 
HETATM    5  C15 UNL     1     -13.042  15.644  27.929  1.00  0.00     0.044 C 
HETATM    6  C16 UNL     1     -11.666  16.187  28.157  1.00  0.00     0.185 C 
ENDROOT
BRANCH   1   7
HETATM    7  C5  UNL     1     -10.356  16.206  30.415  1.00  0.00     0.102 C 
BRANCH   7   8
HETATM    8  C4  UNL     1     -10.250  15.629  31.777  1.00  0.00     0.012 C 
BRANCH   8   9
HETATM    9  C2  UNL     1      -9.533  16.283  32.866  1.00  0.00     0.002 C 
HETATM   10  C1  UNL     1     -10.480  16.111  34.117  1.00  0.00     0.013 C 
HETATM   11  C3  UNL     1      -8.273  15.592  33.344  1.00  0.00     0.013 C 
ENDBRANCH   8   9
ENDBRANCH   7   8
BRANCH   7  12
HETATM   12  C6  UNL     1      -9.077  16.681  29.864  1.00  0.00     0.268 C 
HETATM   13  O1  UNL     1      -8.728  17.891  29.818  1.00  0.00    -0.266 OA
HETATM   14  N1  UNL     1      -8.137  15.744  29.335  1.00  0.00    -0.356 N 
ATOM     15  H1  UNL     1      -8.397  14.759  29.367  1.00  0.00     0.162 HD
BRANCH  14  16
HETATM   16  C7  UNL     1      -6.877  16.063  28.771  1.00  0.00     0.123 C 
BRANCH  16  17
HETATM   17  C8  UNL     1      -6.929  16.414  27.312  1.00  0.00     0.028 C 
BRANCH  17  18
HETATM   18  C9  UNL     1      -5.765  17.317  26.953  1.00  0.00    -0.050 C 
HETATM   19  C10 UNL     1      -4.718  17.168  28.037  1.00  0.00     0.014 C 
HETATM   20  C11 UNL     1      -6.229  18.750  26.863  1.00  0.00     0.014 C 
HETATM   21  C12 UNL     1      -5.133  16.926  25.645  1.00  0.00     0.014 C 
ENDBRANCH  17  18
ENDBRANCH  16  17
ENDBRANCH  14  16
ENDBRANCH   7  12
ENDBRANCH   1   7
BRANCH   6  22
HETATM   22  C17 UNL     1     -10.798  15.703  27.070  1.00  0.00     0.241 C 
HETATM   23  O3  UNL     1     -10.147  14.633  27.097  1.00  0.00    -0.271 OA
HETATM   24  N3  UNL     1     -10.640  16.473  25.857  1.00  0.00    -0.355 N 
ATOM     25  H3  UNL     1     -11.143  17.356  25.768  1.00  0.00     0.162 HD
BRANCH  24  26
HETATM   26  C18 UNL     1      -9.797  16.041  24.764  1.00  0.00     0.084 C 
HETATM   27  C19 UNL     1     -10.575  15.743  23.505  1.00  0.00     0.025 C 
HETATM   28  C20 UNL     1      -9.620  15.455  22.395  1.00  0.00     0.002 C 
HETATM   29  C21 UNL     1      -8.781  16.694  22.152  1.00  0.00     0.000 C 
HETATM   30  C22 UNL     1      -7.885  16.860  23.364  1.00  0.00     0.002 C 
HETATM   31  C23 UNL     1      -8.758  17.113  24.558  1.00  0.00     0.025 C 
ENDBRANCH  24  26
ENDBRANCH   6  22
TORSDOF 9
ENDMDL
MODEL 4
REMARK VINA RESULT: -7.495525205      1.572      4.893
REMARK  9 active torsions:
REMARK  status: ('A' for Active; 'I' for Inactive)
REMARK    1  A    between atoms: C2_2  and  C4_4 
REMARK    2  A    between atoms: C4_4  and  C5_5 
REMARK    3  A    between atoms: C5_5  and  C6_6 
REMARK    4  A    between atoms: C5_5  and  N2_16 
REMARK       I    between atoms: C6_6  and  N1_8 
REMARK    5  A    between atoms: N1_8  and  C7_10 
REMARK    6  A    between atoms: C7_10  and  C8_11 
REMARK    7  A    between atoms: C8_11  and  C9_12 
REMARK    8  A    between atoms: C16_21  and  C17_22 
REMARK       I    between atoms: C17_22  and  N3_24 
REMARK    9  A    between atoms: N3_24  and  C18_26 
ROOT
HETATM    1  N2  UNL     1      -9.296  16.076  28.111  1.00  0.00    -0.299 N 
HETATM    2  C13 UNL     1      -9.796  17.013  29.068  1.00  0.00     0.225 C 
HETATM    3  O2  UNL     1     -10.597  17.966  28.908  1.00  0.00    -0.273 OA
HETATM    4  C14 UNL     1      -9.177  16.665  30.377  1.00  0.00     0.106 C 
HETATM    5  C15 UNL     1      -7.820  16.160  29.940  1.00  0.00     0.044 C 
HETATM    6  C16 UNL     1      -7.881  15.824  28.483  1.00  0.00     0.185 C 
ENDROOT
BRANCH   1   7
HETATM    7  C5  UNL     1     -10.039  15.478  27.056  1.00  0.00     0.102 C 
BRANCH   7   8
HETATM    8  C4  UNL     1     -11.377  14.902  27.337  1.00  0.00     0.012 C 
BRANCH   8   9
HETATM    9  C2  UNL     1     -11.650  14.043  28.483  1.00  0.00     0.002 C 
HETATM   10  C1  UNL     1     -12.970  14.637  29.112  1.00  0.00     0.013 C 
HETATM   11  C3  UNL     1     -12.079  12.625  28.166  1.00  0.00     0.013 C 
ENDBRANCH   8   9
ENDBRANCH   7   8
BRANCH   7  12
HETATM   12  C6  UNL     1      -9.925  16.111  25.733  1.00  0.00     0.268 C 
HETATM   13  O1  UNL     1      -9.803  17.351  25.546  1.00  0.00    -0.266 OA
HETATM   14  N1  UNL     1      -9.948  15.306  24.554  1.00  0.00    -0.356 N 
ATOM     15  H1  UNL     1     -10.041  14.299  24.681  1.00  0.00     0.162 HD
BRANCH  14  16
HETATM   16  C7  UNL     1      -9.855  15.782  23.222  1.00  0.00     0.123 C 
BRANCH  16  17
HETATM   17  C8  UNL     1      -8.692  15.226  22.451  1.00  0.00     0.028 C 
BRANCH  17  18
HETATM   18  C9  UNL     1      -8.535  15.969  21.139  1.00  0.00    -0.050 C 
HETATM   19  C10 UNL     1      -9.299  15.199  20.081  1.00  0.00     0.014 C 
HETATM   20  C11 UNL     1      -7.076  16.066  20.769  1.00  0.00     0.014 C 
HETATM   21  C12 UNL     1      -9.114  17.356  21.207  1.00  0.00     0.014 C 
ENDBRANCH  17  18
ENDBRANCH  16  17
ENDBRANCH  14  16
ENDBRANCH   7  12
ENDBRANCH   1   7
BRANCH   6  22
HETATM   22  C17 UNL     1      -6.938  16.704  27.772  1.00  0.00     0.241 C 
HETATM   23  O3  UNL     1      -6.302  17.647  28.298  1.00  0.00    -0.271 OA
HETATM   24  N3  UNL     1      -6.683  16.520  26.361  1.00  0.00    -0.355 N 
ATOM     25  H3  UNL     1      -7.168  15.769  25.869  1.00  0.00     0.162 HD
BRANCH  24  26
HETATM   26  C18 UNL     1      -5.769  17.359  25.618  1.00  0.00     0.084 C 
HETATM   27  C19 UNL     1      -4.370  16.795  25.560  1.00  0.00     0.025 C 
HETATM   28  C20 UNL     1      -3.538  17.640  24.654  1.00  0.00     0.002 C 
HETATM   29  C21 UNL     1      -4.132  17.577  23.261  1.00  0.00     0.000 C 
HETATM   30  C22 UNL     1      -5.459  18.309  23.318  1.00  0.00     0.002 C 
HETATM   31  C23 UNL     1      -6.366  17.558  24.249  1.00  0.00     0.025 C 
ENDBRANCH  24  26
ENDBRANCH   6  22
TORSDOF 9
ENDMDL
MODEL 5
REMARK VINA RESULT: -7.482250865      3.225      6.914
REMARK  9 active torsions:
REMARK  status: ('A' for Active; 'I' for Inactive)
REMARK    1  A    between atoms: C2_2  and  C4_4 
REMARK    2  A    between atoms: C4_4  and  C5_5 
REMARK    3  A    between atoms: C5_5  and  C6_6 
REMARK    4  A    between atoms: C5_5  and  N2_16 
REMARK       I    between atoms: C6_6  and  N1_8 
REMARK    5  A    between atoms: N1_8  and  C7_10 
REMARK    6  A    between atoms: C7_10  and  C8_11 
REMARK    7  A    between atoms: C8_11  and  C9_12 
REMARK    8  A    between atoms: C16_21  and  C17_22 
REMARK       I    between atoms: C17_22  and  N3_24 
REMARK    9  A    between atoms: N3_24  and  C18_26 
ROOT
HETATM    1  N2  UNL     1     -10.287  15.747  29.030  1.00  0.00    -0.299 N 
HETATM    2  C13 UNL     1     -11.419  16.557  28.703  1.00  0.00     0.225 C 
HETATM    3  O2  UNL     1     -12.599  16.214  28.450  1.00  0.00    -0.273 OA
HETATM    4  C14 UNL     1     -10.953  17.971  28.706  1.00  0.00     0.106 C 
HETATM    5  C15 UNL     1      -9.532  17.818  28.210  1.00  0.00     0.044 C 
HETATM    6  C16 UNL     1      -9.119  16.390  28.375  1.00  0.00     0.185 C 
ENDROOT
BRANCH   1   7
HETATM    7  C5  UNL     1     -10.295  14.594  29.862  1.00  0.00     0.102 C 
BRANCH   7   8
HETATM    8  C4  UNL     1      -9.584  14.623  31.163  1.00  0.00     0.012 C 
BRANCH   8   9
HETATM    9  C2  UNL     1      -9.444  15.833  31.968  1.00  0.00     0.002 C 
HETATM   10  C1  UNL     1     -10.280  15.533  33.273  1.00  0.00     0.013 C 
HETATM   11  C3  UNL     1      -8.068  16.093  32.545  1.00  0.00     0.013 C 
ENDBRANCH   8   9
ENDBRANCH   7   8
BRANCH   7  12
HETATM   12  C6  UNL     1     -11.535  13.803  29.875  1.00  0.00     0.268 C 
HETATM   13  O1  UNL     1     -11.767  12.831  29.107  1.00  0.00    -0.266 OA
HETATM   14  N1  UNL     1     -12.574  14.120  30.803  1.00  0.00    -0.356 N 
ATOM     15  H1  UNL     1     -12.405  14.900  31.438  1.00  0.00     0.162 HD
BRANCH  14  16
HETATM   16  C7  UNL     1     -13.816  13.449  30.919  1.00  0.00     0.123 C 
BRANCH  16  17
HETATM   17  C8  UNL     1     -13.939  12.592  32.146  1.00  0.00     0.028 C 
BRANCH  17  18
HETATM   18  C9  UNL     1     -14.203  11.152  31.750  1.00  0.00    -0.050 C 
HETATM   19  C10 UNL     1     -15.073  11.170  30.510  1.00  0.00     0.014 C 
HETATM   20  C11 UNL     1     -14.901  10.425  32.871  1.00  0.00     0.014 C 
HETATM   21  C12 UNL     1     -12.933  10.422  31.410  1.00  0.00     0.014 C 
ENDBRANCH  17  18
ENDBRANCH  16  17
ENDBRANCH  14  16
ENDBRANCH   7  12
ENDBRANCH   1   7
BRANCH   6  22
HETATM   22  C17 UNL     1      -8.839  15.837  27.039  1.00  0.00     0.241 C 
HETATM   23  O3  UNL     1      -8.460  14.665  26.814  1.00  0.00    -0.271 OA
HETATM   24  N3  UNL     1      -8.993  16.657  25.857  1.00  0.00    -0.355 N 
ATOM     25  H3  UNL     1      -9.300  17.623  25.968  1.00  0.00     0.162 HD
BRANCH  24  26
HETATM   26  C18 UNL     1      -8.727  16.161  24.526  1.00  0.00     0.084 C 
HETATM   27  C19 UNL     1      -9.985  15.813  23.767  1.00  0.00     0.025 C 
HETATM   28  C20 UNL     1      -9.629  15.459  22.362  1.00  0.00     0.002 C 
HETATM   29  C21 UNL     1      -9.002  16.672  21.707  1.00  0.00     0.000 C 
HETATM   30  C22 UNL     1      -7.658  16.885  22.376  1.00  0.00     0.002 C 
HETATM   31  C23 UNL     1      -7.903  17.208  23.821  1.00  0.00     0.025 C 
ENDBRANCH  24  26
ENDBRANCH   6  22
TORSDOF 9
ENDMDL
