MODEL 1
REMARK VINA RESULT: -7.044775391      0.000      0.000
REMARK  1 active torsions:
REMARK  status: ('A' for Active; 'I' for Inactive)
REMARK    1  A    between atoms: C3_7  and  N3_8 
REMARK       I    between atoms: N3_8  and  C4_10 
ROOT
HETATM    1  C1  UNL     1      32.024  67.257   7.082  1.00  0.00     0.049 C 
HETATM    2  C2  UNL     1      31.264  66.641   7.978  1.00  0.00     0.089 A 
HETATM    3  N1  UNL     1      31.837  65.993   9.010  1.00  0.00    -0.296 N 
ATOM      4  H1  UNL     1      32.854  65.985   9.090  1.00  0.00     0.187 HD
HETATM    5  N2  UNL     1      31.123  65.373   9.914  1.00  0.00    -0.284 N 
ATOM      6  H2  UNL     1      31.586  64.892  10.685  1.00  0.00     0.188 HD
HETATM    7  C3  UNL     1      29.739  65.371   9.827  1.00  0.00     0.136 A 
HETATM    8  C5  UNL     1      29.122  66.021   8.788  1.00  0.00     0.052 A 
HETATM    9  C6  UNL     1      27.818  66.043   8.669  1.00  0.00     0.032 C 
HETATM   10  C7  UNL     1      29.893  66.676   7.834  1.00  0.00     0.212 A 
HETATM   11  O1  UNL     1      29.312  67.256   6.905  1.00  0.00    -0.285 OA
ENDROOT
BRANCH   7  12
HETATM   12  N3  UNL     1      29.165  64.761  10.726  1.00  0.00    -0.315 N 
HETATM   13  C4  UNL     1      28.679  64.726  11.968  1.00  0.00     0.187 C 
HETATM   14  N4  UNL     1      29.443  64.266  12.939  1.00  0.00    -0.373 N 
HETATM   15  N5  UNL     1      27.353  65.145  12.379  1.00  0.00    -0.064 NA
ATOM     16  H42 UNL     1      30.375  63.970  12.650  1.00  0.00     0.158 HD
ATOM     17  H41 UNL     1      29.072  64.239  13.888  1.00  0.00     0.158 HD
ATOM     18  H3  UNL     1      28.962  63.841  10.334  1.00  0.00     0.170 HD
ENDBRANCH   7  12
TORSDOF 1
ENDMDL
MODEL 2
REMARK VINA RESULT: -6.916145449      2.171      2.909
REMARK  1 active torsions:
REMARK  status: ('A' for Active; 'I' for Inactive)
REMARK    1  A    between atoms: C3_7  and  N3_8 
REMARK       I    between atoms: N3_8  and  C4_10 
ROOT
HETATM    1  C1  UNL     1      32.944  67.005   7.982  1.00  0.00     0.049 C 
HETATM    2  C2  UNL     1      31.653  66.737   8.127  1.00  0.00     0.089 A 
HETATM    3  N1  UNL     1      31.206  66.189   9.274  1.00  0.00    -0.296 N 
ATOM      4  H1  UNL     1      31.872  65.988  10.020  1.00  0.00     0.187 HD
HETATM    5  N2  UNL     1      29.942  65.909   9.456  1.00  0.00    -0.284 N 
ATOM      6  H2  UNL     1      29.635  65.495  10.336  1.00  0.00     0.188 HD
HETATM    7  C3  UNL     1      29.019  66.175   8.455  1.00  0.00     0.136 A 
HETATM    8  C5  UNL     1      29.439  66.732   7.274  1.00  0.00     0.052 A 
HETATM    9  C6  UNL     1      28.600  66.999   6.304  1.00  0.00     0.032 C 
HETATM   10  C7  UNL     1      30.786  67.025   7.094  1.00  0.00     0.212 A 
HETATM   11  O1  UNL     1      31.140  67.528   6.017  1.00  0.00    -0.285 OA
ENDROOT
BRANCH   7  12
HETATM   12  N3  UNL     1      27.859  65.875   8.728  1.00  0.00    -0.315 N 
HETATM   13  C4  UNL     1      26.562  65.882   8.415  1.00  0.00     0.187 C 
HETATM   14  N4  UNL     1      25.802  66.858   8.871  1.00  0.00    -0.373 N 
HETATM   15  N5  UNL     1      25.873  64.896   7.605  1.00  0.00    -0.064 NA
ATOM     16  H42 UNL     1      26.286  67.551   9.441  1.00  0.00     0.158 HD
ATOM     17  H41 UNL     1      24.811  66.863   8.633  1.00  0.00     0.158 HD
ATOM     18  H3  UNL     1      27.915  65.385   9.621  1.00  0.00     0.170 HD
ENDBRANCH   7  12
TORSDOF 1
ENDMDL
MODEL 3
REMARK VINA RESULT: -6.786307347      1.849      4.514
REMARK  1 active torsions:
REMARK  status: ('A' for Active; 'I' for Inactive)
REMARK    1  A    between atoms: C3_7  and  N3_8 
REMARK       I    between atoms: N3_8  and  C4_10 
ROOT
HETATM    1  C1  UNL     1      28.020  64.120  11.719  1.00  0.00     0.049 C 
HETATM    2  C2  UNL     1      28.704  64.834  10.834  1.00  0.00     0.089 A 
HETATM    3  N1  UNL     1      29.995  65.134  11.070  1.00  0.00    -0.296 N 
ATOM      4  H1  UNL     1      30.433  64.805  11.931  1.00  0.00     0.187 HD
HETATM    5  N2  UNL     1      30.704  65.836  10.224  1.00  0.00    -0.284 N 
ATOM      6  H2  UNL     1      31.680  66.046  10.431  1.00  0.00     0.188 HD
HETATM    7  C3  UNL     1      30.131  66.293   9.047  1.00  0.00     0.136 A 
HETATM    8  C5  UNL     1      28.817  66.006   8.775  1.00  0.00     0.052 A 
HETATM    9  C6  UNL     1      28.238  66.419   7.674  1.00  0.00     0.032 C 
HETATM   10  C7  UNL     1      28.075  65.259   9.683  1.00  0.00     0.212 A 
HETATM   11  O1  UNL     1      26.890  65.014   9.413  1.00  0.00    -0.285 OA
ENDROOT
BRANCH   7  12
HETATM   12  N3  UNL     1      30.882  66.942   8.323  1.00  0.00    -0.315 N 
HETATM   13  C4  UNL     1      31.624  67.032   7.218  1.00  0.00     0.187 C 
HETATM   14  N4  UNL     1      32.904  66.721   7.281  1.00  0.00    -0.373 N 
HETATM   15  N5  UNL     1      31.161  67.458   5.911  1.00  0.00    -0.064 NA
ATOM     16  H42 UNL     1      33.229  66.422   8.200  1.00  0.00     0.158 HD
ATOM     17  H41 UNL     1      33.471  66.791   6.437  1.00  0.00     0.158 HD
ATOM     18  H3  UNL     1      30.990  67.842   8.791  1.00  0.00     0.170 HD
ENDBRANCH   7  12
TORSDOF 1
ENDMDL
MODEL 4
REMARK VINA RESULT: -6.598905255      1.771      4.548
REMARK  1 active torsions:
REMARK  status: ('A' for Active; 'I' for Inactive)
REMARK    1  A    between atoms: C3_7  and  N3_8 
REMARK       I    between atoms: N3_8  and  C4_10 
ROOT
HETATM    1  C1  UNL     1      27.545  65.007  11.863  1.00  0.00     0.049 C 
HETATM    2  C2  UNL     1      28.353  65.284  10.849  1.00  0.00     0.089 A 
HETATM    3  N1  UNL     1      29.688  65.214  11.016  1.00  0.00    -0.296 N 
ATOM      4  H1  UNL     1      30.061  64.947  11.927  1.00  0.00     0.187 HD
HETATM    5  N2  UNL     1      30.518  65.480  10.042  1.00  0.00    -0.284 N 
ATOM      6  H2  UNL     1      31.524  65.418  10.200  1.00  0.00     0.188 HD
HETATM    7  C3  UNL     1      30.034  65.846   8.795  1.00  0.00     0.136 A 
HETATM    8  C5  UNL     1      28.680  65.927   8.588  1.00  0.00     0.052 A 
HETATM    9  C6  UNL     1      28.182  66.268   7.426  1.00  0.00     0.032 C 
HETATM   10  C7  UNL     1      27.808  65.642   9.633  1.00  0.00     0.212 A 
HETATM   11  O1  UNL     1      26.589  65.723   9.421  1.00  0.00    -0.285 OA
ENDROOT
BRANCH   7  12
HETATM   12  N3  UNL     1      30.897  66.073   7.951  1.00  0.00    -0.315 N 
HETATM   13  C4  UNL     1      31.763  66.917   7.384  1.00  0.00     0.187 C 
HETATM   14  N4  UNL     1      31.379  67.616   6.335  1.00  0.00    -0.373 N 
HETATM   15  N5  UNL     1      33.130  67.149   7.809  1.00  0.00    -0.064 NA
ATOM     16  H42 UNL     1      30.418  67.452   6.037  1.00  0.00     0.158 HD
ATOM     17  H41 UNL     1      32.040  68.260   5.903  1.00  0.00     0.158 HD
ATOM     18  H3  UNL     1      31.002  65.199   7.436  1.00  0.00     0.170 HD
ENDBRANCH   7  12
TORSDOF 1
ENDMDL
MODEL 5
REMARK VINA RESULT: -6.550854961      3.053      5.013
REMARK  1 active torsions:
REMARK  status: ('A' for Active; 'I' for Inactive)
REMARK    1  A    between atoms: C3_7  and  N3_8 
REMARK       I    between atoms: N3_8  and  C4_10 
ROOT
HETATM    1  C1  UNL     1      25.433  66.159   9.057  1.00  0.00     0.049 C 
HETATM    2  C2  UNL     1      26.698  66.181   8.657  1.00  0.00     0.089 A 
HETATM    3  N1  UNL     1      26.994  66.513   7.386  1.00  0.00    -0.296 N 
ATOM      4  H1  UNL     1      26.236  66.746   6.744  1.00  0.00     0.187 HD
HETATM    5  N2  UNL     1      28.227  66.546   6.953  1.00  0.00    -0.284 N 
ATOM      6  H2  UNL     1      28.420  66.803   5.985  1.00  0.00     0.188 HD
HETATM    7  C3  UNL     1      29.274  66.234   7.808  1.00  0.00     0.136 A 
HETATM    8  C5  UNL     1      29.009  65.891   9.110  1.00  0.00     0.052 A 
HETATM    9  C6  UNL     1      29.968  65.589   9.950  1.00  0.00     0.032 C 
HETATM   10  C7  UNL     1      27.693  65.860   9.557  1.00  0.00     0.212 A 
HETATM   11  O1  UNL     1      27.479  65.546  10.738  1.00  0.00    -0.285 OA
ENDROOT
BRANCH   7  12
HETATM   12  N3  UNL     1      30.392  66.296   7.302  1.00  0.00    -0.315 N 
HETATM   13  C4  UNL     1      31.503  66.987   7.040  1.00  0.00     0.187 C 
HETATM   14  N4  UNL     1      31.590  67.647   5.903  1.00  0.00    -0.373 N 
HETATM   15  N5  UNL     1      32.667  67.088   7.898  1.00  0.00    -0.064 NA
ATOM     16  H42 UNL     1      30.771  67.576   5.299  1.00  0.00     0.158 HD
ATOM     17  H41 UNL     1      32.438  68.175   5.703  1.00  0.00     0.158 HD
ATOM     18  H3  UNL     1      30.543  65.379   6.881  1.00  0.00     0.170 HD
ENDBRANCH   7  12
TORSDOF 1
ENDMDL
