MODEL 1
REMARK VINA RESULT: -4.573285970      0.000      0.000
REMARK  7 active torsions:
REMARK  status: ('A' for Active; 'I' for Inactive)
REMARK    1  A    between atoms: N1_1  and  C1_5 
REMARK    2  A    between atoms: C1_5  and  C2_6 
REMARK    3  A    between atoms: C2_6  and  N2_7 
REMARK    4  A    between atoms: C5_10  and  N3_11 
REMARK    5  A    between atoms: C5_10  and  C6_15 
REMARK    6  A    between atoms: C6_15  and  C7_16 
REMARK    7  A    between atoms: C7_16  and  N4_17 
ROOT
HETATM    1  N2  UNL     1      45.295  42.262  58.668  1.00  0.00     0.090 N 
HETATM    2  C3  UNL     1      46.452  41.447  58.555  1.00  0.00     0.275 C 
HETATM    3  C4  UNL     1      46.230  40.313  57.616  1.00  0.00     0.069 C 
HETATM    4  C5  UNL     1      44.956  39.521  57.860  1.00  0.00     0.128 C 
HETATM    5  C8  UNL     1      44.273  40.043  59.073  1.00  0.00     0.069 C 
HETATM    6  C9  UNL     1      44.105  41.556  59.005  1.00  0.00     0.275 C 
ENDROOT
BRANCH   4   7
HETATM    7  N3  UNL     1      44.108  39.708  56.686  1.00  0.00    -0.070 N 
ATOM      8  H33 UNL     1      44.632  39.967  55.850  1.00  0.00     0.275 HD
ATOM      9  H32 UNL     1      43.719  38.835  56.329  1.00  0.00     0.275 HD
ATOM     10  H31 UNL     1      43.395  40.391  56.941  1.00  0.00     0.275 HD
ENDBRANCH   4   7
BRANCH   4  11
HETATM   11  C6  UNL     1      45.282  38.062  58.023  1.00  0.00     0.066 C 
BRANCH  11  12
HETATM   12  C7  UNL     1      44.258  37.069  57.662  1.00  0.00     0.232 C 
BRANCH  12  13
HETATM   13  N4  UNL     1      43.896  36.091  58.621  1.00  0.00    -0.079 N 
ATOM     14  H43 UNL     1      44.742  35.639  58.969  1.00  0.00     0.274 HD
ATOM     15  H42 UNL     1      43.564  36.560  59.464  1.00  0.00     0.274 HD
ATOM     16  H41 UNL     1      43.222  35.374  58.355  1.00  0.00     0.274 HD
ENDBRANCH  12  13
ENDBRANCH  11  12
ENDBRANCH   4  11
BRANCH   1  17
HETATM   17  C2  UNL     1      45.402  43.458  59.407  1.00  0.00     0.299 C 
BRANCH  17  18
HETATM   18  C1  UNL     1      46.784  43.753  59.931  1.00  0.00     0.259 C 
BRANCH  18  19
HETATM   19  N1  UNL     1      46.633  44.319  61.258  1.00  0.00    -0.078 N 
ATOM     20  H13 UNL     1      45.658  44.398  61.549  1.00  0.00     0.274 HD
ATOM     21  H12 UNL     1      46.941  43.687  61.997  1.00  0.00     0.274 HD
ATOM     22  H11 UNL     1      47.125  45.212  61.267  1.00  0.00     0.274 HD
ENDBRANCH  18  19
ENDBRANCH  17  18
ENDBRANCH   1  17
TORSDOF 7
ENDMDL
MODEL 2
REMARK VINA RESULT: -4.562631754      1.491      2.114
REMARK  7 active torsions:
REMARK  status: ('A' for Active; 'I' for Inactive)
REMARK    1  A    between atoms: N1_1  and  C1_5 
REMARK    2  A    between atoms: C1_5  and  C2_6 
REMARK    3  A    between atoms: C2_6  and  N2_7 
REMARK    4  A    between atoms: C5_10  and  N3_11 
REMARK    5  A    between atoms: C5_10  and  C6_15 
REMARK    6  A    between atoms: C6_15  and  C7_16 
REMARK    7  A    between atoms: C7_16  and  N4_17 
ROOT
HETATM    1  N2  UNL     1      46.141  42.381  59.763  1.00  0.00     0.090 N 
HETATM    2  C3  UNL     1      44.773  42.311  59.389  1.00  0.00     0.275 C 
HETATM    3  C4  UNL     1      44.349  40.906  59.140  1.00  0.00     0.069 C 
HETATM    4  C5  UNL     1      45.266  40.113  58.224  1.00  0.00     0.128 C 
HETATM    5  C8  UNL     1      46.347  41.000  57.718  1.00  0.00     0.069 C 
HETATM    6  C9  UNL     1      47.034  41.739  58.860  1.00  0.00     0.275 C 
ENDROOT
BRANCH   4   7
HETATM    7  N3  UNL     1      45.834  39.032  59.024  1.00  0.00    -0.070 N 
ATOM      8  H33 UNL     1      45.224  38.732  59.784  1.00  0.00     0.275 HD
ATOM      9  H32 UNL     1      45.870  38.141  58.528  1.00  0.00     0.275 HD
ATOM     10  H31 UNL     1      46.749  39.350  59.345  1.00  0.00     0.275 HD
ENDBRANCH   4   7
BRANCH   4  11
HETATM   11  C6  UNL     1      44.477  39.537  57.080  1.00  0.00     0.066 C 
BRANCH  11  12
HETATM   12  C7  UNL     1      44.938  38.278  56.473  1.00  0.00     0.232 C 
BRANCH  12  13
HETATM   13  N4  UNL     1      44.394  37.059  56.949  1.00  0.00    -0.079 N 
ATOM     14  H43 UNL     1      45.157  36.413  57.151  1.00  0.00     0.274 HD
ATOM     15  H42 UNL     1      44.011  37.209  57.882  1.00  0.00     0.274 HD
ATOM     16  H41 UNL     1      43.698  36.581  56.378  1.00  0.00     0.274 HD
ENDBRANCH  12  13
ENDBRANCH  11  12
ENDBRANCH   4  11
BRANCH   1  17
HETATM   17  C2  UNL     1      46.647  43.632  60.174  1.00  0.00     0.299 C 
BRANCH  17  18
HETATM   18  C1  UNL     1      47.162  43.669  61.590  1.00  0.00     0.259 C 
BRANCH  18  19
HETATM   19  N1  UNL     1      48.610  43.639  61.526  1.00  0.00    -0.078 N 
ATOM     20  H13 UNL     1      49.007  42.766  61.877  1.00  0.00     0.274 HD
ATOM     21  H12 UNL     1      48.965  43.571  60.572  1.00  0.00     0.274 HD
ATOM     22  H11 UNL     1      48.955  44.461  62.022  1.00  0.00     0.274 HD
ENDBRANCH  18  19
ENDBRANCH  17  18
ENDBRANCH   1  17
TORSDOF 7
ENDMDL
MODEL 3
REMARK VINA RESULT: -4.507029218      1.122      1.186
REMARK  7 active torsions:
REMARK  status: ('A' for Active; 'I' for Inactive)
REMARK    1  A    between atoms: N1_1  and  C1_5 
REMARK    2  A    between atoms: C1_5  and  C2_6 
REMARK    3  A    between atoms: C2_6  and  N2_7 
REMARK    4  A    between atoms: C5_10  and  N3_11 
REMARK    5  A    between atoms: C5_10  and  C6_15 
REMARK    6  A    between atoms: C6_15  and  C7_16 
REMARK    7  A    between atoms: C7_16  and  N4_17 
ROOT
HETATM    1  N2  UNL     1      46.106  42.653  58.975  1.00  0.00     0.090 N 
HETATM    2  C3  UNL     1      46.923  41.548  58.617  1.00  0.00     0.275 C 
HETATM    3  C4  UNL     1      46.199  40.605  57.722  1.00  0.00     0.069 C 
HETATM    4  C5  UNL     1      44.815  40.201  58.202  1.00  0.00     0.128 C 
HETATM    5  C8  UNL     1      44.559  40.803  59.537  1.00  0.00     0.069 C 
HETATM    6  C9  UNL     1      44.844  42.300  59.531  1.00  0.00     0.275 C 
ENDROOT
BRANCH   4   7
HETATM    7  N3  UNL     1      43.860  40.716  57.226  1.00  0.00    -0.070 N 
ATOM      8  H33 UNL     1      43.653  41.707  57.351  1.00  0.00     0.275 HD
ATOM      9  H32 UNL     1      44.245  40.783  56.283  1.00  0.00     0.275 HD
ATOM     10  H31 UNL     1      43.032  40.123  57.279  1.00  0.00     0.275 HD
ENDBRANCH   4   7
BRANCH   4  11
HETATM   11  C6  UNL     1      44.712  38.701  58.270  1.00  0.00     0.066 C 
BRANCH  11  12
HETATM   12  C7  UNL     1      44.776  37.936  57.015  1.00  0.00     0.232 C 
BRANCH  12  13
HETATM   13  N4  UNL     1      44.327  36.593  57.018  1.00  0.00    -0.079 N 
ATOM     14  H43 UNL     1      45.102  35.983  56.758  1.00  0.00     0.274 HD
ATOM     15  H42 UNL     1      44.161  36.301  57.981  1.00  0.00     0.274 HD
ATOM     16  H41 UNL     1      43.512  36.351  56.454  1.00  0.00     0.274 HD
ENDBRANCH  12  13
ENDBRANCH  11  12
ENDBRANCH   4  11
BRANCH   1  17
HETATM   17  C2  UNL     1      46.704  43.706  59.699  1.00  0.00     0.299 C 
BRANCH  17  18
HETATM   18  C1  UNL     1      47.055  43.370  61.125  1.00  0.00     0.259 C 
BRANCH  18  19
HETATM   19  N1  UNL     1      48.491  43.515  61.264  1.00  0.00    -0.078 N 
ATOM     20  H13 UNL     1      48.876  44.255  60.676  1.00  0.00     0.274 HD
ATOM     21  H12 UNL     1      48.766  43.905  62.165  1.00  0.00     0.274 HD
ATOM     22  H11 UNL     1      48.909  42.603  61.080  1.00  0.00     0.274 HD
ENDBRANCH  18  19
ENDBRANCH  17  18
ENDBRANCH   1  17
TORSDOF 7
ENDMDL
MODEL 4
REMARK VINA RESULT: -4.472301504      2.292      5.320
REMARK  7 active torsions:
REMARK  status: ('A' for Active; 'I' for Inactive)
REMARK    1  A    between atoms: N1_1  and  C1_5 
REMARK    2  A    between atoms: C1_5  and  C2_6 
REMARK    3  A    between atoms: C2_6  and  N2_7 
REMARK    4  A    between atoms: C5_10  and  N3_11 
REMARK    5  A    between atoms: C5_10  and  C6_15 
REMARK    6  A    between atoms: C6_15  and  C7_16 
REMARK    7  A    between atoms: C7_16  and  N4_17 
ROOT
HETATM    1  N2  UNL     1      44.795  41.350  58.276  1.00  0.00     0.090 N 
HETATM    2  C3  UNL     1      44.762  42.259  59.365  1.00  0.00     0.275 C 
HETATM    3  C4  UNL     1      46.032  43.028  59.471  1.00  0.00     0.069 C 
HETATM    4  C5  UNL     1      47.296  42.186  59.426  1.00  0.00     0.128 C 
HETATM    5  C8  UNL     1      46.929  40.746  59.377  1.00  0.00     0.069 C 
HETATM    6  C9  UNL     1      45.916  40.472  58.272  1.00  0.00     0.275 C 
ENDROOT
BRANCH   4   7
HETATM    7  N3  UNL     1      48.017  42.564  58.215  1.00  0.00    -0.070 N 
ATOM      8  H33 UNL     1      48.806  41.952  58.010  1.00  0.00     0.275 HD
ATOM      9  H32 UNL     1      47.489  42.384  57.361  1.00  0.00     0.275 HD
ATOM     10  H31 UNL     1      48.285  43.542  58.322  1.00  0.00     0.275 HD
ENDBRANCH   4   7
BRANCH   4  11
HETATM   11  C6  UNL     1      48.147  42.473  60.634  1.00  0.00     0.066 C 
BRANCH  11  12
HETATM   12  C7  UNL     1      47.681  43.483  61.596  1.00  0.00     0.232 C 
BRANCH  12  13
HETATM   13  N4  UNL     1      48.563  44.533  61.955  1.00  0.00    -0.079 N 
ATOM     14  H43 UNL     1      49.416  44.453  61.401  1.00  0.00     0.274 HD
ATOM     15  H42 UNL     1      48.185  45.415  61.608  1.00  0.00     0.274 HD
ATOM     16  H41 UNL     1      48.814  44.644  62.936  1.00  0.00     0.274 HD
ENDBRANCH  12  13
ENDBRANCH  11  12
ENDBRANCH   4  11
BRANCH   1  17
HETATM   17  C2  UNL     1      43.608  40.658  57.960  1.00  0.00     0.299 C 
BRANCH  17  18
HETATM   18  C1  UNL     1      42.373  41.521  57.899  1.00  0.00     0.259 C 
BRANCH  18  19
HETATM   19  N1  UNL     1      42.099  41.789  56.500  1.00  0.00    -0.078 N 
ATOM     20  H13 UNL     1      41.102  41.810  56.286  1.00  0.00     0.274 HD
ATOM     21  H12 UNL     1      42.314  42.748  56.230  1.00  0.00     0.274 HD
ATOM     22  H11 UNL     1      42.610  41.096  55.951  1.00  0.00     0.274 HD
ENDBRANCH  18  19
ENDBRANCH  17  18
ENDBRANCH   1  17
TORSDOF 7
ENDMDL
MODEL 5
REMARK VINA RESULT: -4.469492407      1.558      5.555
REMARK  7 active torsions:
REMARK  status: ('A' for Active; 'I' for Inactive)
REMARK    1  A    between atoms: N1_1  and  C1_5 
REMARK    2  A    between atoms: C1_5  and  C2_6 
REMARK    3  A    between atoms: C2_6  and  N2_7 
REMARK    4  A    between atoms: C5_10  and  N3_11 
REMARK    5  A    between atoms: C5_10  and  C6_15 
REMARK    6  A    between atoms: C6_15  and  C7_16 
REMARK    7  A    between atoms: C7_16  and  N4_17 
ROOT
HETATM    1  N2  UNL     1      44.972  40.971  58.226  1.00  0.00     0.090 N 
HETATM    2  C3  UNL     1      44.648  41.603  59.455  1.00  0.00     0.275 C 
HETATM    3  C4  UNL     1      45.637  42.663  59.798  1.00  0.00     0.069 C 
HETATM    4  C5  UNL     1      47.092  42.234  59.705  1.00  0.00     0.128 C 
HETATM    5  C8  UNL     1      47.161  40.788  59.369  1.00  0.00     0.069 C 
HETATM    6  C9  UNL     1      46.299  40.461  58.155  1.00  0.00     0.275 C 
ENDROOT
BRANCH   4   7
HETATM    7  N3  UNL     1      47.702  43.028  58.643  1.00  0.00    -0.070 N 
ATOM      8  H33 UNL     1      47.144  43.840  58.378  1.00  0.00     0.275 HD
ATOM      9  H32 UNL     1      48.532  43.536  58.948  1.00  0.00     0.275 HD
ATOM     10  H31 UNL     1      47.882  42.394  57.865  1.00  0.00     0.275 HD
ENDBRANCH   4   7
BRANCH   4  11
HETATM   11  C6  UNL     1      47.792  42.508  61.009  1.00  0.00     0.066 C 
BRANCH  11  12
HETATM   12  C7  UNL     1      47.532  43.786  61.690  1.00  0.00     0.232 C 
BRANCH  12  13
HETATM   13  N4  UNL     1      48.636  44.603  62.038  1.00  0.00    -0.079 N 
ATOM     14  H43 UNL     1      48.470  45.008  62.960  1.00  0.00     0.274 HD
ATOM     15  H42 UNL     1      49.442  44.008  62.227  1.00  0.00     0.274 HD
ATOM     16  H41 UNL     1      48.914  45.344  61.396  1.00  0.00     0.274 HD
ENDBRANCH  12  13
ENDBRANCH  11  12
ENDBRANCH   4  11
BRANCH   1  17
HETATM   17  C2  UNL     1      44.045  40.049  57.697  1.00  0.00     0.299 C 
BRANCH  17  18
HETATM   18  C1  UNL     1      44.658  38.796  57.127  1.00  0.00     0.259 C 
BRANCH  18  19
HETATM   19  N1  UNL     1      44.400  37.721  58.066  1.00  0.00    -0.078 N 
ATOM     20  H13 UNL     1      45.017  36.919  57.932  1.00  0.00     0.274 HD
ATOM     21  H12 UNL     1      44.683  37.949  59.019  1.00  0.00     0.274 HD
ATOM     22  H11 UNL     1      43.412  37.480  57.990  1.00  0.00     0.274 HD
ENDBRANCH  18  19
ENDBRANCH  17  18
ENDBRANCH   1  17
TORSDOF 7
ENDMDL
