MODEL 1
REMARK VINA RESULT: -6.202992002      0.000      0.000
REMARK  4 active torsions:
REMARK  status: ('A' for Active; 'I' for Inactive)
REMARK    1  A    between atoms: C2_2  and  C3_3 
REMARK    2  A    between atoms: C3_3  and  N1_4 
REMARK    3  A    between atoms: N1_4  and  C4_6 
REMARK    4  A    between atoms: C6_10  and  C7_11 
ROOT
HETATM    1  C4  UNL     1      44.839  40.664  58.414  1.00  0.00     0.119 A 
HETATM    2  C5  UNL     1      46.172  40.513  58.779  1.00  0.00     0.137 A 
HETATM    3  N2  UNL     1      46.819  41.510  59.406  1.00  0.00    -0.357 N 
ATOM      4  H2  UNL     1      47.796  41.376  59.664  1.00  0.00     0.165 HD
HETATM    5  C6  UNL     1      46.219  42.688  59.710  1.00  0.00     0.116 A 
HETATM    6  C8  UNL     1      44.898  42.813  59.338  1.00  0.00     0.275 A 
HETATM    7  O1  UNL     1      44.334  43.911  59.619  1.00  0.00    -0.266 OA
HETATM    8  N4  UNL     1      44.233  41.827  58.709  1.00  0.00    -0.307 N 
ATOM      9  H4  UNL     1      43.256  41.963  58.453  1.00  0.00     0.170 HD
ENDROOT
BRANCH   1  10
HETATM   10  N1  UNL     1      44.149  39.604  57.746  1.00  0.00    -0.372 N 
ATOM     11  H1  UNL     1      43.202  39.334  58.014  1.00  0.00     0.161 HD
BRANCH  10  12
HETATM   12  C3  UNL     1      44.851  38.929  56.670  1.00  0.00     0.147 C 
BRANCH  12  13
HETATM   13  C2  UNL     1      44.978  37.480  56.921  1.00  0.00    -0.018 C 
HETATM   14  C1  UNL     1      44.293  36.916  57.907  1.00  0.00     0.008 C 
ENDBRANCH  12  13
ENDBRANCH  10  12
ENDBRANCH   1  10
BRANCH   5  15
HETATM   15  C7  UNL     1      46.933  43.759  60.390  1.00  0.00     0.116 C 
HETATM   16  N3  UNL     1      46.849  44.001  61.632  1.00  0.00    -0.406 N 
ATOM     17  H32 UNL     1      46.235  43.395  62.177  1.00  0.00     0.155 HD
ATOM     18  H31 UNL     1      47.349  44.752  62.108  1.00  0.00     0.155 HD
ENDBRANCH   5  15
TORSDOF 4
ENDMDL
MODEL 2
REMARK VINA RESULT: -5.829386999      1.396      1.763
REMARK  4 active torsions:
REMARK  status: ('A' for Active; 'I' for Inactive)
REMARK    1  A    between atoms: C2_2  and  C3_3 
REMARK    2  A    between atoms: C3_3  and  N1_4 
REMARK    3  A    between atoms: N1_4  and  C4_6 
REMARK    4  A    between atoms: C6_10  and  C7_11 
ROOT
HETATM    1  C4  UNL     1      44.778  40.609  58.422  1.00  0.00     0.119 A 
HETATM    2  C5  UNL     1      44.062  41.760  58.736  1.00  0.00     0.137 A 
HETATM    3  N2  UNL     1      44.664  42.778  59.376  1.00  0.00    -0.357 N 
ATOM      4  H2  UNL     1      44.120  43.610  59.595  1.00  0.00     0.165 HD
HETATM    5  C6  UNL     1      45.971  42.737  59.739  1.00  0.00     0.116 A 
HETATM    6  C8  UNL     1      46.657  41.586  59.416  1.00  0.00     0.275 A 
HETATM    7  O1  UNL     1      47.877  41.543  59.754  1.00  0.00    -0.266 OA
HETATM    8  N4  UNL     1      46.072  40.557  58.777  1.00  0.00    -0.307 N 
ATOM      9  H4  UNL     1      46.620  39.725  58.558  1.00  0.00     0.170 HD
ENDROOT
BRANCH   1  10
HETATM   10  N1  UNL     1      44.138  39.525  57.742  1.00  0.00    -0.372 N 
ATOM     11  H1  UNL     1      43.177  39.257  57.955  1.00  0.00     0.161 HD
BRANCH  10  12
HETATM   12  C3  UNL     1      44.913  38.823  56.736  1.00  0.00     0.147 C 
BRANCH  12  13
HETATM   13  C2  UNL     1      45.101  37.401  57.081  1.00  0.00    -0.018 C 
HETATM   14  C1  UNL     1      44.173  36.761  57.781  1.00  0.00     0.008 C 
ENDBRANCH  12  13
ENDBRANCH  10  12
ENDBRANCH   1  10
BRANCH   5  15
HETATM   15  C7  UNL     1      46.609  43.847  60.430  1.00  0.00     0.116 C 
HETATM   16  N3  UNL     1      46.975  43.821  61.644  1.00  0.00    -0.406 N 
ATOM     17  H32 UNL     1      46.803  42.956  62.156  1.00  0.00     0.155 HD
ATOM     18  H31 UNL     1      47.422  44.600  62.129  1.00  0.00     0.155 HD
ENDBRANCH   5  15
TORSDOF 4
ENDMDL
MODEL 3
REMARK VINA RESULT: -5.685549566      0.606      1.028
REMARK  4 active torsions:
REMARK  status: ('A' for Active; 'I' for Inactive)
REMARK    1  A    between atoms: C2_2  and  C3_3 
REMARK    2  A    between atoms: C3_3  and  N1_4 
REMARK    3  A    between atoms: N1_4  and  C4_6 
REMARK    4  A    between atoms: C6_10  and  C7_11 
ROOT
HETATM    1  C4  UNL     1      44.775  40.866  58.608  1.00  0.00     0.119 A 
HETATM    2  C5  UNL     1      46.105  40.642  58.948  1.00  0.00     0.137 A 
HETATM    3  N2  UNL     1      46.823  41.610  59.544  1.00  0.00    -0.357 N 
ATOM      4  H2  UNL     1      47.796  41.423  59.783  1.00  0.00     0.165 HD
HETATM    5  C6  UNL     1      46.300  42.826  59.838  1.00  0.00     0.116 A 
HETATM    6  C8  UNL     1      44.980  43.023  59.491  1.00  0.00     0.275 A 
HETATM    7  O1  UNL     1      44.488  44.157  59.763  1.00  0.00    -0.266 OA
HETATM    8  N4  UNL     1      44.245  42.067  58.894  1.00  0.00    -0.307 N 
ATOM      9  H4  UNL     1      43.272  42.257  58.656  1.00  0.00     0.170 HD
ENDROOT
BRANCH   1  10
HETATM   10  N1  UNL     1      44.009  39.837  57.974  1.00  0.00    -0.372 N 
ATOM     11  H1  UNL     1      43.068  40.015  57.624  1.00  0.00     0.161 HD
BRANCH  10  12
HETATM   12  C3  UNL     1      44.628  38.531  57.848  1.00  0.00     0.147 C 
BRANCH  12  13
HETATM   13  C2  UNL     1      44.980  38.222  56.448  1.00  0.00    -0.018 C 
HETATM   14  C1  UNL     1      44.663  39.074  55.483  1.00  0.00     0.008 C 
ENDBRANCH  12  13
ENDBRANCH  10  12
ENDBRANCH   1  10
BRANCH   5  15
HETATM   15  C7  UNL     1      47.089  43.865  60.484  1.00  0.00     0.116 C 
HETATM   16  N3  UNL     1      47.032  44.146  61.719  1.00  0.00    -0.406 N 
ATOM     17  H32 UNL     1      46.383  43.598  62.284  1.00  0.00     0.155 HD
ATOM     18  H31 UNL     1      47.586  44.874  62.171  1.00  0.00     0.155 HD
ENDBRANCH   5  15
TORSDOF 4
ENDMDL
MODEL 4
REMARK VINA RESULT: -5.661192599      1.154      1.266
REMARK  4 active torsions:
REMARK  status: ('A' for Active; 'I' for Inactive)
REMARK    1  A    between atoms: C2_2  and  C3_3 
REMARK    2  A    between atoms: C3_3  and  N1_4 
REMARK    3  A    between atoms: N1_4  and  C4_6 
REMARK    4  A    between atoms: C6_10  and  C7_11 
ROOT
HETATM    1  C4  UNL     1      45.961  41.278  58.566  1.00  0.00     0.119 A 
HETATM    2  C5  UNL     1      47.189  41.088  59.190  1.00  0.00     0.137 A 
HETATM    3  N2  UNL     1      47.616  41.957  60.123  1.00  0.00    -0.357 N 
ATOM      4  H2  UNL     1      48.520  41.797  60.567  1.00  0.00     0.165 HD
HETATM    5  C6  UNL     1      46.887  43.038  60.496  1.00  0.00     0.116 A 
HETATM    6  C8  UNL     1      45.674  43.204  59.863  1.00  0.00     0.275 A 
HETATM    7  O1  UNL     1      44.991  44.213  60.207  1.00  0.00    -0.266 OA
HETATM    8  N4  UNL     1      45.230  42.346  58.927  1.00  0.00    -0.307 N 
ATOM      9  H4  UNL     1      44.326  42.508  58.485  1.00  0.00     0.170 HD
ENDROOT
BRANCH   1  10
HETATM   10  N1  UNL     1      45.506  40.354  57.573  1.00  0.00    -0.372 N 
ATOM     11  H1  UNL     1      45.941  40.308  56.651  1.00  0.00     0.161 HD
BRANCH  10  12
HETATM   12  C3  UNL     1      44.401  39.484  57.932  1.00  0.00     0.147 C 
BRANCH  12  13
HETATM   13  C2  UNL     1      44.826  38.076  58.046  1.00  0.00    -0.018 C 
HETATM   14  C1  UNL     1      44.795  37.286  56.981  1.00  0.00     0.008 C 
ENDBRANCH  12  13
ENDBRANCH  10  12
ENDBRANCH   1  10
BRANCH   5  15
HETATM   15  C7  UNL     1      47.362  43.970  61.508  1.00  0.00     0.116 C 
HETATM   16  N3  UNL     1      48.556  44.023  61.932  1.00  0.00    -0.406 N 
ATOM     17  H32 UNL     1      49.216  43.361  61.524  1.00  0.00     0.155 HD
ATOM     18  H31 UNL     1      48.888  44.677  62.641  1.00  0.00     0.155 HD
ENDBRANCH   5  15
TORSDOF 4
ENDMDL
MODEL 5
REMARK VINA RESULT: -5.610375264      1.727      1.929
REMARK  4 active torsions:
REMARK  status: ('A' for Active; 'I' for Inactive)
REMARK    1  A    between atoms: C2_2  and  C3_3 
REMARK    2  A    between atoms: C3_3  and  N1_4 
REMARK    3  A    between atoms: N1_4  and  C4_6 
REMARK    4  A    between atoms: C6_10  and  C7_11 
ROOT
HETATM    1  C4  UNL     1      45.047  40.707  58.279  1.00  0.00     0.119 A 
HETATM    2  C5  UNL     1      44.583  41.457  59.354  1.00  0.00     0.137 A 
HETATM    3  N2  UNL     1      45.401  42.318  59.983  1.00  0.00    -0.357 N 
ATOM      4  H2  UNL     1      45.038  42.856  60.769  1.00  0.00     0.165 HD
HETATM    5  C6  UNL     1      46.693  42.497  59.610  1.00  0.00     0.116 A 
HETATM    6  C8  UNL     1      47.129  41.743  58.542  1.00  0.00     0.275 A 
HETATM    7  O1  UNL     1      48.334  41.907  58.190  1.00  0.00    -0.266 OA
HETATM    8  N4  UNL     1      46.325  40.876  57.900  1.00  0.00    -0.307 N 
ATOM      9  H4  UNL     1      46.691  40.339  57.114  1.00  0.00     0.170 HD
ENDROOT
BRANCH   1  10
HETATM   10  N1  UNL     1      44.178  39.791  57.609  1.00  0.00    -0.372 N 
ATOM     11  H1  UNL     1      43.166  39.925  57.603  1.00  0.00     0.161 HD
BRANCH  10  12
HETATM   12  C3  UNL     1      44.793  38.661  56.937  1.00  0.00     0.147 C 
BRANCH  12  13
HETATM   13  C2  UNL     1      44.874  37.478  57.814  1.00  0.00    -0.018 C 
HETATM   14  C1  UNL     1      44.109  36.421  57.573  1.00  0.00     0.008 C 
ENDBRANCH  12  13
ENDBRANCH  10  12
ENDBRANCH   1  10
BRANCH   5  15
HETATM   15  C7  UNL     1      47.568  43.434  60.300  1.00  0.00     0.116 C 
HETATM   16  N3  UNL     1      48.656  43.115  60.866  1.00  0.00    -0.406 N 
ATOM     17  H32 UNL     1      48.922  42.131  60.826  1.00  0.00     0.155 HD
ATOM     18  H31 UNL     1      49.269  43.772  61.350  1.00  0.00     0.155 HD
ENDBRANCH   5  15
TORSDOF 4
ENDMDL
