MODEL 1
REMARK VINA RESULT: -8.705354162      0.000      0.000
REMARK  8 active torsions:
REMARK  status: ('A' for Active; 'I' for Inactive)
REMARK    1  A    between atoms: C5_6  and  C6_7 
REMARK    2  A    between atoms: C8_9  and  N1_10 
REMARK    3  A    between atoms: N1_10  and  C9_12 
REMARK    4  A    between atoms: C11_17  and  N4_18 
REMARK    5  A    between atoms: C13_27  and  N7_28 
REMARK    6  A    between atoms: C14_33  and  C15_34 
REMARK    7  A    between atoms: C15_34  and  C16_35 
REMARK    8  A    between atoms: N9_37  and  C18_38 
ROOT
HETATM    1  C1  UNL     1      35.716 -32.998 -36.788  1.00  0.00     0.068 C 
HETATM    2  C2  UNL     1      34.592 -32.054 -37.089  1.00  0.00     0.009 A 
HETATM    3  C3  UNL     1      33.290 -32.490 -37.078  1.00  0.00     0.080 A 
HETATM    4  C4  UNL     1      32.260 -31.629 -37.350  1.00  0.00     0.188 A 
HETATM    5  O1  UNL     1      31.067 -32.036 -37.333  1.00  0.00    -0.287 OA
HETATM    6  C5  UNL     1      32.485 -30.269 -37.652  1.00  0.00     0.064 A 
HETATM    7  C14 UNL     1      33.790 -29.875 -37.657  1.00  0.00     0.031 A 
HETATM    8  N14 UNL     1      34.796 -30.770 -37.375  1.00  0.00    -0.362 N 
ATOM      9  H14 UNL     1      35.757 -30.429 -37.386  1.00  0.00     0.165 HD
ENDROOT
BRANCH   6  10
HETATM   10  C6  UNL     1      31.328 -29.450 -37.992  1.00  0.00     0.069 A 
HETATM   11  C7  UNL     1      31.120 -28.153 -37.640  1.00  0.00     0.080 A 
HETATM   12  C8  UNL     1      29.930 -27.452 -37.897  1.00  0.00     0.123 A 
HETATM   13  N6  UNL     1      28.958 -28.126 -38.525  1.00  0.00    -0.177 N 
HETATM   14  C13 UNL     1      29.129 -29.415 -38.888  1.00  0.00     0.677 A 
ATOM     15  H6  UNL     1      28.075 -27.659 -38.733  1.00  0.00     0.185 HD
HETATM   16  N8  UNL     1      30.279 -30.060 -38.631  1.00  0.00    -0.191 N 
ATOM     17  H8  UNL     1      30.374 -31.034 -38.919  1.00  0.00     0.184 HD
BRANCH  12  18
HETATM   18  N1  UNL     1      29.870 -26.247 -37.516  1.00  0.00    -0.335 N 
ATOM     19  H1  UNL     1      29.523 -26.088 -36.570  1.00  0.00     0.168 HD
BRANCH  18  20
HETATM   20  C9  UNL     1      30.227 -25.109 -38.246  1.00  0.00     0.145 A 
HETATM   21  C10 UNL     1      31.364 -24.413 -37.872  1.00  0.00     0.164 A 
HETATM   22  N2  UNL     1      32.143 -24.859 -36.761  1.00  0.00    -0.080 NA
HETATM   23  N3  UNL     1      31.753 -23.297 -38.554  1.00  0.00    -0.177 N 
HETATM   24  C11 UNL     1      31.047 -22.847 -39.605  1.00  0.00     0.680 A 
ATOM     25  H3  UNL     1      32.593 -22.797 -38.262  1.00  0.00     0.185 HD
HETATM   26  N5  UNL     1      29.946 -23.509 -39.978  1.00  0.00    -0.154 N 
HETATM   27  C12 UNL     1      29.525 -24.620 -39.328  1.00  0.00     0.289 A 
ATOM     28  H5  UNL     1      29.409 -23.167 -40.775  1.00  0.00     0.187 HD
HETATM   29  O2  UNL     1      28.491 -25.243 -39.678  1.00  0.00    -0.265 OA
BRANCH  24  30
HETATM   30  N4  UNL     1      31.440 -21.774 -40.243  1.00  0.00    -0.234 N 
ATOM     31  H42 UNL     1      31.842 -20.981 -39.743  1.00  0.00     0.174 HD
ATOM     32  H41 UNL     1      31.347 -21.724 -41.258  1.00  0.00     0.174 HD
ENDBRANCH  24  30
ENDBRANCH  18  20
ENDBRANCH  12  18
BRANCH  14  33
HETATM   33  N7  UNL     1      28.148 -29.998 -39.489  1.00  0.00    -0.234 N 
ATOM     34  H72 UNL     1      27.382 -29.465 -39.900  1.00  0.00     0.174 HD
ATOM     35  H71 UNL     1      28.166 -31.017 -39.538  1.00  0.00     0.174 HD
ENDBRANCH  14  33
ENDBRANCH   6  10
BRANCH   7  36
HETATM   36  C15 UNL     1      34.200 -28.519 -38.073  1.00  0.00     0.116 C 
BRANCH  36  37
HETATM   37  C16 UNL     1      33.905 -28.307 -39.519  1.00  0.00     0.031 A 
HETATM   38  C17 UNL     1      33.322 -27.157 -40.064  1.00  0.00     0.117 A 
HETATM   39  N9  UNL     1      33.198 -27.297 -41.386  1.00  0.00    -0.341 N 
HETATM   40  C25 UNL     1      33.698 -28.527 -41.679  1.00  0.00     0.183 A 
HETATM   41  N13 UNL     1      34.111 -29.106 -40.551  1.00  0.00    -0.354 N 
ATOM     42  H13 UNL     1      34.526 -30.036 -40.493  1.00  0.00     0.166 HD
BRANCH  39  43
HETATM   43  C18 UNL     1      32.668 -26.407 -42.378  1.00  0.00     0.143 C 
HETATM   44  C19 UNL     1      33.149 -26.734 -43.773  1.00  0.00     0.032 C 
HETATM   45  C20 UNL     1      33.088 -25.495 -44.624  1.00  0.00     0.004 C 
HETATM   46  C21 UNL     1      31.712 -25.182 -45.115  1.00  0.00     0.022 C 
HETATM   47  C22 UNL     1      30.853 -24.512 -44.047  1.00  0.00     0.150 C 
HETATM   48  N10 UNL     1      30.423 -25.595 -43.155  1.00  0.00    -0.279 N 
HETATM   49  N11 UNL     1      29.137 -25.899 -42.953  1.00  0.00    -0.241 N 
HETATM   50  C24 UNL     1      31.175 -26.412 -42.435  1.00  0.00     0.070 A 
HETATM   51  N12 UNL     1      29.077 -26.905 -42.109  1.00  0.00    -0.295 N 
ATOM     52  H11 UNL     1      28.338 -25.431 -43.381  1.00  0.00     0.208 HD
HETATM   53  C23 UNL     1      30.338 -27.263 -41.755  1.00  0.00     0.137 A 
ATOM     54  H12 UNL     1      28.221 -27.346 -41.773  1.00  0.00     0.187 HD
ENDBRANCH  39  43
ENDBRANCH  36  37
ENDBRANCH   7  36
TORSDOF 8
ENDMDL
MODEL 2
REMARK VINA RESULT: -8.629542724      3.508      7.258
REMARK  8 active torsions:
REMARK  status: ('A' for Active; 'I' for Inactive)
REMARK    1  A    between atoms: C5_6  and  C6_7 
REMARK    2  A    between atoms: C8_9  and  N1_10 
REMARK    3  A    between atoms: N1_10  and  C9_12 
REMARK    4  A    between atoms: C11_17  and  N4_18 
REMARK    5  A    between atoms: C13_27  and  N7_28 
REMARK    6  A    between atoms: C14_33  and  C15_34 
REMARK    7  A    between atoms: C15_34  and  C16_35 
REMARK    8  A    between atoms: N9_37  and  C18_38 
ROOT
HETATM    1  C1  UNL     1      31.749 -24.666 -45.747  1.00  0.00     0.068 C 
HETATM    2  C2  UNL     1      31.482 -25.186 -44.366  1.00  0.00     0.009 A 
HETATM    3  C3  UNL     1      30.407 -24.730 -43.643  1.00  0.00     0.080 A 
HETATM    4  C4  UNL     1      30.159 -25.204 -42.383  1.00  0.00     0.188 A 
HETATM    5  O1  UNL     1      29.166 -24.783 -41.727  1.00  0.00    -0.287 OA
HETATM    6  C5  UNL     1      30.985 -26.171 -41.773  1.00  0.00     0.064 A 
HETATM    7  C14 UNL     1      32.044 -26.597 -42.521  1.00  0.00     0.031 A 
HETATM    8  N14 UNL     1      32.257 -26.098 -43.784  1.00  0.00    -0.362 N 
ATOM      9  H14 UNL     1      33.059 -26.449 -44.308  1.00  0.00     0.165 HD
ENDROOT
BRANCH   6  10
HETATM   10  C6  UNL     1      30.674 -26.563 -40.404  1.00  0.00     0.069 A 
HETATM   11  C7  UNL     1      29.920 -27.625 -40.015  1.00  0.00     0.080 A 
HETATM   12  C8  UNL     1      29.558 -27.884 -38.682  1.00  0.00     0.123 A 
HETATM   13  N6  UNL     1      29.993 -27.014 -37.761  1.00  0.00    -0.177 N 
HETATM   14  C13 UNL     1      30.742 -25.947 -38.111  1.00  0.00     0.677 A 
ATOM     15  H6  UNL     1      29.754 -27.160 -36.780  1.00  0.00     0.185 HD
HETATM   16  N8  UNL     1      31.075 -25.726 -39.394  1.00  0.00    -0.191 N 
ATOM     17  H8  UNL     1      31.643 -24.910 -39.623  1.00  0.00     0.184 HD
BRANCH  12  18
HETATM   18  N1  UNL     1      28.853 -28.910 -38.459  1.00  0.00    -0.335 N 
ATOM     19  H1  UNL     1      27.842 -28.778 -38.479  1.00  0.00     0.168 HD
BRANCH  18  20
HETATM   20  C9  UNL     1      29.304 -30.206 -38.188  1.00  0.00     0.145 A 
HETATM   21  C10 UNL     1      28.433 -31.264 -38.385  1.00  0.00     0.164 A 
HETATM   22  N2  UNL     1      27.106 -31.021 -38.852  1.00  0.00    -0.080 NA
HETATM   23  N3  UNL     1      28.828 -32.546 -38.136  1.00  0.00    -0.177 N 
HETATM   24  C11 UNL     1      30.069 -32.815 -37.696  1.00  0.00     0.680 A 
ATOM     25  H3  UNL     1      28.172 -33.312 -38.286  1.00  0.00     0.185 HD
HETATM   26  N5  UNL     1      30.922 -31.803 -37.502  1.00  0.00    -0.154 N 
HETATM   27  C12 UNL     1      30.570 -30.516 -37.737  1.00  0.00     0.289 A 
ATOM     28  H5  UNL     1      31.864 -32.006 -37.167  1.00  0.00     0.187 HD
HETATM   29  O2  UNL     1      31.371 -29.564 -37.554  1.00  0.00    -0.265 OA
BRANCH  24  30
HETATM   30  N4  UNL     1      30.425 -34.053 -37.464  1.00  0.00    -0.234 N 
ATOM     31  H42 UNL     1      30.008 -34.587 -36.701  1.00  0.00     0.174 HD
ATOM     32  H41 UNL     1      31.129 -34.498 -38.052  1.00  0.00     0.174 HD
ENDBRANCH  24  30
ENDBRANCH  18  20
ENDBRANCH  12  18
BRANCH  14  33
HETATM   33  N7  UNL     1      31.124 -25.154 -37.169  1.00  0.00    -0.234 N 
ATOM     34  H72 UNL     1      30.735 -24.217 -37.070  1.00  0.00     0.174 HD
ATOM     35  H71 UNL     1      31.833 -25.500 -36.522  1.00  0.00     0.174 HD
ENDBRANCH  14  33
ENDBRANCH   6  10
BRANCH   7  36
HETATM   36  C15 UNL     1      33.069 -27.511 -41.982  1.00  0.00     0.116 C 
BRANCH  36  37
HETATM   37  C16 UNL     1      33.438 -28.537 -42.999  1.00  0.00     0.031 A 
HETATM   38  C17 UNL     1      32.600 -29.564 -43.451  1.00  0.00     0.117 A 
HETATM   39  N9  UNL     1      33.242 -30.303 -44.358  1.00  0.00    -0.341 N 
HETATM   40  C25 UNL     1      34.478 -29.751 -44.482  1.00  0.00     0.183 A 
HETATM   41  N13 UNL     1      34.568 -28.703 -43.662  1.00  0.00    -0.354 N 
ATOM     42  H13 UNL     1      35.394 -28.113 -43.561  1.00  0.00     0.166 HD
BRANCH  39  43
HETATM   43  C18 UNL     1      32.815 -31.452 -45.104  1.00  0.00     0.143 C 
HETATM   44  C19 UNL     1      33.560 -31.611 -46.409  1.00  0.00     0.032 C 
HETATM   45  C20 UNL     1      32.713 -32.392 -47.375  1.00  0.00     0.004 C 
HETATM   46  C21 UNL     1      32.733 -33.865 -47.123  1.00  0.00     0.022 C 
HETATM   47  C22 UNL     1      31.821 -34.269 -45.969  1.00  0.00     0.150 C 
HETATM   48  N10 UNL     1      32.560 -33.925 -44.749  1.00  0.00    -0.279 N 
HETATM   49  N11 UNL     1      32.903 -34.832 -43.828  1.00  0.00    -0.241 N 
HETATM   50  C24 UNL     1      32.992 -32.736 -44.359  1.00  0.00     0.070 A 
HETATM   51  N12 UNL     1      33.549 -34.218 -42.862  1.00  0.00    -0.295 N 
ATOM     52  H11 UNL     1      32.698 -35.830 -43.870  1.00  0.00     0.208 HD
HETATM   53  C23 UNL     1      33.630 -32.895 -43.153  1.00  0.00     0.137 A 
ATOM     54  H12 UNL     1      33.928 -34.665 -42.027  1.00  0.00     0.187 HD
ENDBRANCH  39  43
ENDBRANCH  36  37
ENDBRANCH   7  36
TORSDOF 8
ENDMDL
MODEL 3
REMARK VINA RESULT: -8.484748385      3.352      4.613
REMARK  8 active torsions:
REMARK  status: ('A' for Active; 'I' for Inactive)
REMARK    1  A    between atoms: C5_6  and  C6_7 
REMARK    2  A    between atoms: C8_9  and  N1_10 
REMARK    3  A    between atoms: N1_10  and  C9_12 
REMARK    4  A    between atoms: C11_17  and  N4_18 
REMARK    5  A    between atoms: C13_27  and  N7_28 
REMARK    6  A    between atoms: C14_33  and  C15_34 
REMARK    7  A    between atoms: C15_34  and  C16_35 
REMARK    8  A    between atoms: N9_37  and  C18_38 
ROOT
HETATM    1  C1  UNL     1      31.097 -35.613 -36.490  1.00  0.00     0.068 C 
HETATM    2  C2  UNL     1      30.974 -34.209 -36.999  1.00  0.00     0.009 A 
HETATM    3  C3  UNL     1      29.750 -33.700 -37.361  1.00  0.00     0.080 A 
HETATM    4  C4  UNL     1      29.634 -32.417 -37.824  1.00  0.00     0.188 A 
HETATM    5  O1  UNL     1      28.506 -31.956 -38.149  1.00  0.00    -0.287 OA
HETATM    6  C5  UNL     1      30.752 -31.566 -37.952  1.00  0.00     0.064 A 
HETATM    7  C14 UNL     1      31.950 -32.107 -37.586  1.00  0.00     0.031 A 
HETATM    8  N14 UNL     1      32.023 -33.400 -37.123  1.00  0.00    -0.362 N 
ATOM      9  H14 UNL     1      32.940 -33.761 -36.857  1.00  0.00     0.165 HD
ENDROOT
BRANCH   6  10
HETATM   10  C6  UNL     1      30.534 -30.239 -38.516  1.00  0.00     0.069 A 
HETATM   11  C7  UNL     1      30.179 -29.116 -37.837  1.00  0.00     0.080 A 
HETATM   12  C8  UNL     1      29.868 -27.892 -38.453  1.00  0.00     0.123 A 
HETATM   13  N6  UNL     1      29.930 -27.859 -39.790  1.00  0.00    -0.177 N 
HETATM   14  C13 UNL     1      30.278 -28.956 -40.497  1.00  0.00     0.677 A 
ATOM     15  H6  UNL     1      29.712 -26.993 -40.283  1.00  0.00     0.185 HD
HETATM   16  N8  UNL     1      30.572 -30.113 -39.881  1.00  0.00    -0.191 N 
ATOM     17  H8  UNL     1      30.831 -30.922 -40.446  1.00  0.00     0.184 HD
BRANCH  12  18
HETATM   18  N1  UNL     1      29.553 -26.925 -37.701  1.00  0.00    -0.335 N 
ATOM     19  H1  UNL     1      28.995 -27.154 -36.878  1.00  0.00     0.168 HD
BRANCH  18  20
HETATM   20  C9  UNL     1      29.885 -25.577 -37.871  1.00  0.00     0.145 A 
HETATM   21  C10 UNL     1      30.933 -25.057 -37.131  1.00  0.00     0.164 A 
HETATM   22  N2  UNL     1      31.648 -25.890 -36.217  1.00  0.00    -0.080 NA
HETATM   23  N3  UNL     1      31.296 -23.748 -37.263  1.00  0.00    -0.177 N 
HETATM   24  C11 UNL     1      30.648 -22.933 -38.112  1.00  0.00     0.680 A 
ATOM     25  H3  UNL     1      32.070 -23.382 -36.708  1.00  0.00     0.185 HD
HETATM   26  N5  UNL     1      29.633 -23.422 -38.834  1.00  0.00    -0.154 N 
HETATM   27  C12 UNL     1      29.242 -24.714 -38.733  1.00  0.00     0.289 A 
ATOM     28  H5  UNL     1      29.141 -22.804 -39.479  1.00  0.00     0.187 HD
HETATM   29  O2  UNL     1      28.289 -25.175 -39.411  1.00  0.00    -0.265 OA
BRANCH  24  30
HETATM   30  N4  UNL     1      31.013 -21.681 -38.222  1.00  0.00    -0.234 N 
ATOM     31  H42 UNL     1      31.236 -21.123 -37.397  1.00  0.00     0.174 HD
ATOM     32  H41 UNL     1      31.081 -21.249 -39.143  1.00  0.00     0.174 HD
ENDBRANCH  24  30
ENDBRANCH  18  20
ENDBRANCH  12  18
BRANCH  14  33
HETATM   33  N7  UNL     1      30.316 -28.847 -41.782  1.00  0.00    -0.234 N 
ATOM     34  H72 UNL     1      31.107 -28.415 -42.257  1.00  0.00     0.174 HD
ATOM     35  H71 UNL     1      29.521 -29.209 -42.307  1.00  0.00     0.174 HD
ENDBRANCH  14  33
ENDBRANCH   6  10
BRANCH   7  36
HETATM   36  C15 UNL     1      33.226 -31.391 -37.776  1.00  0.00     0.116 C 
BRANCH  36  37
HETATM   37  C16 UNL     1      33.850 -31.775 -39.074  1.00  0.00     0.031 A 
HETATM   38  C17 UNL     1      33.222 -32.511 -40.085  1.00  0.00     0.117 A 
HETATM   39  N9  UNL     1      34.062 -32.679 -41.109  1.00  0.00    -0.341 N 
HETATM   40  C25 UNL     1      35.215 -32.054 -40.752  1.00  0.00     0.183 A 
HETATM   41  N13 UNL     1      35.062 -31.525 -39.537  1.00  0.00    -0.354 N 
ATOM     42  H13 UNL     1      35.780 -31.002 -39.036  1.00  0.00     0.166 HD
BRANCH  39  43
HETATM   43  C18 UNL     1      33.890 -33.354 -42.364  1.00  0.00     0.143 C 
HETATM   44  C19 UNL     1      32.987 -34.561 -42.258  1.00  0.00     0.032 C 
HETATM   45  C20 UNL     1      33.318 -35.528 -43.361  1.00  0.00     0.004 C 
HETATM   46  C21 UNL     1      32.735 -35.142 -44.682  1.00  0.00     0.022 C 
HETATM   47  C22 UNL     1      33.542 -34.049 -45.375  1.00  0.00     0.150 C 
HETATM   48  N10 UNL     1      33.165 -32.800 -44.703  1.00  0.00    -0.279 N 
HETATM   49  N11 UNL     1      32.603 -31.772 -45.347  1.00  0.00    -0.241 N 
HETATM   50  C24 UNL     1      33.304 -32.481 -43.426  1.00  0.00     0.070 A 
HETATM   51  N12 UNL     1      32.387 -30.807 -44.480  1.00  0.00    -0.295 N 
ATOM     52  H11 UNL     1      32.379 -31.741 -46.342  1.00  0.00     0.208 HD
HETATM   53  C23 UNL     1      32.813 -31.209 -43.254  1.00  0.00     0.137 A 
ATOM     54  H12 UNL     1      31.968 -29.903 -44.693  1.00  0.00     0.187 HD
ENDBRANCH  39  43
ENDBRANCH  36  37
ENDBRANCH   7  36
TORSDOF 8
ENDMDL
MODEL 4
REMARK VINA RESULT: -8.400870306      2.789      4.079
REMARK  8 active torsions:
REMARK  status: ('A' for Active; 'I' for Inactive)
REMARK    1  A    between atoms: C5_6  and  C6_7 
REMARK    2  A    between atoms: C8_9  and  N1_10 
REMARK    3  A    between atoms: N1_10  and  C9_12 
REMARK    4  A    between atoms: C11_17  and  N4_18 
REMARK    5  A    between atoms: C13_27  and  N7_28 
REMARK    6  A    between atoms: C14_33  and  C15_34 
REMARK    7  A    between atoms: C15_34  and  C16_35 
REMARK    8  A    between atoms: N9_37  and  C18_38 
ROOT
HETATM    1  C1  UNL     1      31.662 -35.161 -36.677  1.00  0.00     0.068 C 
HETATM    2  C2  UNL     1      31.429 -33.760 -37.155  1.00  0.00     0.009 A 
HETATM    3  C3  UNL     1      30.225 -33.401 -37.711  1.00  0.00     0.080 A 
HETATM    4  C4  UNL     1      30.008 -32.121 -38.147  1.00  0.00     0.188 A 
HETATM    5  O1  UNL     1      28.898 -31.799 -38.652  1.00  0.00    -0.287 OA
HETATM    6  C5  UNL     1      30.998 -31.121 -38.048  1.00  0.00     0.064 A 
HETATM    7  C14 UNL     1      32.181 -31.516 -37.494  1.00  0.00     0.031 A 
HETATM    8  N14 UNL     1      32.358 -32.811 -37.066  1.00  0.00    -0.362 N 
ATOM      9  H14 UNL     1      33.258 -33.060 -36.654  1.00  0.00     0.165 HD
ENDROOT
BRANCH   6  10
HETATM   10  C6  UNL     1      30.693 -29.807 -38.600  1.00  0.00     0.069 A 
HETATM   11  C7  UNL     1      30.325 -28.699 -37.904  1.00  0.00     0.080 A 
HETATM   12  C8  UNL     1      29.929 -27.491 -38.502  1.00  0.00     0.123 A 
HETATM   13  N6  UNL     1      29.919 -27.459 -39.841  1.00  0.00    -0.177 N 
HETATM   14  C13 UNL     1      30.277 -28.540 -40.565  1.00  0.00     0.677 A 
ATOM     15  H6  UNL     1      29.638 -26.603 -40.321  1.00  0.00     0.185 HD
HETATM   16  N8  UNL     1      30.653 -29.682 -39.966  1.00  0.00    -0.191 N 
ATOM     17  H8  UNL     1      30.917 -30.480 -40.544  1.00  0.00     0.184 HD
BRANCH  12  18
HETATM   18  N1  UNL     1      29.613 -26.537 -37.734  1.00  0.00    -0.335 N 
ATOM     19  H1  UNL     1      29.025 -26.774 -36.935  1.00  0.00     0.168 HD
BRANCH  18  20
HETATM   20  C9  UNL     1      29.979 -25.193 -37.859  1.00  0.00     0.145 A 
HETATM   21  C10 UNL     1      30.875 -24.665 -36.945  1.00  0.00     0.164 A 
HETATM   22  N2  UNL     1      31.403 -25.487 -35.903  1.00  0.00    -0.080 NA
HETATM   23  N3  UNL     1      31.264 -23.359 -37.026  1.00  0.00    -0.177 N 
HETATM   24  C11 UNL     1      30.789 -22.555 -37.992  1.00  0.00     0.680 A 
ATOM     25  H3  UNL     1      31.924 -22.988 -36.343  1.00  0.00     0.185 HD
HETATM   26  N5  UNL     1      29.922 -23.051 -38.882  1.00  0.00    -0.154 N 
HETATM   27  C12 UNL     1      29.511 -24.341 -38.837  1.00  0.00     0.289 A 
ATOM     28  H5  UNL     1      29.561 -22.441 -39.615  1.00  0.00     0.187 HD
HETATM   29  O2  UNL     1      28.697 -24.809 -39.673  1.00  0.00    -0.265 OA
BRANCH  24  30
HETATM   30  N4  UNL     1      31.176 -21.306 -38.049  1.00  0.00    -0.234 N 
ATOM     31  H42 UNL     1      31.562 -20.836 -37.231  1.00  0.00     0.174 HD
ATOM     32  H41 UNL     1      31.094 -20.788 -38.924  1.00  0.00     0.174 HD
ENDBRANCH  24  30
ENDBRANCH  18  20
ENDBRANCH  12  18
BRANCH  14  33
HETATM   33  N7  UNL     1      30.242 -28.433 -41.850  1.00  0.00    -0.234 N 
ATOM     34  H72 UNL     1      29.503 -28.867 -42.402  1.00  0.00     0.174 HD
ATOM     35  H71 UNL     1      30.985 -27.894 -42.296  1.00  0.00     0.174 HD
ENDBRANCH  14  33
ENDBRANCH   6  10
BRANCH   7  36
HETATM   36  C15 UNL     1      33.355 -30.625 -37.432  1.00  0.00     0.116 C 
BRANCH  36  37
HETATM   37  C16 UNL     1      33.949 -30.451 -38.789  1.00  0.00     0.031 A 
HETATM   38  C17 UNL     1      34.083 -31.463 -39.747  1.00  0.00     0.117 A 
HETATM   39  N9  UNL     1      34.655 -30.969 -40.848  1.00  0.00    -0.341 N 
HETATM   40  C25 UNL     1      34.882 -29.653 -40.592  1.00  0.00     0.183 A 
HETATM   41  N13 UNL     1      34.453 -29.372 -39.361  1.00  0.00    -0.354 N 
ATOM     42  H13 UNL     1      34.507 -28.453 -38.922  1.00  0.00     0.166 HD
BRANCH  39  43
HETATM   43  C18 UNL     1      35.000 -31.599 -42.090  1.00  0.00     0.143 C 
HETATM   44  C19 UNL     1      35.240 -33.084 -41.944  1.00  0.00     0.032 C 
HETATM   45  C20 UNL     1      36.148 -33.552 -43.048  1.00  0.00     0.004 C 
HETATM   46  C21 UNL     1      35.444 -33.741 -44.353  1.00  0.00     0.022 C 
HETATM   47  C22 UNL     1      35.209 -32.421 -45.082  1.00  0.00     0.150 C 
HETATM   48  N10 UNL     1      34.061 -31.803 -44.410  1.00  0.00    -0.279 N 
HETATM   49  N11 UNL     1      32.921 -31.510 -45.044  1.00  0.00    -0.241 N 
HETATM   50  C24 UNL     1      33.949 -31.443 -43.141  1.00  0.00     0.070 A 
HETATM   51  N12 UNL     1      32.092 -30.968 -44.179  1.00  0.00    -0.295 N 
ATOM     52  H11 UNL     1      32.728 -31.678 -46.032  1.00  0.00     0.208 HD
HETATM   53  C23 UNL     1      32.696 -30.906 -42.965  1.00  0.00     0.137 A 
ATOM     54  H12 UNL     1      31.148 -30.645 -44.387  1.00  0.00     0.187 HD
ENDBRANCH  39  43
ENDBRANCH  36  37
ENDBRANCH   7  36
TORSDOF 8
ENDMDL
MODEL 5
REMARK VINA RESULT: -8.396056895      1.899      2.691
REMARK  8 active torsions:
REMARK  status: ('A' for Active; 'I' for Inactive)
REMARK    1  A    between atoms: C5_6  and  C6_7 
REMARK    2  A    between atoms: C8_9  and  N1_10 
REMARK    3  A    between atoms: N1_10  and  C9_12 
REMARK    4  A    between atoms: C11_17  and  N4_18 
REMARK    5  A    between atoms: C13_27  and  N7_28 
REMARK    6  A    between atoms: C14_33  and  C15_34 
REMARK    7  A    between atoms: C15_34  and  C16_35 
REMARK    8  A    between atoms: N9_37  and  C18_38 
ROOT
HETATM    1  C1  UNL     1      31.196 -33.469 -37.701  1.00  0.00     0.068 C 
HETATM    2  C2  UNL     1      31.037 -31.978 -37.701  1.00  0.00     0.009 A 
HETATM    3  C3  UNL     1      29.805 -31.406 -37.502  1.00  0.00     0.080 A 
HETATM    4  C4  UNL     1      29.657 -30.044 -37.499  1.00  0.00     0.188 A 
HETATM    5  O1  UNL     1      28.522 -29.526 -37.311  1.00  0.00    -0.287 OA
HETATM    6  C5  UNL     1      30.749 -29.175 -37.698  1.00  0.00     0.064 A 
HETATM    7  C14 UNL     1      31.956 -29.780 -37.896  1.00  0.00     0.031 A 
HETATM    8  N14 UNL     1      32.063 -31.151 -37.888  1.00  0.00    -0.362 N 
ATOM      9  H14 UNL     1      32.986 -31.560 -38.036  1.00  0.00     0.165 HD
ENDROOT
BRANCH   6  10
HETATM   10  C6  UNL     1      30.478 -27.743 -37.743  1.00  0.00     0.069 A 
HETATM   11  C7  UNL     1      31.021 -26.788 -36.942  1.00  0.00     0.080 A 
HETATM   12  C8  UNL     1      30.631 -25.439 -36.954  1.00  0.00     0.123 A 
HETATM   13  N6  UNL     1      29.662 -25.101 -37.814  1.00  0.00    -0.177 N 
HETATM   14  C13 UNL     1      29.099 -26.023 -38.624  1.00  0.00     0.677 A 
ATOM     15  H6  UNL     1      29.344 -24.132 -37.859  1.00  0.00     0.185 HD
HETATM   16  N8  UNL     1      29.493 -27.306 -38.592  1.00  0.00    -0.191 N 
ATOM     17  H8  UNL     1      29.046 -27.977 -39.218  1.00  0.00     0.184 HD
BRANCH  12  18
HETATM   18  N1  UNL     1      31.220 -24.655 -36.155  1.00  0.00    -0.335 N 
ATOM     19  H1  UNL     1      30.858 -24.622 -35.202  1.00  0.00     0.168 HD
BRANCH  18  20
HETATM   20  C9  UNL     1      32.313 -23.827 -36.432  1.00  0.00     0.145 A 
HETATM   21  C10 UNL     1      33.515 -24.085 -35.796  1.00  0.00     0.164 A 
HETATM   22  N2  UNL     1      33.621 -25.174 -34.878  1.00  0.00    -0.080 NA
HETATM   23  N3  UNL     1      34.611 -23.307 -36.035  1.00  0.00    -0.177 N 
HETATM   24  C11 UNL     1      34.551 -22.273 -36.892  1.00  0.00     0.680 A 
ATOM     25  H3  UNL     1      35.487 -23.512 -35.556  1.00  0.00     0.185 HD
HETATM   26  N5  UNL     1      33.396 -22.012 -37.514  1.00  0.00    -0.154 N 
HETATM   27  C12 UNL     1      32.286 -22.760 -37.305  1.00  0.00     0.289 A 
ATOM     28  H5  UNL     1      33.350 -21.227 -38.165  1.00  0.00     0.187 HD
HETATM   29  O2  UNL     1      31.200 -22.515 -37.890  1.00  0.00    -0.265 OA
BRANCH  24  30
HETATM   30  N4  UNL     1      35.615 -21.540 -37.105  1.00  0.00    -0.234 N 
ATOM     31  H42 UNL     1      35.539 -20.534 -37.256  1.00  0.00     0.174 HD
ATOM     32  H41 UNL     1      36.537 -21.975 -37.119  1.00  0.00     0.174 HD
ENDBRANCH  24  30
ENDBRANCH  18  20
ENDBRANCH  12  18
BRANCH  14  33
HETATM   33  N7  UNL     1      28.172 -25.622 -39.426  1.00  0.00    -0.234 N 
ATOM     34  H72 UNL     1      28.386 -25.067 -40.254  1.00  0.00     0.174 HD
ATOM     35  H71 UNL     1      27.211 -25.881 -39.200  1.00  0.00     0.174 HD
ENDBRANCH  14  33
ENDBRANCH   6  10
BRANCH   7  36
HETATM   36  C15 UNL     1      33.171 -29.017 -38.240  1.00  0.00     0.116 C 
BRANCH  36  37
HETATM   37  C16 UNL     1      33.170 -28.663 -39.689  1.00  0.00     0.031 A 
HETATM   38  C17 UNL     1      32.729 -27.447 -40.222  1.00  0.00     0.117 A 
HETATM   39  N9  UNL     1      32.865 -27.462 -41.550  1.00  0.00    -0.341 N 
HETATM   40  C25 UNL     1      33.388 -28.678 -41.858  1.00  0.00     0.183 A 
HETATM   41  N13 UNL     1      33.560 -29.373 -40.733  1.00  0.00    -0.354 N 
ATOM     42  H13 UNL     1      33.937 -30.319 -40.685  1.00  0.00     0.166 HD
BRANCH  39  43
HETATM   43  C18 UNL     1      32.558 -26.465 -42.536  1.00  0.00     0.143 C 
HETATM   44  C19 UNL     1      33.128 -26.795 -43.897  1.00  0.00     0.032 C 
HETATM   45  C20 UNL     1      33.315 -25.525 -44.679  1.00  0.00     0.004 C 
HETATM   46  C21 UNL     1      32.048 -25.005 -45.277  1.00  0.00     0.022 C 
HETATM   47  C22 UNL     1      31.184 -24.269 -44.257  1.00  0.00     0.150 C 
HETATM   48  N10 UNL     1      30.528 -25.320 -43.471  1.00  0.00    -0.279 N 
HETATM   49  N11 UNL     1      29.199 -25.454 -43.405  1.00  0.00    -0.241 N 
HETATM   50  C24 UNL     1      31.090 -26.263 -42.731  1.00  0.00     0.070 A 
HETATM   51  N12 UNL     1      28.924 -26.478 -42.627  1.00  0.00    -0.295 N 
ATOM     52  H11 UNL     1      28.516 -24.863 -43.878  1.00  0.00     0.208 HD
HETATM   53  C23 UNL     1      30.085 -27.020 -42.179  1.00  0.00     0.137 A 
ATOM     54  H12 UNL     1      27.988 -26.811 -42.397  1.00  0.00     0.187 HD
ENDBRANCH  39  43
ENDBRANCH  36  37
ENDBRANCH   7  36
TORSDOF 8
ENDMDL
