MODEL 1
REMARK VINA RESULT: -8.069741711      0.000      0.000
REMARK  9 active torsions:
REMARK  status: ('A' for Active; 'I' for Inactive)
REMARK       I    between atoms: C2_2  and  N1_4 
REMARK    1  A    between atoms: N1_4  and  C3_6 
REMARK    2  A    between atoms: C4_13  and  N5_14 
REMARK    3  A    between atoms: N5_14  and  C5_16 
REMARK    4  A    between atoms: C8_22  and  C9_23 
REMARK    5  A    between atoms: C9_23  and  C10_24 
REMARK    6  A    between atoms: C11_25  and  C12_26 
REMARK    7  A    between atoms: N7_28  and  C14_29 
REMARK    8  A    between atoms: C14_29  and  C16_31 
REMARK    9  A    between atoms: C17_38  and  O4_39 
ROOT
HETATM    1  C5  UNL     1      -4.642   7.693  51.142  1.00  0.00     0.089 A 
HETATM    2  C6  UNL     1      -3.354   8.172  51.196  1.00  0.00     0.107 A 
HETATM    3  C7  UNL     1      -2.750   8.547  52.383  1.00  0.00     0.247 A 
HETATM    4  O2  UNL     1      -1.575   8.983  52.422  1.00  0.00    -0.268 OA
HETATM    5  N6  UNL     1      -3.481   8.425  53.499  1.00  0.00    -0.324 N 
ATOM      6  H6  UNL     1      -3.050   8.696  54.384  1.00  0.00     0.169 HD
HETATM    7  C8  UNL     1      -4.754   7.962  53.530  1.00  0.00     0.051 A 
HETATM    8  C17 UNL     1      -5.333   7.595  52.339  1.00  0.00     0.116 A 
ENDROOT
BRANCH   1   9
HETATM    9  N5  UNL     1      -5.283   7.302  49.950  1.00  0.00    -0.187 N 
ATOM     10  H5  UNL     1      -5.831   7.986  49.427  1.00  0.00     0.184 HD
BRANCH   9  11
HETATM   11  C4  UNL     1      -5.179   5.959  49.459  1.00  0.00     0.713 A 
HETATM   12  N4  UNL     1      -5.349   5.735  48.206  1.00  0.00    -0.116 N 
HETATM   13  N3  UNL     1      -5.264   4.463  47.661  1.00  0.00    -0.214 N 
ATOM     14  H4  UNL     1      -5.553   6.521  47.589  1.00  0.00     0.207 HD
HETATM   15  N2  UNL     1      -4.983   3.420  48.537  1.00  0.00    -0.116 N 
ATOM     16  H3  UNL     1      -5.401   4.299  46.664  1.00  0.00     0.209 HD
HETATM   17  C3  UNL     1      -4.799   3.571  49.827  1.00  0.00     0.715 A 
ATOM     18  H2  UNL     1      -4.917   2.478  48.153  1.00  0.00     0.207 HD
HETATM   19  N11 UNL     1      -4.895   4.877  50.336  1.00  0.00    -0.019 N 
ATOM     20  H11 UNL     1      -4.760   5.049  51.333  1.00  0.00     0.203 HD
BRANCH  17  21
HETATM   21  N1  UNL     1      -4.525   2.433  50.584  1.00  0.00    -0.158 N 
HETATM   22  C2  UNL     1      -3.821   2.393  51.785  1.00  0.00     0.232 C 
HETATM   23  C1  UNL     1      -3.624   1.046  52.465  1.00  0.00     0.118 C 
HETATM   24  O1  UNL     1      -3.342   3.397  52.338  1.00  0.00    -0.273 OA
ATOM     25  H1  UNL     1      -4.873   1.544  50.224  1.00  0.00     0.187 HD
ENDBRANCH  17  21
ENDBRANCH   9  11
ENDBRANCH   1   9
BRANCH   8  26
HETATM   26  O4  UNL     1      -6.629   7.114  52.309  1.00  0.00    -0.357 OA
ATOM     27  H4  UNL     1      -6.858   6.402  52.894  1.00  0.00     0.218 HD
ENDBRANCH   8  26
BRANCH   7  28
HETATM   28  C9  UNL     1      -5.486   7.879  54.850  1.00  0.00     0.087 C 
BRANCH  28  29
HETATM   29  C10 UNL     1      -4.763   7.011  55.785  1.00  0.00    -0.018 C 
HETATM   30  C11 UNL     1      -4.891   5.725  55.920  1.00  0.00     0.029 C 
BRANCH  30  31
HETATM   31  C12 UNL     1      -5.767   4.842  55.188  1.00  0.00     0.066 A 
HETATM   32  C13 UNL     1      -7.159   5.006  55.165  1.00  0.00     0.143 A 
HETATM   33  N7  UNL     1      -7.667   4.029  54.408  1.00  0.00    -0.274 N 
HETATM   34  N9  UNL     1      -6.661   3.304  53.985  1.00  0.00    -0.240 N 
HETATM   35  N10 UNL     1      -5.520   3.761  54.430  1.00  0.00    -0.285 N 
ATOM     36  H9  UNL     1      -6.755   2.486  53.385  1.00  0.00     0.208 HD
ATOM     37  H10 UNL     1      -4.601   3.365  54.236  1.00  0.00     0.188 HD
BRANCH  33  38
HETATM   38  C14 UNL     1      -9.091   3.874  54.151  1.00  0.00     0.194 C 
HETATM   39  C15 UNL     1      -9.830   4.050  55.483  1.00  0.00     0.044 C 
BRANCH  38  40
HETATM   40  C16 UNL     1      -9.480   4.964  53.231  1.00  0.00     0.255 C 
HETATM   41  N8  UNL     1     -10.467   5.892  53.631  1.00  0.00    -0.060 NA
HETATM   42  O3  UNL     1      -8.951   5.080  52.107  1.00  0.00    -0.275 OA
ENDBRANCH  38  40
ENDBRANCH  33  38
ENDBRANCH  30  31
ENDBRANCH  28  29
ENDBRANCH   7  28
TORSDOF 9
ENDMDL
MODEL 2
REMARK VINA RESULT: -7.746633897      6.912     11.318
REMARK  9 active torsions:
REMARK  status: ('A' for Active; 'I' for Inactive)
REMARK       I    between atoms: C2_2  and  N1_4 
REMARK    1  A    between atoms: N1_4  and  C3_6 
REMARK    2  A    between atoms: C4_13  and  N5_14 
REMARK    3  A    between atoms: N5_14  and  C5_16 
REMARK    4  A    between atoms: C8_22  and  C9_23 
REMARK    5  A    between atoms: C9_23  and  C10_24 
REMARK    6  A    between atoms: C11_25  and  C12_26 
REMARK    7  A    between atoms: N7_28  and  C14_29 
REMARK    8  A    between atoms: C14_29  and  C16_31 
REMARK    9  A    between atoms: C17_38  and  O4_39 
ROOT
HETATM    1  C5  UNL     1     -11.828  -0.003  60.926  1.00  0.00     0.089 A 
HETATM    2  C6  UNL     1     -11.468  -0.979  61.826  1.00  0.00     0.107 A 
HETATM    3  C7  UNL     1     -10.196  -1.525  61.859  1.00  0.00     0.247 A 
HETATM    4  O2  UNL     1      -9.878  -2.415  62.683  1.00  0.00    -0.268 OA
HETATM    5  N6  UNL     1      -9.313  -1.060  60.966  1.00  0.00    -0.324 N 
ATOM      6  H6  UNL     1      -8.371  -1.451  60.978  1.00  0.00     0.169 HD
HETATM    7  C8  UNL     1      -9.590  -0.101  60.049  1.00  0.00     0.051 A 
HETATM    8  C17 UNL     1     -10.858   0.427  60.034  1.00  0.00     0.116 A 
ENDROOT
BRANCH   1   9
HETATM    9  N5  UNL     1     -13.112   0.573  60.867  1.00  0.00    -0.187 N 
ATOM     10  H5  UNL     1     -13.360   1.317  61.520  1.00  0.00     0.184 HD
BRANCH   9  11
HETATM   11  C4  UNL     1     -14.078   0.131  59.904  1.00  0.00     0.713 A 
HETATM   12  N4  UNL     1     -15.027  -0.647  60.281  1.00  0.00    -0.116 N 
HETATM   13  N3  UNL     1     -15.995  -1.115  59.406  1.00  0.00    -0.214 N 
ATOM     14  H4  UNL     1     -15.072  -0.931  61.260  1.00  0.00     0.207 HD
HETATM   15  N2  UNL     1     -15.899  -0.704  58.081  1.00  0.00    -0.116 N 
ATOM     16  H3  UNL     1     -16.744  -1.733  59.719  1.00  0.00     0.209 HD
HETATM   17  C3  UNL     1     -14.958   0.088  57.623  1.00  0.00     0.715 A 
ATOM     18  H2  UNL     1     -16.603  -1.038  57.424  1.00  0.00     0.207 HD
HETATM   19  N11 UNL     1     -13.998   0.538  58.545  1.00  0.00    -0.019 N 
ATOM     20  H11 UNL     1     -13.245   1.155  58.240  1.00  0.00     0.203 HD
BRANCH  17  21
HETATM   21  N1  UNL     1     -14.986   0.417  56.268  1.00  0.00    -0.158 N 
HETATM   22  C2  UNL     1     -16.126   0.560  55.480  1.00  0.00     0.232 C 
HETATM   23  C1  UNL     1     -15.950   0.924  54.013  1.00  0.00     0.118 C 
HETATM   24  O1  UNL     1     -17.283   0.408  55.905  1.00  0.00    -0.273 OA
ATOM     25  H1  UNL     1     -14.087   0.567  55.811  1.00  0.00     0.187 HD
ENDBRANCH  17  21
ENDBRANCH   9  11
ENDBRANCH   1   9
BRANCH   8  26
HETATM   26  O4  UNL     1     -11.198   1.409  59.122  1.00  0.00    -0.357 OA
ATOM     27  H4  UNL     1     -11.166   2.316  59.404  1.00  0.00     0.218 HD
ENDBRANCH   8  26
BRANCH   7  28
HETATM   28  C9  UNL     1      -8.514   0.337  59.082  1.00  0.00     0.087 C 
BRANCH  28  29
HETATM   29  C10 UNL     1      -7.720   1.428  59.656  1.00  0.00    -0.018 C 
HETATM   30  C11 UNL     1      -7.658   2.658  59.242  1.00  0.00     0.029 C 
BRANCH  30  31
HETATM   31  C12 UNL     1      -8.354   3.248  58.123  1.00  0.00     0.066 A 
HETATM   32  C13 UNL     1      -7.685   3.813  57.028  1.00  0.00     0.143 A 
HETATM   33  N7  UNL     1      -8.613   4.269  56.182  1.00  0.00    -0.274 N 
HETATM   34  N9  UNL     1      -9.782   4.007  56.711  1.00  0.00    -0.240 N 
HETATM   35  N10 UNL     1      -9.663   3.401  57.862  1.00  0.00    -0.285 N 
ATOM     36  H9  UNL     1     -10.674   4.246  56.278  1.00  0.00     0.208 HD
ATOM     37  H10 UNL     1     -10.431   3.097  58.460  1.00  0.00     0.188 HD
BRANCH  33  38
HETATM   38  C14 UNL     1      -8.293   4.924  54.923  1.00  0.00     0.194 C 
HETATM   39  C15 UNL     1      -7.092   4.198  54.306  1.00  0.00     0.044 C 
BRANCH  38  40
HETATM   40  C16 UNL     1      -9.468   4.756  54.042  1.00  0.00     0.255 C 
HETATM   41  N8  UNL     1     -10.253   5.881  53.707  1.00  0.00    -0.060 NA
HETATM   42  O3  UNL     1      -9.779   3.635  53.588  1.00  0.00    -0.275 OA
ENDBRANCH  38  40
ENDBRANCH  33  38
ENDBRANCH  30  31
ENDBRANCH  28  29
ENDBRANCH   7  28
TORSDOF 9
ENDMDL
MODEL 3
REMARK VINA RESULT: -7.671897082      2.033      5.991
REMARK  9 active torsions:
REMARK  status: ('A' for Active; 'I' for Inactive)
REMARK       I    between atoms: C2_2  and  N1_4 
REMARK    1  A    between atoms: N1_4  and  C3_6 
REMARK    2  A    between atoms: C4_13  and  N5_14 
REMARK    3  A    between atoms: N5_14  and  C5_16 
REMARK    4  A    between atoms: C8_22  and  C9_23 
REMARK    5  A    between atoms: C9_23  and  C10_24 
REMARK    6  A    between atoms: C11_25  and  C12_26 
REMARK    7  A    between atoms: N7_28  and  C14_29 
REMARK    8  A    between atoms: C14_29  and  C16_31 
REMARK    9  A    between atoms: C17_38  and  O4_39 
ROOT
HETATM    1  C5  UNL     1      -5.599   7.306  54.584  1.00  0.00     0.089 A 
HETATM    2  C6  UNL     1      -4.333   7.802  54.790  1.00  0.00     0.107 A 
HETATM    3  C7  UNL     1      -3.523   8.224  53.750  1.00  0.00     0.247 A 
HETATM    4  O2  UNL     1      -2.370   8.675  53.948  1.00  0.00    -0.268 OA
HETATM    5  N6  UNL     1      -4.028   8.131  52.512  1.00  0.00    -0.324 N 
ATOM      6  H6  UNL     1      -3.444   8.440  51.735  1.00  0.00     0.169 HD
HETATM    7  C8  UNL     1      -5.264   7.654  52.227  1.00  0.00     0.051 A 
HETATM    8  C17 UNL     1      -6.050   7.241  53.275  1.00  0.00     0.116 A 
ENDROOT
BRANCH   1   9
HETATM    9  N5  UNL     1      -6.448   6.868  55.620  1.00  0.00    -0.187 N 
ATOM     10  H5  UNL     1      -6.994   7.552  56.144  1.00  0.00     0.184 HD
BRANCH   9  11
HETATM   11  C4  UNL     1      -6.557   5.477  55.949  1.00  0.00     0.713 A 
HETATM   12  N4  UNL     1      -5.485   4.789  56.118  1.00  0.00    -0.116 N 
HETATM   13  N3  UNL     1      -5.513   3.440  56.437  1.00  0.00    -0.214 N 
ATOM     14  H4  UNL     1      -4.582   5.251  56.014  1.00  0.00     0.207 HD
HETATM   15  N2  UNL     1      -6.765   2.849  56.570  1.00  0.00    -0.116 N 
ATOM     16  H3  UNL     1      -4.655   2.905  56.568  1.00  0.00     0.209 HD
HETATM   17  C3  UNL     1      -7.901   3.488  56.413  1.00  0.00     0.715 A 
ATOM     18  H2  UNL     1      -6.804   1.858  56.805  1.00  0.00     0.207 HD
HETATM   19  N11 UNL     1      -7.825   4.853  56.089  1.00  0.00    -0.019 N 
ATOM     20  H11 UNL     1      -8.679   5.395  55.955  1.00  0.00     0.203 HD
BRANCH  17  21
HETATM   21  N1  UNL     1      -9.082   2.766  56.577  1.00  0.00    -0.158 N 
HETATM   22  C2  UNL     1     -10.104   3.054  57.478  1.00  0.00     0.232 C 
HETATM   23  C1  UNL     1     -11.321   2.142  57.508  1.00  0.00     0.118 C 
HETATM   24  O1  UNL     1     -10.082   4.017  58.262  1.00  0.00    -0.273 OA
ATOM     25  H1  UNL     1      -9.210   1.948  55.980  1.00  0.00     0.187 HD
ENDBRANCH  17  21
ENDBRANCH   9  11
ENDBRANCH   1   9
BRANCH   8  26
HETATM   26  O4  UNL     1      -7.321   6.747  53.044  1.00  0.00    -0.357 OA
ATOM     27  H4  UNL     1      -7.693   6.849  52.176  1.00  0.00     0.218 HD
ENDBRANCH   8  26
BRANCH   7  28
HETATM   28  C9  UNL     1      -5.722   7.584  50.788  1.00  0.00     0.087 C 
BRANCH  28  29
HETATM   29  C10 UNL     1      -4.569   7.512  49.884  1.00  0.00    -0.018 C 
HETATM   30  C11 UNL     1      -3.952   6.442  49.483  1.00  0.00     0.029 C 
BRANCH  30  31
HETATM   31  C12 UNL     1      -4.248   5.071  49.824  1.00  0.00     0.066 A 
HETATM   32  C13 UNL     1      -3.722   4.444  50.963  1.00  0.00     0.143 A 
HETATM   33  N7  UNL     1      -4.185   3.191  50.981  1.00  0.00    -0.274 N 
HETATM   34  N9  UNL     1      -4.948   3.044  49.927  1.00  0.00    -0.240 N 
HETATM   35  N10 UNL     1      -5.007   4.141  49.220  1.00  0.00    -0.285 N 
ATOM     36  H9  UNL     1      -5.435   2.181  49.687  1.00  0.00     0.208 HD
ATOM     37  H10 UNL     1      -5.537   4.270  48.358  1.00  0.00     0.188 HD
BRANCH  33  38
HETATM   38  C14 UNL     1      -3.851   2.231  52.023  1.00  0.00     0.194 C 
HETATM   39  C15 UNL     1      -2.324   2.141  52.107  1.00  0.00     0.044 C 
BRANCH  38  40
HETATM   40  C16 UNL     1      -4.377   2.777  53.292  1.00  0.00     0.255 C 
HETATM   41  N8  UNL     1      -5.736   3.155  53.376  1.00  0.00    -0.060 NA
HETATM   42  O3  UNL     1      -3.642   2.910  54.292  1.00  0.00    -0.275 OA
ENDBRANCH  38  40
ENDBRANCH  33  38
ENDBRANCH  30  31
ENDBRANCH  28  29
ENDBRANCH   7  28
TORSDOF 9
ENDMDL
MODEL 4
REMARK VINA RESULT: -7.547537034      6.468     10.859
REMARK  9 active torsions:
REMARK  status: ('A' for Active; 'I' for Inactive)
REMARK       I    between atoms: C2_2  and  N1_4 
REMARK    1  A    between atoms: N1_4  and  C3_6 
REMARK    2  A    between atoms: C4_13  and  N5_14 
REMARK    3  A    between atoms: N5_14  and  C5_16 
REMARK    4  A    between atoms: C8_22  and  C9_23 
REMARK    5  A    between atoms: C9_23  and  C10_24 
REMARK    6  A    between atoms: C11_25  and  C12_26 
REMARK    7  A    between atoms: N7_28  and  C14_29 
REMARK    8  A    between atoms: C14_29  and  C16_31 
REMARK    9  A    between atoms: C17_38  and  O4_39 
ROOT
HETATM    1  C5  UNL     1     -11.056   0.345  60.701  1.00  0.00     0.089 A 
HETATM    2  C6  UNL     1     -10.286  -0.737  61.060  1.00  0.00     0.107 A 
HETATM    3  C7  UNL     1      -9.065  -1.008  60.469  1.00  0.00     0.247 A 
HETATM    4  O2  UNL     1      -8.370  -1.997  60.803  1.00  0.00    -0.268 OA
HETATM    5  N6  UNL     1      -8.652  -0.161  59.516  1.00  0.00    -0.324 N 
ATOM      6  H6  UNL     1      -7.753  -0.346  59.070  1.00  0.00     0.169 HD
HETATM    7  C8  UNL     1      -9.351   0.925  59.106  1.00  0.00     0.051 A 
HETATM    8  C17 UNL     1     -10.561   1.174  59.707  1.00  0.00     0.116 A 
ENDROOT
BRANCH   1   9
HETATM    9  N5  UNL     1     -12.303   0.648  61.284  1.00  0.00    -0.187 N 
ATOM     10  H5  UNL     1     -12.341   1.261  62.099  1.00  0.00     0.184 HD
BRANCH   9  11
HETATM   11  C4  UNL     1     -13.519   0.108  60.751  1.00  0.00     0.713 A 
HETATM   12  N4  UNL     1     -14.281  -0.591  61.513  1.00  0.00    -0.116 N 
HETATM   13  N3  UNL     1     -15.471  -1.145  61.066  1.00  0.00    -0.214 N 
ATOM     14  H4  UNL     1     -14.000  -0.745  62.482  1.00  0.00     0.207 HD
HETATM   15  N2  UNL     1     -15.816  -0.910  59.739  1.00  0.00    -0.116 N 
ATOM     16  H3  UNL     1     -16.066  -1.698  61.682  1.00  0.00     0.209 HD
HETATM   17  C3  UNL     1     -15.090  -0.207  58.903  1.00  0.00     0.715 A 
ATOM     18  H2  UNL     1     -16.689  -1.309  59.395  1.00  0.00     0.207 HD
HETATM   19  N11 UNL     1     -13.892   0.334  59.398  1.00  0.00    -0.019 N 
ATOM     20  H11 UNL     1     -13.290   0.888  58.789  1.00  0.00     0.203 HD
BRANCH  17  21
HETATM   21  N1  UNL     1     -15.561  -0.055  57.600  1.00  0.00    -0.158 N 
HETATM   22  C2  UNL     1     -14.972   0.709  56.595  1.00  0.00     0.232 C 
HETATM   23  C1  UNL     1     -15.641   0.750  55.230  1.00  0.00     0.118 C 
HETATM   24  O1  UNL     1     -13.926   1.362  56.749  1.00  0.00    -0.273 OA
ATOM     25  H1  UNL     1     -16.419  -0.551  57.358  1.00  0.00     0.187 HD
ENDBRANCH  17  21
ENDBRANCH   9  11
ENDBRANCH   1   9
BRANCH   8  26
HETATM   26  O4  UNL     1     -11.318   2.269  59.332  1.00  0.00    -0.357 OA
ATOM     27  H4  UNL     1     -11.010   2.802  58.608  1.00  0.00     0.218 HD
ENDBRANCH   8  26
BRANCH   7  28
HETATM   28  C9  UNL     1      -8.790   1.802  58.011  1.00  0.00     0.087 C 
BRANCH  28  29
HETATM   29  C10 UNL     1      -7.357   2.032  58.219  1.00  0.00    -0.018 C 
HETATM   30  C11 UNL     1      -6.534   2.638  57.418  1.00  0.00     0.029 C 
BRANCH  30  31
HETATM   31  C12 UNL     1      -6.827   3.231  56.134  1.00  0.00     0.066 A 
HETATM   32  C13 UNL     1      -7.397   4.505  56.002  1.00  0.00     0.143 A 
HETATM   33  N7  UNL     1      -7.540   4.748  54.695  1.00  0.00    -0.274 N 
HETATM   34  N9  UNL     1      -7.090   3.698  54.055  1.00  0.00    -0.240 N 
HETATM   35  N10 UNL     1      -6.659   2.781  54.880  1.00  0.00    -0.285 N 
ATOM     36  H9  UNL     1      -7.077   3.607  53.039  1.00  0.00     0.208 HD
ATOM     37  H10 UNL     1      -6.264   1.878  54.617  1.00  0.00     0.188 HD
BRANCH  33  38
HETATM   38  C14 UNL     1      -8.103   5.982  54.169  1.00  0.00     0.194 C 
HETATM   39  C15 UNL     1      -7.011   6.687  53.356  1.00  0.00     0.044 C 
BRANCH  38  40
HETATM   40  C16 UNL     1      -9.208   5.597  53.266  1.00  0.00     0.255 C 
HETATM   41  N8  UNL     1     -10.524   6.019  53.558  1.00  0.00    -0.060 NA
HETATM   42  O3  UNL     1      -8.999   4.904  52.248  1.00  0.00    -0.275 OA
ENDBRANCH  38  40
ENDBRANCH  33  38
ENDBRANCH  30  31
ENDBRANCH  28  29
ENDBRANCH   7  28
TORSDOF 9
ENDMDL
MODEL 5
REMARK VINA RESULT: -7.495251936      2.218      5.479
REMARK  9 active torsions:
REMARK  status: ('A' for Active; 'I' for Inactive)
REMARK       I    between atoms: C2_2  and  N1_4 
REMARK    1  A    between atoms: N1_4  and  C3_6 
REMARK    2  A    between atoms: C4_13  and  N5_14 
REMARK    3  A    between atoms: N5_14  and  C5_16 
REMARK    4  A    between atoms: C8_22  and  C9_23 
REMARK    5  A    between atoms: C9_23  and  C10_24 
REMARK    6  A    between atoms: C11_25  and  C12_26 
REMARK    7  A    between atoms: N7_28  and  C14_29 
REMARK    8  A    between atoms: C14_29  and  C16_31 
REMARK    9  A    between atoms: C17_38  and  O4_39 
ROOT
HETATM    1  C5  UNL     1      -5.580   7.267  54.483  1.00  0.00     0.089 A 
HETATM    2  C6  UNL     1      -4.346   7.801  54.771  1.00  0.00     0.107 A 
HETATM    3  C7  UNL     1      -3.480   8.243  53.786  1.00  0.00     0.247 A 
HETATM    4  O2  UNL     1      -2.356   8.729  54.059  1.00  0.00    -0.268 OA
HETATM    5  N6  UNL     1      -3.896   8.131  52.518  1.00  0.00    -0.324 N 
ATOM      6  H6  UNL     1      -3.270   8.453  51.780  1.00  0.00     0.169 HD
HETATM    7  C8  UNL     1      -5.095   7.616  52.152  1.00  0.00     0.051 A 
HETATM    8  C17 UNL     1      -5.939   7.184  53.147  1.00  0.00     0.116 A 
ENDROOT
BRANCH   1   9
HETATM    9  N5  UNL     1      -6.483   6.809  55.462  1.00  0.00    -0.187 N 
ATOM     10  H5  UNL     1      -7.068   7.480  55.959  1.00  0.00     0.184 HD
BRANCH   9  11
HETATM   11  C4  UNL     1      -6.595   5.413  55.770  1.00  0.00     0.713 A 
HETATM   12  N4  UNL     1      -7.551   4.732  55.249  1.00  0.00    -0.116 N 
HETATM   13  N3  UNL     1      -7.722   3.379  55.503  1.00  0.00    -0.214 N 
ATOM     14  H4  UNL     1      -8.209   5.202  54.628  1.00  0.00     0.207 HD
HETATM   15  N2  UNL     1      -6.803   2.777  56.355  1.00  0.00    -0.116 N 
ATOM     16  H3  UNL     1      -8.486   2.850  55.083  1.00  0.00     0.209 HD
HETATM   17  C3  UNL     1      -5.802   3.408  56.923  1.00  0.00     0.715 A 
ATOM     18  H2  UNL     1      -6.913   1.782  56.552  1.00  0.00     0.207 HD
HETATM   19  N11 UNL     1      -5.668   4.777  56.639  1.00  0.00    -0.019 N 
ATOM     20  H11 UNL     1      -4.908   5.314  57.056  1.00  0.00     0.203 HD
BRANCH  17  21
HETATM   21  N1  UNL     1      -4.960   2.674  57.757  1.00  0.00    -0.158 N 
HETATM   22  C2  UNL     1      -3.671   3.033  58.146  1.00  0.00     0.232 C 
HETATM   23  C1  UNL     1      -2.905   2.095  59.066  1.00  0.00     0.118 C 
HETATM   24  O1  UNL     1      -3.107   4.080  57.786  1.00  0.00    -0.273 OA
ATOM     25  H1  UNL     1      -5.320   1.790  58.117  1.00  0.00     0.187 HD
ENDBRANCH  17  21
ENDBRANCH   9  11
ENDBRANCH   1   9
BRANCH   8  26
HETATM   26  O4  UNL     1      -7.176   6.652  52.834  1.00  0.00    -0.357 OA
ATOM     27  H4  UNL     1      -7.273   5.707  52.835  1.00  0.00     0.218 HD
ENDBRANCH   8  26
BRANCH   7  28
HETATM   28  C9  UNL     1      -5.452   7.527  50.686  1.00  0.00     0.087 C 
BRANCH  28  29
HETATM   29  C10 UNL     1      -4.245   7.348  49.873  1.00  0.00    -0.018 C 
HETATM   30  C11 UNL     1      -3.659   6.229  49.573  1.00  0.00     0.029 C 
BRANCH  30  31
HETATM   31  C12 UNL     1      -4.050   4.895  49.964  1.00  0.00     0.066 A 
HETATM   32  C13 UNL     1      -3.620   4.300  51.158  1.00  0.00     0.143 A 
HETATM   33  N7  UNL     1      -4.154   3.076  51.212  1.00  0.00    -0.274 N 
HETATM   34  N9  UNL     1      -4.869   2.917  50.126  1.00  0.00    -0.240 N 
HETATM   35  N10 UNL     1      -4.828   3.978  49.365  1.00  0.00    -0.285 N 
ATOM     36  H9  UNL     1      -5.391   2.070  49.902  1.00  0.00     0.208 HD
ATOM     37  H10 UNL     1      -5.305   4.091  48.471  1.00  0.00     0.188 HD
BRANCH  33  38
HETATM   38  C14 UNL     1      -3.929   2.154  52.315  1.00  0.00     0.194 C 
HETATM   39  C15 UNL     1      -2.598   2.528  52.977  1.00  0.00     0.044 C 
BRANCH  38  40
HETATM   40  C16 UNL     1      -5.028   2.365  53.280  1.00  0.00     0.255 C 
HETATM   41  N8  UNL     1      -5.669   3.623  53.340  1.00  0.00    -0.060 NA
HETATM   42  O3  UNL     1      -5.403   1.451  54.043  1.00  0.00    -0.275 OA
ENDBRANCH  38  40
ENDBRANCH  33  38
ENDBRANCH  30  31
ENDBRANCH  28  29
ENDBRANCH   7  28
TORSDOF 9
ENDMDL
