MODEL 1
REMARK VINA RESULT: -10.662002369      0.000      0.000
REMARK  14 active torsions:
REMARK  status: ('A' for Active; 'I' for Inactive)
REMARK    1  A    between atoms: O1_2  and  C2_3 
REMARK    2  A    between atoms: C4_5  and  C5_6 
REMARK    3  A    between atoms: N1_7  and  N2_9 
REMARK       I    between atoms: N2_9  and  C6_11 
REMARK    4  A    between atoms: C6_11  and  C7_13 
REMARK    5  A    between atoms: C11_18  and  C12_19 
REMARK    6  A    between atoms: C14_21  and  C15_22 
REMARK    7  A    between atoms: C16_23  and  C17_24 
REMARK    8  A    between atoms: C20_27  and  C21_28 
REMARK    9  A    between atoms: C22_31  and  O5_32 
REMARK   10  A    between atoms: C25_36  and  O6_37 
REMARK   11  A    between atoms: C27_39  and  O7_40 
REMARK   12  A    between atoms: C29_42  and  O8_43 
REMARK   13  A    between atoms: O8_43  and  S1_44 
REMARK   14  A    between atoms: C33_51  and  O12_52 
ROOT
HETATM    1  C7  UNL     1      13.221  -0.118  -7.685  1.00  0.00     0.037 A 
HETATM    2  C8  UNL     1      12.000  -0.324  -8.322  1.00  0.00     0.040 A 
HETATM    3  C9  UNL     1      11.567   0.552  -9.284  1.00  0.00     0.059 A 
HETATM    4  C10 UNL     1      10.307   0.333  -9.936  1.00  0.00     0.100 C 
HETATM    5  N3  UNL     1       9.283   0.164 -10.452  1.00  0.00    -0.191 NA
HETATM    6  C11 UNL     1      12.345   1.664  -9.641  1.00  0.00     0.033 A 
HETATM    7  C29 UNL     1      13.540   1.873  -9.026  1.00  0.00     0.105 A 
HETATM    8  C30 UNL     1      13.964   0.966  -8.044  1.00  0.00     0.056 A 
ENDROOT
BRANCH   6   9
HETATM    9  C12 UNL     1      11.910   2.536 -10.727  1.00  0.00     0.015 A 
HETATM   10  C13 UNL     1      12.252   2.210 -12.017  1.00  0.00     0.027 A 
HETATM   11  C14 UNL     1      11.973   3.000 -13.143  1.00  0.00    -0.033 A 
HETATM   12  C24 UNL     1      11.311   4.173 -12.903  1.00  0.00     0.051 A 
HETATM   13  C25 UNL     1      10.955   4.522 -11.614  1.00  0.00     0.103 A 
HETATM   14  C27 UNL     1      11.235   3.734 -10.513  1.00  0.00     0.112 A 
BRANCH  11  15
HETATM   15  C15 UNL     1      12.253   2.536 -14.471  1.00  0.00     0.012 C 
HETATM   16  C16 UNL     1      13.182   2.581 -15.328  1.00  0.00     0.012 C 
BRANCH  16  17
HETATM   17  C17 UNL     1      14.506   3.095 -15.492  1.00  0.00    -0.034 A 
HETATM   18  C18 UNL     1      14.803   3.943 -16.581  1.00  0.00     0.012 A 
HETATM   19  C19 UNL     1      16.069   4.361 -16.825  1.00  0.00     0.022 A 
HETATM   20  C20 UNL     1      17.163   3.992 -16.030  1.00  0.00     0.073 A 
HETATM   21  C22 UNL     1      16.889   3.168 -14.969  1.00  0.00     0.083 A 
HETATM   22  C23 UNL     1      15.574   2.740 -14.725  1.00  0.00     0.049 A 
BRANCH  20  23
HETATM   23  C21 UNL     1      18.485   4.488 -16.365  1.00  0.00     0.212 C 
HETATM   24  O3  UNL     1      19.366   4.761 -15.542  1.00  0.00    -0.644 OA
HETATM   25  O4  UNL     1      18.802   4.676 -17.706  1.00  0.00    -0.644 OA
ENDBRANCH  20  23
BRANCH  21  26
HETATM   26  O5  UNL     1      17.862   2.737 -14.121  1.00  0.00    -0.360 OA
ATOM     27  H5  UNL     1      17.929   3.057 -13.229  1.00  0.00     0.217 HD
ENDBRANCH  21  26
ENDBRANCH  16  17
ENDBRANCH  11  15
BRANCH  13  28
HETATM   28  O6  UNL     1      10.277   5.740 -11.429  1.00  0.00    -0.353 OA
HETATM   29  C26 UNL     1      10.918   6.979 -11.655  1.00  0.00     0.210 C 
ENDBRANCH  13  28
BRANCH  14  30
HETATM   30  O7  UNL     1      10.850   4.121  -9.275  1.00  0.00    -0.352 OA
HETATM   31  C28 UNL     1      11.209   5.054  -8.365  1.00  0.00     0.210 C 
ENDBRANCH  14  30
ENDBRANCH   6   9
BRANCH   1  32
HETATM   32  C6  UNL     1      13.705  -1.028  -6.666  1.00  0.00     0.270 C 
HETATM   33  N2  UNL     1      14.039  -2.374  -6.948  1.00  0.00    -0.266 N 
ATOM     34  H2  UNL     1      13.952  -2.763  -7.887  1.00  0.00     0.190 HD
HETATM   35  O2  UNL     1      13.822  -0.557  -5.483  1.00  0.00    -0.266 OA
BRANCH  33  36
HETATM   36  N1  UNL     1      14.502  -3.157  -5.854  1.00  0.00    -0.308 N 
HETATM   37  C5  UNL     1      15.528  -3.907  -6.089  1.00  0.00     0.118 C 
ATOM     38  H1  UNL     1      14.051  -3.127  -4.939  1.00  0.00     0.186 HD
BRANCH  37  39
HETATM   39  C4  UNL     1      16.075  -4.747  -5.027  1.00  0.00    -0.017 A 
HETATM   40  C3  UNL     1      15.583  -5.991  -4.788  1.00  0.00     0.052 A 
HETATM   41  C2  UNL     1      16.099  -6.781  -3.789  1.00  0.00     0.102 A 
HETATM   42  C33 UNL     1      17.132  -6.325  -3.004  1.00  0.00     0.099 A 
HETATM   43  C32 UNL     1      17.619  -5.066  -3.256  1.00  0.00     0.040 A 
HETATM   44  C31 UNL     1      17.097  -4.279  -4.259  1.00  0.00     0.016 A 
BRANCH  41  45
HETATM   45  O1  UNL     1      15.600  -8.048  -3.544  1.00  0.00    -0.353 OA
HETATM   46  C1  UNL     1      14.406  -8.186  -2.811  1.00  0.00     0.210 C 
ENDBRANCH  41  45
BRANCH  42  47
HETATM   47  O12 UNL     1      17.685  -7.083  -1.985  1.00  0.00    -0.358 OA
ATOM     48  H12 UNL     1      17.575  -6.863  -1.067  1.00  0.00     0.217 HD
ENDBRANCH  42  47
ENDBRANCH  37  39
ENDBRANCH  33  36
ENDBRANCH   1  32
BRANCH   7  49
HETATM   49  O8  UNL     1      14.361   2.909  -9.322  1.00  0.00    -0.213 OA
BRANCH  49  50
HETATM   50  S1  UNL     1      14.930   4.074  -8.279  1.00  0.00     0.257 S 
HETATM   51  O9  UNL     1      14.655   5.463  -8.797  1.00  0.00    -0.572 OA
HETATM   52  O10 UNL     1      16.400   3.978  -7.982  1.00  0.00    -0.572 OA
HETATM   53  O11 UNL     1      14.178   3.950  -6.751  1.00  0.00    -0.572 OA
ENDBRANCH  49  50
ENDBRANCH   7  49
TORSDOF 14
ENDMDL
MODEL 2
REMARK VINA RESULT: -10.621486158      2.970      5.294
REMARK  14 active torsions:
REMARK  status: ('A' for Active; 'I' for Inactive)
REMARK    1  A    between atoms: O1_2  and  C2_3 
REMARK    2  A    between atoms: C4_5  and  C5_6 
REMARK    3  A    between atoms: N1_7  and  N2_9 
REMARK       I    between atoms: N2_9  and  C6_11 
REMARK    4  A    between atoms: C6_11  and  C7_13 
REMARK    5  A    between atoms: C11_18  and  C12_19 
REMARK    6  A    between atoms: C14_21  and  C15_22 
REMARK    7  A    between atoms: C16_23  and  C17_24 
REMARK    8  A    between atoms: C20_27  and  C21_28 
REMARK    9  A    between atoms: C22_31  and  O5_32 
REMARK   10  A    between atoms: C25_36  and  O6_37 
REMARK   11  A    between atoms: C27_39  and  O7_40 
REMARK   12  A    between atoms: C29_42  and  O8_43 
REMARK   13  A    between atoms: O8_43  and  S1_44 
REMARK   14  A    between atoms: C33_51  and  O12_52 
ROOT
HETATM    1  C7  UNL     1      13.565  -0.634  -7.911  1.00  0.00     0.037 A 
HETATM    2  C8  UNL     1      12.280  -0.521  -8.434  1.00  0.00     0.040 A 
HETATM    3  C9  UNL     1      11.899   0.623  -9.088  1.00  0.00     0.059 A 
HETATM    4  C10 UNL     1      10.572   0.731  -9.625  1.00  0.00     0.100 C 
HETATM    5  N3  UNL     1       9.496   0.825 -10.045  1.00  0.00    -0.191 NA
HETATM    6  C11 UNL     1      12.795   1.691  -9.241  1.00  0.00     0.033 A 
HETATM    7  C29 UNL     1      14.053   1.590  -8.736  1.00  0.00     0.105 A 
HETATM    8  C30 UNL     1      14.423   0.413  -8.069  1.00  0.00     0.056 A 
ENDROOT
BRANCH   6   9
HETATM    9  C12 UNL     1      12.402   2.863 -10.016  1.00  0.00     0.015 A 
HETATM   10  C13 UNL     1      12.126   4.035  -9.354  1.00  0.00     0.027 A 
HETATM   11  C14 UNL     1      11.658   5.208  -9.965  1.00  0.00    -0.033 A 
HETATM   12  C24 UNL     1      11.475   5.147 -11.319  1.00  0.00     0.051 A 
HETATM   13  C25 UNL     1      11.746   3.981 -12.008  1.00  0.00     0.103 A 
HETATM   14  C27 UNL     1      12.209   2.831 -11.394  1.00  0.00     0.112 A 
BRANCH  11  15
HETATM   15  C15 UNL     1      11.510   6.429  -9.225  1.00  0.00     0.012 C 
HETATM   16  C16 UNL     1      11.155   7.628  -9.413  1.00  0.00     0.012 C 
BRANCH  16  17
HETATM   17  C17 UNL     1      10.676   8.486 -10.451  1.00  0.00    -0.034 A 
HETATM   18  C18 UNL     1      10.244   9.794 -10.143  1.00  0.00     0.012 A 
HETATM   19  C19 UNL     1       9.686  10.593 -11.084  1.00  0.00     0.022 A 
HETATM   20  C20 UNL     1       9.498  10.193 -12.414  1.00  0.00     0.073 A 
HETATM   21  C22 UNL     1       9.913   8.924 -12.728  1.00  0.00     0.083 A 
HETATM   22  C23 UNL     1      10.489   8.104 -11.745  1.00  0.00     0.049 A 
BRANCH  20  23
HETATM   23  C21 UNL     1       8.893  11.116 -13.356  1.00  0.00     0.212 C 
HETATM   24  O3  UNL     1       9.290  12.267 -13.572  1.00  0.00    -0.644 OA
HETATM   25  O4  UNL     1       7.782  10.692 -14.078  1.00  0.00    -0.644 OA
ENDBRANCH  20  23
BRANCH  21  26
HETATM   26  O5  UNL     1       9.787   8.415 -13.984  1.00  0.00    -0.360 OA
ATOM     27  H5  UNL     1       8.940   8.200 -14.356  1.00  0.00     0.217 HD
ENDBRANCH  21  26
ENDBRANCH  16  17
ENDBRANCH  11  15
BRANCH  13  28
HETATM   28  O6  UNL     1      11.538   3.977 -13.398  1.00  0.00    -0.353 OA
HETATM   29  C26 UNL     1      10.532   3.178 -13.987  1.00  0.00     0.210 C 
ENDBRANCH  13  28
BRANCH  14  30
HETATM   30  O7  UNL     1      12.470   1.721 -12.121  1.00  0.00    -0.352 OA
HETATM   31  C28 UNL     1      13.516   1.193 -12.797  1.00  0.00     0.210 C 
ENDBRANCH  14  30
ENDBRANCH   6   9
BRANCH   1  32
HETATM   32  C6  UNL     1      13.996  -1.831  -7.216  1.00  0.00     0.270 C 
HETATM   33  N2  UNL     1      14.352  -1.824  -5.845  1.00  0.00    -0.266 N 
ATOM     34  H2  UNL     1      14.320  -0.971  -5.287  1.00  0.00     0.190 HD
HETATM   35  O2  UNL     1      14.040  -2.910  -7.901  1.00  0.00    -0.266 OA
BRANCH  33  36
HETATM   36  N1  UNL     1      14.757  -3.069  -5.289  1.00  0.00    -0.308 N 
HETATM   37  C5  UNL     1      15.851  -3.052  -4.601  1.00  0.00     0.118 C 
ATOM     38  H1  UNL     1      14.215  -3.923  -5.425  1.00  0.00     0.186 HD
BRANCH  37  39
HETATM   39  C4  UNL     1      16.346  -4.284  -3.990  1.00  0.00    -0.017 A 
HETATM   40  C3  UNL     1      15.673  -5.457  -4.123  1.00  0.00     0.052 A 
HETATM   41  C2  UNL     1      16.141  -6.615  -3.550  1.00  0.00     0.102 A 
HETATM   42  C33 UNL     1      17.308  -6.610  -2.824  1.00  0.00     0.099 A 
HETATM   43  C32 UNL     1      17.978  -5.418  -2.697  1.00  0.00     0.040 A 
HETATM   44  C31 UNL     1      17.504  -4.261  -3.274  1.00  0.00     0.016 A 
BRANCH  41  45
HETATM   45  O1  UNL     1      15.458  -7.810  -3.685  1.00  0.00    -0.353 OA
HETATM   46  C1  UNL     1      14.391  -8.094  -2.810  1.00  0.00     0.210 C 
ENDBRANCH  41  45
BRANCH  42  47
HETATM   47  O12 UNL     1      17.820  -7.751  -2.226  1.00  0.00    -0.358 OA
ATOM     48  H12 UNL     1      17.723  -7.928  -1.297  1.00  0.00     0.217 HD
ENDBRANCH  42  47
ENDBRANCH  37  39
ENDBRANCH  33  36
ENDBRANCH   1  32
BRANCH   7  49
HETATM   49  O8  UNL     1      14.987   2.564  -8.854  1.00  0.00    -0.213 OA
BRANCH  49  50
HETATM   50  S1  UNL     1      15.727   3.406  -7.624  1.00  0.00     0.257 S 
HETATM   51  O9  UNL     1      15.620   4.896  -7.831  1.00  0.00    -0.572 OA
HETATM   52  O10 UNL     1      17.180   3.073  -7.431  1.00  0.00    -0.572 OA
HETATM   53  O11 UNL     1      15.005   3.054  -6.118  1.00  0.00    -0.572 OA
ENDBRANCH  49  50
ENDBRANCH   7  49
TORSDOF 14
ENDMDL
MODEL 3
REMARK VINA RESULT: -10.502070977      2.939      5.340
REMARK  14 active torsions:
REMARK  status: ('A' for Active; 'I' for Inactive)
REMARK    1  A    between atoms: O1_2  and  C2_3 
REMARK    2  A    between atoms: C4_5  and  C5_6 
REMARK    3  A    between atoms: N1_7  and  N2_9 
REMARK       I    between atoms: N2_9  and  C6_11 
REMARK    4  A    between atoms: C6_11  and  C7_13 
REMARK    5  A    between atoms: C11_18  and  C12_19 
REMARK    6  A    between atoms: C14_21  and  C15_22 
REMARK    7  A    between atoms: C16_23  and  C17_24 
REMARK    8  A    between atoms: C20_27  and  C21_28 
REMARK    9  A    between atoms: C22_31  and  O5_32 
REMARK   10  A    between atoms: C25_36  and  O6_37 
REMARK   11  A    between atoms: C27_39  and  O7_40 
REMARK   12  A    between atoms: C29_42  and  O8_43 
REMARK   13  A    between atoms: O8_43  and  S1_44 
REMARK   14  A    between atoms: C33_51  and  O12_52 
ROOT
HETATM    1  C7  UNL     1      13.333  -0.531  -6.974  1.00  0.00     0.037 A 
HETATM    2  C8  UNL     1      12.225  -0.544  -7.816  1.00  0.00     0.040 A 
HETATM    3  C9  UNL     1      11.873   0.585  -8.512  1.00  0.00     0.059 A 
HETATM    4  C10 UNL     1      10.729   0.563  -9.379  1.00  0.00     0.100 C 
HETATM    5  N3  UNL     1       9.797   0.550 -10.068  1.00  0.00    -0.191 NA
HETATM    6  C11 UNL     1      12.623   1.764  -8.387  1.00  0.00     0.033 A 
HETATM    7  C29 UNL     1      13.708   1.786  -7.569  1.00  0.00     0.105 A 
HETATM    8  C30 UNL     1      14.050   0.623  -6.865  1.00  0.00     0.056 A 
ENDROOT
BRANCH   6   9
HETATM    9  C12 UNL     1      12.287   2.927  -9.201  1.00  0.00     0.015 A 
HETATM   10  C13 UNL     1      11.853   4.072  -8.577  1.00  0.00     0.027 A 
HETATM   11  C14 UNL     1      11.420   5.230  -9.241  1.00  0.00    -0.033 A 
HETATM   12  C24 UNL     1      11.443   5.182 -10.607  1.00  0.00     0.051 A 
HETATM   13  C25 UNL     1      11.876   4.043 -11.259  1.00  0.00     0.103 A 
HETATM   14  C27 UNL     1      12.303   2.908 -10.593  1.00  0.00     0.112 A 
BRANCH  11  15
HETATM   15  C15 UNL     1      11.097   6.429  -8.520  1.00  0.00     0.012 C 
HETATM   16  C16 UNL     1      10.773   7.629  -8.751  1.00  0.00     0.012 C 
BRANCH  16  17
HETATM   17  C17 UNL     1      10.515   8.510  -9.846  1.00  0.00    -0.034 A 
HETATM   18  C18 UNL     1      10.002   9.803  -9.606  1.00  0.00     0.012 A 
HETATM   19  C19 UNL     1       9.647  10.622 -10.626  1.00  0.00     0.022 A 
HETATM   20  C20 UNL     1       9.760  10.258 -11.974  1.00  0.00     0.073 A 
HETATM   21  C22 UNL     1      10.257   9.004 -12.223  1.00  0.00     0.083 A 
HETATM   22  C23 UNL     1      10.621   8.163 -11.159  1.00  0.00     0.049 A 
BRANCH  20  23
HETATM   23  C21 UNL     1       9.356  11.199 -13.002  1.00  0.00     0.212 C 
HETATM   24  O3  UNL     1       8.848  10.887 -14.086  1.00  0.00    -0.644 OA
HETATM   25  O4  UNL     1       9.548  12.557 -12.770  1.00  0.00    -0.644 OA
ENDBRANCH  20  23
BRANCH  21  26
HETATM   26  O5  UNL     1      10.417   8.529 -13.488  1.00  0.00    -0.360 OA
ATOM     27  H5  UNL     1       9.868   7.838 -13.838  1.00  0.00     0.217 HD
ENDBRANCH  21  26
ENDBRANCH  16  17
ENDBRANCH  11  15
BRANCH  13  28
HETATM   28  O6  UNL     1      11.877   4.052 -12.664  1.00  0.00    -0.353 OA
HETATM   29  C26 UNL     1      10.853   3.418 -13.403  1.00  0.00     0.210 C 
ENDBRANCH  13  28
BRANCH  14  30
HETATM   30  O7  UNL     1      12.729   1.826 -11.283  1.00  0.00    -0.352 OA
HETATM   31  C28 UNL     1      13.875   1.395 -11.857  1.00  0.00     0.210 C 
ENDBRANCH  14  30
ENDBRANCH   6   9
BRANCH   1  32
HETATM   32  C6  UNL     1      13.729  -1.709  -6.227  1.00  0.00     0.270 C 
HETATM   33  N2  UNL     1      14.429  -2.784  -6.824  1.00  0.00    -0.266 N 
ATOM     34  H2  UNL     1      14.687  -2.775  -7.811  1.00  0.00     0.190 HD
HETATM   35  O2  UNL     1      13.416  -1.736  -4.988  1.00  0.00    -0.266 OA
BRANCH  33  36
HETATM   36  N1  UNL     1      14.756  -3.878  -5.975  1.00  0.00    -0.308 N 
HETATM   37  C5  UNL     1      15.866  -3.774  -5.321  1.00  0.00     0.118 C 
ATOM     38  H1  UNL     1      14.151  -4.694  -5.888  1.00  0.00     0.186 HD
BRANCH  37  39
HETATM   39  C4  UNL     1      16.286  -4.848  -4.424  1.00  0.00    -0.017 A 
HETATM   40  C3  UNL     1      15.629  -6.037  -4.392  1.00  0.00     0.052 A 
HETATM   41  C2  UNL     1      16.026  -7.047  -3.549  1.00  0.00     0.102 A 
HETATM   42  C33 UNL     1      17.104  -6.873  -2.713  1.00  0.00     0.099 A 
HETATM   43  C32 UNL     1      17.759  -5.667  -2.755  1.00  0.00     0.040 A 
HETATM   44  C31 UNL     1      17.356  -4.659  -3.603  1.00  0.00     0.016 A 
BRANCH  41  45
HETATM   45  O1  UNL     1      15.359  -8.258  -3.515  1.00  0.00    -0.353 OA
HETATM   46  C1  UNL     1      14.142  -8.353  -2.813  1.00  0.00     0.210 C 
ENDBRANCH  41  45
BRANCH  42  47
HETATM   47  O12 UNL     1      17.541  -7.861  -1.845  1.00  0.00    -0.358 OA
ATOM     48  H12 UNL     1      18.116  -7.678  -1.111  1.00  0.00     0.217 HD
ENDBRANCH  42  47
ENDBRANCH  37  39
ENDBRANCH  33  36
ENDBRANCH   1  32
BRANCH   7  49
HETATM   49  O8  UNL     1      14.497   2.875  -7.403  1.00  0.00    -0.213 OA
BRANCH  49  50
HETATM   50  S1  UNL     1      15.929   3.211  -8.183  1.00  0.00     0.257 S 
HETATM   51  O9  UNL     1      15.962   4.629  -8.692  1.00  0.00    -0.572 OA
HETATM   52  O10 UNL     1      16.234   2.300  -9.340  1.00  0.00    -0.572 OA
HETATM   53  O11 UNL     1      17.260   3.023  -7.131  1.00  0.00    -0.572 OA
ENDBRANCH  49  50
ENDBRANCH   7  49
TORSDOF 14
ENDMDL
MODEL 4
REMARK VINA RESULT: -10.484848284      4.499      6.548
REMARK  14 active torsions:
REMARK  status: ('A' for Active; 'I' for Inactive)
REMARK    1  A    between atoms: O1_2  and  C2_3 
REMARK    2  A    between atoms: C4_5  and  C5_6 
REMARK    3  A    between atoms: N1_7  and  N2_9 
REMARK       I    between atoms: N2_9  and  C6_11 
REMARK    4  A    between atoms: C6_11  and  C7_13 
REMARK    5  A    between atoms: C11_18  and  C12_19 
REMARK    6  A    between atoms: C14_21  and  C15_22 
REMARK    7  A    between atoms: C16_23  and  C17_24 
REMARK    8  A    between atoms: C20_27  and  C21_28 
REMARK    9  A    between atoms: C22_31  and  O5_32 
REMARK   10  A    between atoms: C25_36  and  O6_37 
REMARK   11  A    between atoms: C27_39  and  O7_40 
REMARK   12  A    between atoms: C29_42  and  O8_43 
REMARK   13  A    between atoms: O8_43  and  S1_44 
REMARK   14  A    between atoms: C33_51  and  O12_52 
ROOT
HETATM    1  C7  UNL     1      14.364   1.473 -11.151  1.00  0.00     0.037 A 
HETATM    2  C8  UNL     1      15.545   1.030 -11.739  1.00  0.00     0.040 A 
HETATM    3  C9  UNL     1      15.776   1.246 -13.073  1.00  0.00     0.059 A 
HETATM    4  C10 UNL     1      16.998   0.787 -13.672  1.00  0.00     0.100 C 
HETATM    5  N3  UNL     1      17.977   0.403 -14.158  1.00  0.00    -0.191 NA
HETATM    6  C11 UNL     1      14.829   1.916 -13.863  1.00  0.00     0.033 A 
HETATM    7  C29 UNL     1      13.673   2.354 -13.298  1.00  0.00     0.105 A 
HETATM    8  C30 UNL     1      13.456   2.122 -11.933  1.00  0.00     0.056 A 
ENDROOT
BRANCH   6   9
HETATM    9  C12 UNL     1      15.130   2.215 -15.259  1.00  0.00     0.015 A 
HETATM   10  C13 UNL     1      15.955   3.275 -15.549  1.00  0.00     0.027 A 
HETATM   11  C14 UNL     1      16.258   3.722 -16.844  1.00  0.00    -0.033 A 
HETATM   12  C24 UNL     1      15.673   3.031 -17.869  1.00  0.00     0.051 A 
HETATM   13  C25 UNL     1      14.841   1.961 -17.604  1.00  0.00     0.103 A 
HETATM   14  C27 UNL     1      14.551   1.528 -16.323  1.00  0.00     0.112 A 
BRANCH  11  15
HETATM   15  C15 UNL     1      17.224   4.758 -17.070  1.00  0.00     0.012 C 
HETATM   16  C16 UNL     1      18.372   5.104 -16.668  1.00  0.00     0.012 C 
BRANCH  16  17
HETATM   17  C17 UNL     1      19.402   4.678 -15.773  1.00  0.00    -0.034 A 
HETATM   18  C18 UNL     1      20.755   4.936 -16.079  1.00  0.00     0.012 A 
HETATM   19  C19 UNL     1      21.758   4.452 -15.308  1.00  0.00     0.022 A 
HETATM   20  C20 UNL     1      21.536   3.673 -14.163  1.00  0.00     0.073 A 
HETATM   21  C22 UNL     1      20.225   3.414 -13.854  1.00  0.00     0.083 A 
HETATM   22  C23 UNL     1      19.193   3.919 -14.661  1.00  0.00     0.049 A 
BRANCH  20  23
HETATM   23  C21 UNL     1      22.670   3.198 -13.395  1.00  0.00     0.212 C 
HETATM   24  O3  UNL     1      22.704   2.129 -12.772  1.00  0.00    -0.644 OA
HETATM   25  O4  UNL     1      23.813   3.989 -13.341  1.00  0.00    -0.644 OA
ENDBRANCH  20  23
BRANCH  21  26
HETATM   26  O5  UNL     1      19.874   2.670 -12.769  1.00  0.00    -0.360 OA
ATOM     27  H5  UNL     1      19.050   2.801 -12.316  1.00  0.00     0.217 HD
ENDBRANCH  21  26
ENDBRANCH  16  17
ENDBRANCH  11  15
BRANCH  13  28
HETATM   28  O6  UNL     1      14.267   1.289 -18.698  1.00  0.00    -0.353 OA
HETATM   29  C26 UNL     1      13.318   1.922 -19.533  1.00  0.00     0.210 C 
ENDBRANCH  13  28
BRANCH  14  30
HETATM   30  O7  UNL     1      13.738   0.466 -16.123  1.00  0.00    -0.352 OA
HETATM   31  C28 UNL     1      13.859  -0.876 -16.005  1.00  0.00     0.210 C 
ENDBRANCH  14  30
ENDBRANCH   6   9
BRANCH   1  32
HETATM   32  C6  UNL     1      14.093   1.260  -9.743  1.00  0.00     0.270 C 
HETATM   33  N2  UNL     1      13.870   2.330  -8.844  1.00  0.00    -0.266 N 
ATOM     34  H2  UNL     1      13.891   3.303  -9.151  1.00  0.00     0.190 HD
HETATM   35  O2  UNL     1      14.061   0.046  -9.341  1.00  0.00    -0.266 OA
BRANCH  33  36
HETATM   36  N1  UNL     1      13.616   1.979  -7.489  1.00  0.00    -0.308 N 
HETATM   37  C5  UNL     1      14.652   1.902  -6.720  1.00  0.00     0.118 C 
ATOM     38  H1  UNL     1      12.672   1.797  -7.146  1.00  0.00     0.186 HD
BRANCH  37  39
HETATM   39  C4  UNL     1      14.490   1.547  -5.312  1.00  0.00    -0.017 A 
HETATM   40  C3  UNL     1      13.266   1.261  -4.794  1.00  0.00     0.052 A 
HETATM   41  C2  UNL     1      13.115   0.926  -3.470  1.00  0.00     0.102 A 
HETATM   42  C33 UNL     1      14.207   0.873  -2.636  1.00  0.00     0.099 A 
HETATM   43  C32 UNL     1      15.437   1.165  -3.172  1.00  0.00     0.040 A 
HETATM   44  C31 UNL     1      15.582   1.500  -4.500  1.00  0.00     0.016 A 
BRANCH  41  45
HETATM   45  O1  UNL     1      11.871   0.634  -2.940  1.00  0.00    -0.353 OA
HETATM   46  C1  UNL     1      11.070  -0.342  -3.565  1.00  0.00     0.210 C 
ENDBRANCH  41  45
BRANCH  42  47
HETATM   47  O12 UNL     1      14.105   0.541  -1.295  1.00  0.00    -0.358 OA
ATOM     48  H12 UNL     1      14.168  -0.355  -0.983  1.00  0.00     0.217 HD
ENDBRANCH  42  47
ENDBRANCH  37  39
ENDBRANCH  33  36
ENDBRANCH   1  32
BRANCH   7  49
HETATM   49  O8  UNL     1      12.714   3.024 -13.982  1.00  0.00    -0.213 OA
BRANCH  49  50
HETATM   50  S1  UNL     1      11.097   3.132 -13.606  1.00  0.00     0.257 S 
HETATM   51  O9  UNL     1      10.267   3.461 -14.821  1.00  0.00    -0.572 OA
HETATM   52  O10 UNL     1      10.773   4.144 -12.542  1.00  0.00    -0.572 OA
HETATM   53  O11 UNL     1      10.512   1.655 -12.982  1.00  0.00    -0.572 OA
ENDBRANCH  49  50
ENDBRANCH   7  49
TORSDOF 14
ENDMDL
MODEL 5
REMARK VINA RESULT: -10.479767590      0.510      1.051
REMARK  14 active torsions:
REMARK  status: ('A' for Active; 'I' for Inactive)
REMARK    1  A    between atoms: O1_2  and  C2_3 
REMARK    2  A    between atoms: C4_5  and  C5_6 
REMARK    3  A    between atoms: N1_7  and  N2_9 
REMARK       I    between atoms: N2_9  and  C6_11 
REMARK    4  A    between atoms: C6_11  and  C7_13 
REMARK    5  A    between atoms: C11_18  and  C12_19 
REMARK    6  A    between atoms: C14_21  and  C15_22 
REMARK    7  A    between atoms: C16_23  and  C17_24 
REMARK    8  A    between atoms: C20_27  and  C21_28 
REMARK    9  A    between atoms: C22_31  and  O5_32 
REMARK   10  A    between atoms: C25_36  and  O6_37 
REMARK   11  A    between atoms: C27_39  and  O7_40 
REMARK   12  A    between atoms: C29_42  and  O8_43 
REMARK   13  A    between atoms: O8_43  and  S1_44 
REMARK   14  A    between atoms: C33_51  and  O12_52 
ROOT
HETATM    1  C7  UNL     1      13.242  -0.065  -7.688  1.00  0.00     0.037 A 
HETATM    2  C8  UNL     1      12.023  -0.292  -8.320  1.00  0.00     0.040 A 
HETATM    3  C9  UNL     1      11.570   0.578  -9.278  1.00  0.00     0.059 A 
HETATM    4  C10 UNL     1      10.312   0.337  -9.926  1.00  0.00     0.100 C 
HETATM    5  N3  UNL     1       9.289   0.150 -10.439  1.00  0.00    -0.191 NA
HETATM    6  C11 UNL     1      12.326   1.705  -9.635  1.00  0.00     0.033 A 
HETATM    7  C29 UNL     1      13.519   1.934  -9.025  1.00  0.00     0.105 A 
HETATM    8  C30 UNL     1      13.963   1.033  -8.047  1.00  0.00     0.056 A 
ENDROOT
BRANCH   6   9
HETATM    9  C12 UNL     1      11.871   2.571 -10.717  1.00  0.00     0.015 A 
HETATM   10  C13 UNL     1      12.200   2.247 -12.011  1.00  0.00     0.027 A 
HETATM   11  C14 UNL     1      11.900   3.032 -13.134  1.00  0.00    -0.033 A 
HETATM   12  C24 UNL     1      11.231   4.199 -12.888  1.00  0.00     0.051 A 
HETATM   13  C25 UNL     1      10.888   4.548 -11.597  1.00  0.00     0.103 A 
HETATM   14  C27 UNL     1      11.187   3.764 -10.497  1.00  0.00     0.112 A 
BRANCH  11  15
HETATM   15  C15 UNL     1      12.168   2.568 -14.466  1.00  0.00     0.012 C 
HETATM   16  C16 UNL     1      13.138   2.472 -15.272  1.00  0.00     0.012 C 
BRANCH  16  17
HETATM   17  C17 UNL     1      14.539   2.745 -15.348  1.00  0.00    -0.034 A 
HETATM   18  C18 UNL     1      15.413   2.234 -14.364  1.00  0.00     0.012 A 
HETATM   19  C19 UNL     1      16.727   2.563 -14.347  1.00  0.00     0.022 A 
HETATM   20  C20 UNL     1      17.314   3.418 -15.290  1.00  0.00     0.073 A 
HETATM   21  C22 UNL     1      16.476   3.922 -16.253  1.00  0.00     0.083 A 
HETATM   22  C23 UNL     1      15.116   3.577 -16.260  1.00  0.00     0.049 A 
BRANCH  20  23
HETATM   23  C21 UNL     1      18.731   3.714 -15.197  1.00  0.00     0.212 C 
HETATM   24  O3  UNL     1      19.224   4.845 -15.296  1.00  0.00    -0.644 OA
HETATM   25  O4  UNL     1      19.615   2.663 -14.981  1.00  0.00    -0.644 OA
ENDBRANCH  20  23
BRANCH  21  26
HETATM   26  O5  UNL     1      16.921   4.764 -17.225  1.00  0.00    -0.360 OA
ATOM     27  H5  UNL     1      16.469   5.572 -17.436  1.00  0.00     0.217 HD
ENDBRANCH  21  26
ENDBRANCH  16  17
ENDBRANCH  11  15
BRANCH  13  28
HETATM   28  O6  UNL     1      10.202   5.760 -11.405  1.00  0.00    -0.353 OA
HETATM   29  C26 UNL     1      10.793   6.999 -11.742  1.00  0.00     0.210 C 
ENDBRANCH  13  28
BRANCH  14  30
HETATM   30  O7  UNL     1      10.815   4.150  -9.256  1.00  0.00    -0.352 OA
HETATM   31  C28 UNL     1      11.098   5.154  -8.395  1.00  0.00     0.210 C 
ENDBRANCH  14  30
ENDBRANCH   6   9
BRANCH   1  32
HETATM   32  C6  UNL     1      13.747  -0.969  -6.672  1.00  0.00     0.270 C 
HETATM   33  N2  UNL     1      14.056  -2.322  -6.948  1.00  0.00    -0.266 N 
ATOM     34  H2  UNL     1      13.936  -2.721  -7.879  1.00  0.00     0.190 HD
HETATM   35  O2  UNL     1      13.906  -0.485  -5.499  1.00  0.00    -0.266 OA
BRANCH  33  36
HETATM   36  N1  UNL     1      14.544  -3.097  -5.859  1.00  0.00    -0.308 N 
HETATM   37  C5  UNL     1      15.443  -3.978  -6.150  1.00  0.00     0.118 C 
ATOM     38  H1  UNL     1      14.203  -2.964  -4.907  1.00  0.00     0.186 HD
BRANCH  37  39
HETATM   39  C4  UNL     1      16.004  -4.822  -5.097  1.00  0.00    -0.017 A 
HETATM   40  C3  UNL     1      15.470  -6.038  -4.810  1.00  0.00     0.052 A 
HETATM   41  C2  UNL     1      15.999  -6.832  -3.820  1.00  0.00     0.102 A 
HETATM   42  C33 UNL     1      17.087  -6.407  -3.095  1.00  0.00     0.099 A 
HETATM   43  C32 UNL     1      17.617  -5.176  -3.395  1.00  0.00     0.040 A 
HETATM   44  C31 UNL     1      17.082  -4.386  -4.389  1.00  0.00     0.016 A 
BRANCH  41  45
HETATM   45  O1  UNL     1      15.458  -8.070  -3.527  1.00  0.00    -0.353 OA
HETATM   46  C1  UNL     1      14.270  -8.139  -2.774  1.00  0.00     0.210 C 
ENDBRANCH  41  45
BRANCH  42  47
HETATM   47  O12 UNL     1      17.655  -7.170  -2.087  1.00  0.00    -0.358 OA
ATOM     48  H12 UNL     1      17.493  -7.003  -1.166  1.00  0.00     0.217 HD
ENDBRANCH  42  47
ENDBRANCH  37  39
ENDBRANCH  33  36
ENDBRANCH   1  32
BRANCH   7  49
HETATM   49  O8  UNL     1      14.319   2.986  -9.321  1.00  0.00    -0.213 OA
BRANCH  49  50
HETATM   50  S1  UNL     1      14.825   4.191  -8.289  1.00  0.00     0.257 S 
HETATM   51  O9  UNL     1      14.494   5.558  -8.830  1.00  0.00    -0.572 OA
HETATM   52  O10 UNL     1      16.295   4.164  -7.977  1.00  0.00    -0.572 OA
HETATM   53  O11 UNL     1      14.064   4.054  -6.767  1.00  0.00    -0.572 OA
ENDBRANCH  49  50
ENDBRANCH   7  49
TORSDOF 14
ENDMDL
