MODEL 1
REMARK VINA RESULT: -10.661283871      0.000      0.000
REMARK  16 active torsions:
REMARK  status: ('A' for Active; 'I' for Inactive)
REMARK    1  A    between atoms: O1_2  and  C2_3 
REMARK    2  A    between atoms: C5_6  and  C6_7 
REMARK    3  A    between atoms: C6_7  and  C7_8 
REMARK    4  A    between atoms: C7_8  and  C8_9 
REMARK    5  A    between atoms: C8_9  and  N1_10 
REMARK    6  A    between atoms: C8_9  and  C19_30 
REMARK    7  A    between atoms: N1_10  and  N2_12 
REMARK       I    between atoms: N2_12  and  C9_14 
REMARK    8  A    between atoms: C9_14  and  C10_16 
REMARK    9  A    between atoms: C12_18  and  O3_19 
REMARK   10  A    between atoms: C13_21  and  O4_22 
REMARK   11  A    between atoms: C15_24  and  O5_25 
REMARK   12  A    between atoms: C17_27  and  O6_28 
REMARK   13  A    between atoms: C22_35  and  O7_36 
REMARK   14  A    between atoms: C24_38  and  O8_39 
REMARK   15  A    between atoms: C26_41  and  O9_42 
REMARK   16  A    between atoms: C29_47  and  C30_48 
ROOT
HETATM    1  C8  UNL     1      12.015   3.399  -8.993  1.00  0.00     0.075 C 
ENDROOT
BRANCH   1   2
HETATM    2  C7  UNL     1      11.729   2.079  -8.733  1.00  0.00     0.034 C 
BRANCH   2   3
HETATM    3  C6  UNL     1      12.046   0.893  -9.124  1.00  0.00     0.014 C 
BRANCH   3   4
HETATM    4  C5  UNL     1      12.689  -0.141  -8.260  1.00  0.00    -0.036 A 
HETATM    5  C4  UNL     1      12.510  -0.225  -6.908  1.00  0.00     0.014 A 
HETATM    6  C3  UNL     1      13.161  -1.210  -6.162  1.00  0.00     0.037 A 
HETATM    7  C2  UNL     1      13.992  -2.117  -6.748  1.00  0.00     0.068 A 
HETATM    8  C37 UNL     1      14.183  -2.048  -8.112  1.00  0.00     0.037 A 
HETATM    9  C36 UNL     1      13.535  -1.068  -8.844  1.00  0.00     0.014 A 
BRANCH   7  10
HETATM   10  O1  UNL     1      14.646  -3.107  -6.008  1.00  0.00    -0.356 OA
HETATM   11  C1  UNL     1      15.335  -4.147  -6.674  1.00  0.00     0.210 C 
ENDBRANCH   7  10
ENDBRANCH   3   4
ENDBRANCH   2   3
ENDBRANCH   1   2
BRANCH   1  12
HETATM   12  N1  UNL     1      12.561   4.078  -7.923  1.00  0.00    -0.296 N 
ATOM     13  H1  UNL     1      12.611   5.097  -7.937  1.00  0.00     0.187 HD
BRANCH  12  14
HETATM   14  N2  UNL     1      13.037   3.385  -6.840  1.00  0.00    -0.265 N 
HETATM   15  C9  UNL     1      14.421   3.232  -6.603  1.00  0.00     0.273 C 
HETATM   16  O2  UNL     1      15.168   3.780  -7.510  1.00  0.00    -0.266 OA
ATOM     17  H2  UNL     1      12.373   2.967  -6.188  1.00  0.00     0.190 HD
BRANCH  15  18
HETATM   18  C10 UNL     1      15.037   2.560  -5.491  1.00  0.00     0.072 A 
HETATM   19  C11 UNL     1      16.445   2.347  -5.583  1.00  0.00     0.059 A 
HETATM   20  C12 UNL     1      17.134   1.625  -4.651  1.00  0.00     0.102 A 
HETATM   21  C13 UNL     1      16.457   1.075  -3.575  1.00  0.00     0.137 A 
HETATM   22  C15 UNL     1      15.102   1.285  -3.490  1.00  0.00     0.139 A 
HETATM   23  C17 UNL     1      14.407   2.016  -4.432  1.00  0.00     0.120 A 
BRANCH  20  24
HETATM   24  O3  UNL     1      18.509   1.455  -4.804  1.00  0.00    -0.358 OA
ATOM     25  H3  UNL     1      18.831   0.860  -5.470  1.00  0.00     0.217 HD
ENDBRANCH  20  24
BRANCH  21  26
HETATM   26  O4  UNL     1      17.169   0.347  -2.645  1.00  0.00    -0.351 OA
HETATM   27  C14 UNL     1      17.351  -1.027  -2.849  1.00  0.00     0.210 C 
ENDBRANCH  21  26
BRANCH  22  28
HETATM   28  O5  UNL     1      14.442   0.734  -2.412  1.00  0.00    -0.351 OA
HETATM   29  C16 UNL     1      13.677  -0.430  -2.570  1.00  0.00     0.210 C 
ENDBRANCH  22  28
BRANCH  23  30
HETATM   30  O6  UNL     1      13.057   2.160  -4.210  1.00  0.00    -0.352 OA
HETATM   31  C18 UNL     1      12.692   3.289  -3.388  1.00  0.00     0.210 C 
ENDBRANCH  23  30
ENDBRANCH  15  18
ENDBRANCH  12  14
ENDBRANCH   1  12
BRANCH   1  32
HETATM   32  C19 UNL     1      11.819   4.350 -10.053  1.00  0.00     0.076 A 
HETATM   33  N3  UNL     1      11.689   5.687  -9.658  1.00  0.00    -0.353 N 
HETATM   34  C20 UNL     1      11.348   6.683 -10.467  1.00  0.00     0.052 A 
ATOM     35  H3  UNL     1      11.870   5.912  -8.679  1.00  0.00     0.166 HD
HETATM   36  C21 UNL     1      11.244   7.985  -9.963  1.00  0.00     0.070 A 
HETATM   37  C27 UNL     1      11.089   6.451 -11.804  1.00  0.00     0.078 A 
HETATM   38  C22 UNL     1      10.887   9.016 -10.796  1.00  0.00     0.106 A 
HETATM   39  C24 UNL     1      10.624   8.817 -12.125  1.00  0.00     0.136 A 
HETATM   40  C26 UNL     1      10.731   7.501 -12.629  1.00  0.00     0.118 A 
HETATM   41  C28 UNL     1      11.209   5.160 -12.221  1.00  0.00     0.200 A 
HETATM   42  O10 UNL     1      10.997   4.848 -13.410  1.00  0.00    -0.286 OA
HETATM   43  C29 UNL     1      11.577   4.094 -11.353  1.00  0.00     0.054 A 
BRANCH  38  44
HETATM   44  O7  UNL     1      10.776  10.319 -10.321  1.00  0.00    -0.353 OA
HETATM   45  C23 UNL     1       9.592  10.689  -9.643  1.00  0.00     0.210 C 
ENDBRANCH  38  44
BRANCH  39  46
HETATM   46  O8  UNL     1      10.259   9.861 -12.993  1.00  0.00    -0.351 OA
HETATM   47  C25 UNL     1       8.849   9.974 -13.229  1.00  0.00     0.210 C 
ENDBRANCH  39  46
BRANCH  40  48
HETATM   48  O9  UNL     1      10.471   7.327 -13.933  1.00  0.00    -0.357 OA
ATOM     49  H9  UNL     1      10.941   6.631 -14.376  1.00  0.00     0.217 HD
ENDBRANCH  40  48
BRANCH  43  50
HETATM   50  C30 UNL     1      11.775   2.821 -12.042  1.00  0.00    -0.020 A 
HETATM   51  C31 UNL     1      10.711   1.986 -12.253  1.00  0.00     0.012 A 
HETATM   52  C32 UNL     1      10.874   0.783 -12.945  1.00  0.00     0.001 A 
HETATM   53  C33 UNL     1      12.116   0.426 -13.421  1.00  0.00     0.000 A 
HETATM   54  C34 UNL     1      13.182   1.262 -13.210  1.00  0.00     0.001 A 
HETATM   55  C35 UNL     1      13.005   2.465 -12.516  1.00  0.00     0.012 A 
ENDBRANCH  43  50
ENDBRANCH   1  32
TORSDOF 16
ENDMDL
MODEL 2
REMARK VINA RESULT: -10.560288058      1.592      2.248
REMARK  16 active torsions:
REMARK  status: ('A' for Active; 'I' for Inactive)
REMARK    1  A    between atoms: O1_2  and  C2_3 
REMARK    2  A    between atoms: C5_6  and  C6_7 
REMARK    3  A    between atoms: C6_7  and  C7_8 
REMARK    4  A    between atoms: C7_8  and  C8_9 
REMARK    5  A    between atoms: C8_9  and  N1_10 
REMARK    6  A    between atoms: C8_9  and  C19_30 
REMARK    7  A    between atoms: N1_10  and  N2_12 
REMARK       I    between atoms: N2_12  and  C9_14 
REMARK    8  A    between atoms: C9_14  and  C10_16 
REMARK    9  A    between atoms: C12_18  and  O3_19 
REMARK   10  A    between atoms: C13_21  and  O4_22 
REMARK   11  A    between atoms: C15_24  and  O5_25 
REMARK   12  A    between atoms: C17_27  and  O6_28 
REMARK   13  A    between atoms: C22_35  and  O7_36 
REMARK   14  A    between atoms: C24_38  and  O8_39 
REMARK   15  A    between atoms: C26_41  and  O9_42 
REMARK   16  A    between atoms: C29_47  and  C30_48 
ROOT
HETATM    1  C8  UNL     1      12.283   3.317  -9.148  1.00  0.00     0.075 C 
ENDROOT
BRANCH   1   2
HETATM    2  C7  UNL     1      12.226   1.951  -8.996  1.00  0.00     0.034 C 
BRANCH   2   3
HETATM    3  C6  UNL     1      12.958   0.900  -9.133  1.00  0.00     0.014 C 
BRANCH   3   4
HETATM    4  C5  UNL     1      14.135   0.800 -10.046  1.00  0.00    -0.036 A 
HETATM    5  C4  UNL     1      15.048   1.799 -10.228  1.00  0.00     0.014 A 
HETATM    6  C3  UNL     1      16.114   1.639 -11.116  1.00  0.00     0.037 A 
HETATM    7  C2  UNL     1      16.284   0.490 -11.827  1.00  0.00     0.068 A 
HETATM    8  C37 UNL     1      15.372  -0.530 -11.656  1.00  0.00     0.037 A 
HETATM    9  C36 UNL     1      14.317  -0.363 -10.775  1.00  0.00     0.014 A 
BRANCH   7  10
HETATM   10  O1  UNL     1      17.350   0.322 -12.717  1.00  0.00    -0.356 OA
HETATM   11  C1  UNL     1      17.699  -0.974 -13.163  1.00  0.00     0.210 C 
ENDBRANCH   7  10
ENDBRANCH   3   4
ENDBRANCH   2   3
ENDBRANCH   1   2
BRANCH   1  12
HETATM   12  N1  UNL     1      12.595   4.000  -7.990  1.00  0.00    -0.296 N 
ATOM     13  H1  UNL     1      12.472   5.012  -7.947  1.00  0.00     0.187 HD
BRANCH  12  14
HETATM   14  N2  UNL     1      13.069   3.320  -6.899  1.00  0.00    -0.265 N 
HETATM   15  C9  UNL     1      14.451   3.217  -6.629  1.00  0.00     0.273 C 
HETATM   16  O2  UNL     1      15.200   3.795  -7.517  1.00  0.00    -0.266 OA
ATOM     17  H2  UNL     1      12.405   2.875  -6.265  1.00  0.00     0.190 HD
BRANCH  15  18
HETATM   18  C10 UNL     1      15.066   2.563  -5.505  1.00  0.00     0.072 A 
HETATM   19  C11 UNL     1      16.473   2.347  -5.590  1.00  0.00     0.059 A 
HETATM   20  C12 UNL     1      17.159   1.640  -4.646  1.00  0.00     0.102 A 
HETATM   21  C13 UNL     1      16.480   1.108  -3.562  1.00  0.00     0.137 A 
HETATM   22  C15 UNL     1      15.125   1.322  -3.483  1.00  0.00     0.139 A 
HETATM   23  C17 UNL     1      14.433   2.038  -4.438  1.00  0.00     0.120 A 
BRANCH  20  24
HETATM   24  O3  UNL     1      18.535   1.466  -4.793  1.00  0.00    -0.358 OA
ATOM     25  H3  UNL     1      19.038   1.120  -4.066  1.00  0.00     0.217 HD
ENDBRANCH  20  24
BRANCH  21  26
HETATM   26  O4  UNL     1      17.190   0.395  -2.619  1.00  0.00    -0.351 OA
HETATM   27  C14 UNL     1      17.368  -0.982  -2.798  1.00  0.00     0.210 C 
ENDBRANCH  21  26
BRANCH  22  28
HETATM   28  O5  UNL     1      14.462   0.789  -2.397  1.00  0.00    -0.351 OA
HETATM   29  C16 UNL     1      13.680  -0.364  -2.541  1.00  0.00     0.210 C 
ENDBRANCH  22  28
BRANCH  23  30
HETATM   30  O6  UNL     1      13.082   2.186  -4.221  1.00  0.00    -0.352 OA
HETATM   31  C18 UNL     1      12.714   3.350  -3.451  1.00  0.00     0.210 C 
ENDBRANCH  23  30
ENDBRANCH  15  18
ENDBRANCH  12  14
ENDBRANCH   1  12
BRANCH   1  32
HETATM   32  C19 UNL     1      12.008   4.296 -10.166  1.00  0.00     0.076 A 
HETATM   33  N3  UNL     1      11.916   5.622  -9.729  1.00  0.00    -0.353 N 
HETATM   34  C20 UNL     1      11.517   6.640 -10.483  1.00  0.00     0.052 A 
ATOM     35  H3  UNL     1      12.174   5.822  -8.762  1.00  0.00     0.166 HD
HETATM   36  C21 UNL     1      11.459   7.929  -9.940  1.00  0.00     0.070 A 
HETATM   37  C27 UNL     1      11.154   6.442 -11.801  1.00  0.00     0.078 A 
HETATM   38  C22 UNL     1      11.043   8.981 -10.716  1.00  0.00     0.106 A 
HETATM   39  C24 UNL     1      10.676   8.817 -12.026  1.00  0.00     0.136 A 
HETATM   40  C26 UNL     1      10.737   7.513 -12.569  1.00  0.00     0.118 A 
HETATM   41  C28 UNL     1      11.234   5.162 -12.259  1.00  0.00     0.200 A 
HETATM   42  O10 UNL     1      10.928   4.880 -13.435  1.00  0.00    -0.286 OA
HETATM   43  C29 UNL     1      11.664   4.072 -11.449  1.00  0.00     0.054 A 
BRANCH  38  44
HETATM   44  O7  UNL     1      10.975  10.272 -10.202  1.00  0.00    -0.353 OA
HETATM   45  C23 UNL     1       9.831  10.640  -9.459  1.00  0.00     0.210 C 
ENDBRANCH  38  44
BRANCH  39  46
HETATM   46  O8  UNL     1      10.249   9.883 -12.836  1.00  0.00    -0.351 OA
HETATM   47  C25 UNL     1       8.825  10.039 -12.914  1.00  0.00     0.210 C 
ENDBRANCH  39  46
BRANCH  40  48
HETATM   48  O9  UNL     1      10.374   7.373 -13.852  1.00  0.00    -0.357 OA
ATOM     49  H9  UNL     1      11.018   6.998 -14.442  1.00  0.00     0.217 HD
ENDBRANCH  40  48
BRANCH  43  50
HETATM   50  C30 UNL     1      11.802   2.818 -12.182  1.00  0.00    -0.020 A 
HETATM   51  C31 UNL     1      10.827   1.861 -12.088  1.00  0.00     0.012 A 
HETATM   52  C32 UNL     1      10.922   0.670 -12.814  1.00  0.00     0.001 A 
HETATM   53  C33 UNL     1      12.007   0.449 -13.633  1.00  0.00     0.000 A 
HETATM   54  C34 UNL     1      12.983   1.406 -13.728  1.00  0.00     0.001 A 
HETATM   55  C35 UNL     1      12.876   2.596 -12.996  1.00  0.00     0.012 A 
ENDBRANCH  43  50
ENDBRANCH   1  32
TORSDOF 16
ENDMDL
MODEL 3
REMARK VINA RESULT: -10.438561549      3.059      7.512
REMARK  16 active torsions:
REMARK  status: ('A' for Active; 'I' for Inactive)
REMARK    1  A    between atoms: O1_2  and  C2_3 
REMARK    2  A    between atoms: C5_6  and  C6_7 
REMARK    3  A    between atoms: C6_7  and  C7_8 
REMARK    4  A    between atoms: C7_8  and  C8_9 
REMARK    5  A    between atoms: C8_9  and  N1_10 
REMARK    6  A    between atoms: C8_9  and  C19_30 
REMARK    7  A    between atoms: N1_10  and  N2_12 
REMARK       I    between atoms: N2_12  and  C9_14 
REMARK    8  A    between atoms: C9_14  and  C10_16 
REMARK    9  A    between atoms: C12_18  and  O3_19 
REMARK   10  A    between atoms: C13_21  and  O4_22 
REMARK   11  A    between atoms: C15_24  and  O5_25 
REMARK   12  A    between atoms: C17_27  and  O6_28 
REMARK   13  A    between atoms: C22_35  and  O7_36 
REMARK   14  A    between atoms: C24_38  and  O8_39 
REMARK   15  A    between atoms: C26_41  and  O9_42 
REMARK   16  A    between atoms: C29_47  and  C30_48 
ROOT
HETATM    1  C8  UNL     1      13.997   1.072  -9.089  1.00  0.00     0.075 C 
ENDROOT
BRANCH   1   2
HETATM    2  C7  UNL     1      13.644  -0.257  -9.111  1.00  0.00     0.034 C 
BRANCH   2   3
HETATM    3  C6  UNL     1      13.189  -1.182  -8.339  1.00  0.00     0.014 C 
BRANCH   3   4
HETATM    4  C5  UNL     1      14.034  -2.198  -7.643  1.00  0.00    -0.036 A 
HETATM    5  C4  UNL     1      14.705  -3.201  -8.284  1.00  0.00     0.014 A 
HETATM    6  C3  UNL     1      15.462  -4.127  -7.563  1.00  0.00     0.037 A 
HETATM    7  C2  UNL     1      15.560  -4.066  -6.205  1.00  0.00     0.068 A 
HETATM    8  C37 UNL     1      14.889  -3.059  -5.542  1.00  0.00     0.037 A 
HETATM    9  C36 UNL     1      14.141  -2.146  -6.264  1.00  0.00     0.014 A 
BRANCH   7  10
HETATM   10  O1  UNL     1      16.317  -4.989  -5.476  1.00  0.00    -0.356 OA
HETATM   11  C1  UNL     1      16.890  -4.612  -4.240  1.00  0.00     0.210 C 
ENDBRANCH   7  10
ENDBRANCH   3   4
ENDBRANCH   2   3
ENDBRANCH   1   2
BRANCH   1  12
HETATM   12  N1  UNL     1      15.247   1.332  -9.613  1.00  0.00    -0.296 N 
ATOM     13  H1  UNL     1      16.081   0.993  -9.133  1.00  0.00     0.187 HD
BRANCH  12  14
HETATM   14  N2  UNL     1      15.368   2.043 -10.778  1.00  0.00    -0.265 N 
HETATM   15  C9  UNL     1      15.625   1.410 -12.014  1.00  0.00     0.273 C 
HETATM   16  O2  UNL     1      15.758   0.123 -11.923  1.00  0.00    -0.266 OA
ATOM     17  H2  UNL     1      15.271   3.058 -10.752  1.00  0.00     0.190 HD
BRANCH  15  18
HETATM   18  C10 UNL     1      15.739   2.042 -13.301  1.00  0.00     0.072 A 
HETATM   19  C11 UNL     1      17.060   2.368 -13.731  1.00  0.00     0.059 A 
HETATM   20  C12 UNL     1      17.300   3.068 -14.878  1.00  0.00     0.102 A 
HETATM   21  C13 UNL     1      16.235   3.483 -15.661  1.00  0.00     0.137 A 
HETATM   22  C15 UNL     1      14.966   3.164 -15.245  1.00  0.00     0.139 A 
HETATM   23  C17 UNL     1      14.725   2.455 -14.086  1.00  0.00     0.120 A 
BRANCH  20  24
HETATM   24  O3  UNL     1      18.617   3.354 -15.237  1.00  0.00    -0.358 OA
ATOM     25  H3  UNL     1      18.858   4.250 -15.435  1.00  0.00     0.217 HD
ENDBRANCH  20  24
BRANCH  21  26
HETATM   26  O4  UNL     1      16.497   4.191 -16.816  1.00  0.00    -0.351 OA
HETATM   27  C14 UNL     1      16.928   3.501 -17.955  1.00  0.00     0.210 C 
ENDBRANCH  21  26
BRANCH  22  28
HETATM   28  O5  UNL     1      13.916   3.580 -16.037  1.00  0.00    -0.351 OA
HETATM   29  C16 UNL     1      13.480   2.788 -17.107  1.00  0.00     0.210 C 
ENDBRANCH  22  28
BRANCH  23  30
HETATM   30  O6  UNL     1      13.404   2.193 -13.801  1.00  0.00    -0.352 OA
HETATM   31  C18 UNL     1      12.972   0.849 -14.105  1.00  0.00     0.210 C 
ENDBRANCH  23  30
ENDBRANCH  15  18
ENDBRANCH  12  14
ENDBRANCH   1  12
BRANCH   1  32
HETATM   32  C19 UNL     1      13.479   2.311  -8.575  1.00  0.00     0.076 A 
HETATM   33  N3  UNL     1      12.942   3.189  -9.524  1.00  0.00    -0.353 N 
HETATM   34  C20 UNL     1      12.562   4.436  -9.268  1.00  0.00     0.052 A 
ATOM     35  H3  UNL     1      12.836   2.847 -10.479  1.00  0.00     0.166 HD
HETATM   36  C21 UNL     1      12.040   5.229 -10.297  1.00  0.00     0.070 A 
HETATM   37  C27 UNL     1      12.677   4.963  -7.997  1.00  0.00     0.078 A 
HETATM   38  C22 UNL     1      11.650   6.519 -10.037  1.00  0.00     0.106 A 
HETATM   39  C24 UNL     1      11.753   7.070  -8.788  1.00  0.00     0.136 A 
HETATM   40  C26 UNL     1      12.280   6.264  -7.753  1.00  0.00     0.118 A 
HETATM   41  C28 UNL     1      13.194   4.133  -7.049  1.00  0.00     0.200 A 
HETATM   42  O10 UNL     1      13.338   4.516  -5.871  1.00  0.00    -0.286 OA
HETATM   43  C29 UNL     1      13.599   2.796  -7.324  1.00  0.00     0.054 A 
BRANCH  38  44
HETATM   44  O7  UNL     1      11.130   7.330 -11.041  1.00  0.00    -0.353 OA
HETATM   45  C23 UNL     1      12.014   8.176 -11.747  1.00  0.00     0.210 C 
ENDBRANCH  38  44
BRANCH  39  46
HETATM   46  O8  UNL     1      11.357   8.388  -8.502  1.00  0.00    -0.351 OA
HETATM   47  C25 UNL     1       9.942   8.566  -8.348  1.00  0.00     0.210 C 
ENDBRANCH  39  46
BRANCH  40  48
HETATM   48  O9  UNL     1      12.371   6.822  -6.536  1.00  0.00    -0.357 OA
ATOM     49  H9  UNL     1      12.718   6.278  -5.839  1.00  0.00     0.217 HD
ENDBRANCH  40  48
BRANCH  43  50
HETATM   50  C30 UNL     1      13.996   2.049  -6.134  1.00  0.00    -0.020 A 
HETATM   51  C31 UNL     1      15.289   2.111  -5.688  1.00  0.00     0.012 A 
HETATM   52  C32 UNL     1      15.678   1.435  -4.528  1.00  0.00     0.001 A 
HETATM   53  C33 UNL     1      14.756   0.695  -3.822  1.00  0.00     0.000 A 
HETATM   54  C34 UNL     1      13.461   0.633  -4.268  1.00  0.00     0.001 A 
HETATM   55  C35 UNL     1      13.084   1.315  -5.431  1.00  0.00     0.012 A 
ENDBRANCH  43  50
ENDBRANCH   1  32
TORSDOF 16
ENDMDL
MODEL 4
REMARK VINA RESULT: -10.344255202      2.771      8.106
REMARK  16 active torsions:
REMARK  status: ('A' for Active; 'I' for Inactive)
REMARK    1  A    between atoms: O1_2  and  C2_3 
REMARK    2  A    between atoms: C5_6  and  C6_7 
REMARK    3  A    between atoms: C6_7  and  C7_8 
REMARK    4  A    between atoms: C7_8  and  C8_9 
REMARK    5  A    between atoms: C8_9  and  N1_10 
REMARK    6  A    between atoms: C8_9  and  C19_30 
REMARK    7  A    between atoms: N1_10  and  N2_12 
REMARK       I    between atoms: N2_12  and  C9_14 
REMARK    8  A    between atoms: C9_14  and  C10_16 
REMARK    9  A    between atoms: C12_18  and  O3_19 
REMARK   10  A    between atoms: C13_21  and  O4_22 
REMARK   11  A    between atoms: C15_24  and  O5_25 
REMARK   12  A    between atoms: C17_27  and  O6_28 
REMARK   13  A    between atoms: C22_35  and  O7_36 
REMARK   14  A    between atoms: C24_38  and  O8_39 
REMARK   15  A    between atoms: C26_41  and  O9_42 
REMARK   16  A    between atoms: C29_47  and  C30_48 
ROOT
HETATM    1  C8  UNL     1      12.376   1.297  -9.177  1.00  0.00     0.075 C 
ENDROOT
BRANCH   1   2
HETATM    2  C7  UNL     1      11.926   0.474  -8.171  1.00  0.00     0.034 C 
BRANCH   2   3
HETATM    3  C6  UNL     1      12.326  -0.079  -7.078  1.00  0.00     0.014 C 
BRANCH   3   4
HETATM    4  C5  UNL     1      13.268  -1.235  -7.008  1.00  0.00    -0.036 A 
HETATM    5  C4  UNL     1      13.686  -1.946  -8.097  1.00  0.00     0.014 A 
HETATM    6  C3  UNL     1      14.554  -3.031  -7.951  1.00  0.00     0.037 A 
HETATM    7  C2  UNL     1      15.015  -3.416  -6.728  1.00  0.00     0.068 A 
HETATM    8  C37 UNL     1      14.604  -2.709  -5.618  1.00  0.00     0.037 A 
HETATM    9  C36 UNL     1      13.742  -1.637  -5.771  1.00  0.00     0.014 A 
BRANCH   7  10
HETATM   10  O1  UNL     1      15.886  -4.500  -6.574  1.00  0.00    -0.356 OA
HETATM   11  C1  UNL     1      16.299  -4.895  -5.281  1.00  0.00     0.210 C 
ENDBRANCH   7  10
ENDBRANCH   3   4
ENDBRANCH   2   3
ENDBRANCH   1   2
BRANCH   1  12
HETATM   12  N1  UNL     1      11.371   1.862  -9.934  1.00  0.00    -0.296 N 
ATOM     13  H1  UNL     1      10.801   1.276 -10.544  1.00  0.00     0.187 HD
BRANCH  12  14
HETATM   14  N2  UNL     1      11.137   3.211  -9.866  1.00  0.00    -0.265 N 
HETATM   15  C9  UNL     1      11.230   4.041 -11.005  1.00  0.00     0.273 C 
HETATM   16  O2  UNL     1      11.580   3.410 -12.083  1.00  0.00    -0.266 OA
ATOM     17  H2  UNL     1      10.888   3.627  -8.968  1.00  0.00     0.190 HD
BRANCH  15  18
HETATM   18  C10 UNL     1      10.977   5.456 -11.066  1.00  0.00     0.072 A 
HETATM   19  C11 UNL     1      11.211   6.087 -12.323  1.00  0.00     0.059 A 
HETATM   20  C12 UNL     1      11.117   7.438 -12.488  1.00  0.00     0.102 A 
HETATM   21  C13 UNL     1      10.784   8.237 -11.407  1.00  0.00     0.137 A 
HETATM   22  C15 UNL     1      10.556   7.624 -10.198  1.00  0.00     0.139 A 
HETATM   23  C17 UNL     1      10.651   6.258 -10.034  1.00  0.00     0.120 A 
BRANCH  20  24
HETATM   24  O3  UNL     1      11.360   7.989 -13.746  1.00  0.00    -0.358 OA
ATOM     25  H3  UNL     1      12.151   8.497 -13.884  1.00  0.00     0.217 HD
ENDBRANCH  20  24
BRANCH  21  26
HETATM   26  O4  UNL     1      10.695   9.601 -11.592  1.00  0.00    -0.351 OA
HETATM   27  C14 UNL     1       9.475  10.157 -11.994  1.00  0.00     0.210 C 
ENDBRANCH  21  26
BRANCH  22  28
HETATM   28  O5  UNL     1      10.222   8.432  -9.131  1.00  0.00    -0.351 OA
HETATM   29  C16 UNL     1      11.189   9.256  -8.538  1.00  0.00     0.210 C 
ENDBRANCH  22  28
BRANCH  23  30
HETATM   30  O6  UNL     1      10.381   5.781  -8.772  1.00  0.00    -0.352 OA
HETATM   31  C18 UNL     1      11.516   5.745  -7.879  1.00  0.00     0.210 C 
ENDBRANCH  23  30
ENDBRANCH  15  18
ENDBRANCH  12  14
ENDBRANCH   1  12
BRANCH   1  32
HETATM   32  C19 UNL     1      13.630   1.684  -9.764  1.00  0.00     0.076 A 
HETATM   33  N3  UNL     1      13.793   1.367 -11.118  1.00  0.00    -0.353 N 
HETATM   34  C20 UNL     1      14.930   1.500 -11.792  1.00  0.00     0.052 A 
ATOM     35  H3  UNL     1      12.982   1.009 -11.623  1.00  0.00     0.166 HD
HETATM   36  C21 UNL     1      14.981   1.147 -13.146  1.00  0.00     0.070 A 
HETATM   37  C27 UNL     1      16.067   1.978 -11.172  1.00  0.00     0.078 A 
HETATM   38  C22 UNL     1      16.156   1.279 -13.844  1.00  0.00     0.106 A 
HETATM   39  C24 UNL     1      17.300   1.750 -13.257  1.00  0.00     0.136 A 
HETATM   40  C26 UNL     1      17.242   2.105 -11.890  1.00  0.00     0.118 A 
HETATM   41  C28 UNL     1      15.942   2.299  -9.855  1.00  0.00     0.200 A 
HETATM   42  O10 UNL     1      16.911   2.740  -9.206  1.00  0.00    -0.286 OA
HETATM   43  C29 UNL     1      14.722   2.158  -9.134  1.00  0.00     0.054 A 
BRANCH  38  44
HETATM   44  O7  UNL     1      16.235   0.936 -15.191  1.00  0.00    -0.353 OA
HETATM   45  C23 UNL     1      15.136   1.234 -16.026  1.00  0.00     0.210 C 
ENDBRANCH  38  44
BRANCH  39  46
HETATM   46  O8  UNL     1      18.511   1.894 -13.957  1.00  0.00    -0.351 OA
HETATM   47  C25 UNL     1      18.661   3.147 -14.638  1.00  0.00     0.210 C 
ENDBRANCH  39  46
BRANCH  40  48
HETATM   48  O9  UNL     1      18.372   2.565 -11.334  1.00  0.00    -0.357 OA
ATOM     49  H9  UNL     1      18.769   2.027 -10.659  1.00  0.00     0.217 HD
ENDBRANCH  40  48
BRANCH  43  50
HETATM   50  C30 UNL     1      14.782   2.687  -7.774  1.00  0.00    -0.020 A 
HETATM   51  C31 UNL     1      15.117   1.862  -6.735  1.00  0.00     0.012 A 
HETATM   52  C32 UNL     1      15.218   2.359  -5.432  1.00  0.00     0.001 A 
HETATM   53  C33 UNL     1      14.978   3.692  -5.184  1.00  0.00     0.000 A 
HETATM   54  C34 UNL     1      14.643   4.519  -6.225  1.00  0.00     0.001 A 
HETATM   55  C35 UNL     1      14.545   4.009  -7.526  1.00  0.00     0.012 A 
ENDBRANCH  43  50
ENDBRANCH   1  32
TORSDOF 16
ENDMDL
MODEL 5
REMARK VINA RESULT: -10.279018699      3.468      7.660
REMARK  16 active torsions:
REMARK  status: ('A' for Active; 'I' for Inactive)
REMARK    1  A    between atoms: O1_2  and  C2_3 
REMARK    2  A    between atoms: C5_6  and  C6_7 
REMARK    3  A    between atoms: C6_7  and  C7_8 
REMARK    4  A    between atoms: C7_8  and  C8_9 
REMARK    5  A    between atoms: C8_9  and  N1_10 
REMARK    6  A    between atoms: C8_9  and  C19_30 
REMARK    7  A    between atoms: N1_10  and  N2_12 
REMARK       I    between atoms: N2_12  and  C9_14 
REMARK    8  A    between atoms: C9_14  and  C10_16 
REMARK    9  A    between atoms: C12_18  and  O3_19 
REMARK   10  A    between atoms: C13_21  and  O4_22 
REMARK   11  A    between atoms: C15_24  and  O5_25 
REMARK   12  A    between atoms: C17_27  and  O6_28 
REMARK   13  A    between atoms: C22_35  and  O7_36 
REMARK   14  A    between atoms: C24_38  and  O8_39 
REMARK   15  A    between atoms: C26_41  and  O9_42 
REMARK   16  A    between atoms: C29_47  and  C30_48 
ROOT
HETATM    1  C8  UNL     1      13.966   1.127  -9.174  1.00  0.00     0.075 C 
ENDROOT
BRANCH   1   2
HETATM    2  C7  UNL     1      13.700  -0.219  -9.084  1.00  0.00     0.034 C 
BRANCH   2   3
HETATM    3  C6  UNL     1      13.242  -1.093  -8.255  1.00  0.00     0.014 C 
BRANCH   3   4
HETATM    4  C5  UNL     1      14.065  -2.153  -7.600  1.00  0.00    -0.036 A 
HETATM    5  C4  UNL     1      14.716  -3.142  -8.280  1.00  0.00     0.014 A 
HETATM    6  C3  UNL     1      15.453  -4.113  -7.596  1.00  0.00     0.037 A 
HETATM    7  C2  UNL     1      15.549  -4.109  -6.237  1.00  0.00     0.068 A 
HETATM    8  C37 UNL     1      14.898  -3.116  -5.534  1.00  0.00     0.037 A 
HETATM    9  C36 UNL     1      14.170  -2.160  -6.220  1.00  0.00     0.014 A 
BRANCH   7  10
HETATM   10  O1  UNL     1      16.286  -5.075  -5.545  1.00  0.00    -0.356 OA
HETATM   11  C1  UNL     1      16.838  -4.771  -4.279  1.00  0.00     0.210 C 
ENDBRANCH   7  10
ENDBRANCH   3   4
ENDBRANCH   2   3
ENDBRANCH   1   2
BRANCH   1  12
HETATM   12  N1  UNL     1      15.110   1.429  -9.885  1.00  0.00    -0.296 N 
ATOM     13  H1  UNL     1      15.725   2.178  -9.566  1.00  0.00     0.187 HD
BRANCH  12  14
HETATM   14  N2  UNL     1      15.421   0.722 -11.017  1.00  0.00    -0.265 N 
HETATM   15  C9  UNL     1      14.875   1.055 -12.276  1.00  0.00     0.273 C 
HETATM   16  O2  UNL     1      14.050   2.055 -12.238  1.00  0.00    -0.266 OA
ATOM     17  H2  UNL     1      16.064  -0.067 -10.948  1.00  0.00     0.190 HD
BRANCH  15  18
HETATM   18  C10 UNL     1      15.150   0.413 -13.534  1.00  0.00     0.072 A 
HETATM   19  C11 UNL     1      14.632  -0.906 -13.697  1.00  0.00     0.059 A 
HETATM   20  C12 UNL     1      14.913  -1.667 -14.794  1.00  0.00     0.102 A 
HETATM   21  C13 UNL     1      15.729  -1.156 -15.791  1.00  0.00     0.137 A 
HETATM   22  C15 UNL     1      16.222   0.116 -15.630  1.00  0.00     0.139 A 
HETATM   23  C17 UNL     1      15.936   0.885 -14.521  1.00  0.00     0.120 A 
BRANCH  20  24
HETATM   24  O3  UNL     1      14.374  -2.950 -14.889  1.00  0.00    -0.358 OA
ATOM     25  H3  UNL     1      14.589  -3.488 -15.641  1.00  0.00     0.217 HD
ENDBRANCH  20  24
BRANCH  21  26
HETATM   26  O4  UNL     1      16.004  -1.941 -16.891  1.00  0.00    -0.351 OA
HETATM   27  C14 UNL     1      15.193  -1.830 -18.027  1.00  0.00     0.210 C 
ENDBRANCH  21  26
BRANCH  22  28
HETATM   28  O5  UNL     1      17.030   0.613 -16.632  1.00  0.00    -0.351 OA
HETATM   29  C16 UNL     1      18.413   0.395 -16.599  1.00  0.00     0.210 C 
ENDBRANCH  22  28
BRANCH  23  30
HETATM   30  O6  UNL     1      16.486   2.146 -14.501  1.00  0.00    -0.352 OA
HETATM   31  C18 UNL     1      15.689   3.168 -15.139  1.00  0.00     0.210 C 
ENDBRANCH  23  30
ENDBRANCH  15  18
ENDBRANCH  12  14
ENDBRANCH   1  12
BRANCH   1  32
HETATM   32  C19 UNL     1      13.446   2.361  -8.649  1.00  0.00     0.076 A 
HETATM   33  N3  UNL     1      12.914   3.250  -9.591  1.00  0.00    -0.353 N 
HETATM   34  C20 UNL     1      12.534   4.494  -9.323  1.00  0.00     0.052 A 
ATOM     35  H3  UNL     1      12.813   2.919 -10.550  1.00  0.00     0.166 HD
HETATM   36  C21 UNL     1      12.018   5.299 -10.346  1.00  0.00     0.070 A 
HETATM   37  C27 UNL     1      12.644   5.007  -8.046  1.00  0.00     0.078 A 
HETATM   38  C22 UNL     1      11.628   6.586 -10.073  1.00  0.00     0.106 A 
HETATM   39  C24 UNL     1      11.725   7.124  -8.817  1.00  0.00     0.136 A 
HETATM   40  C26 UNL     1      12.246   6.306  -7.789  1.00  0.00     0.118 A 
HETATM   41  C28 UNL     1      13.155   4.166  -7.104  1.00  0.00     0.200 A 
HETATM   42  O10 UNL     1      13.294   4.536  -5.921  1.00  0.00    -0.286 OA
HETATM   43  C29 UNL     1      13.561   2.832  -7.392  1.00  0.00     0.054 A 
BRANCH  38  44
HETATM   44  O7  UNL     1      11.113   7.409 -11.071  1.00  0.00    -0.353 OA
HETATM   45  C23 UNL     1      12.010   8.216 -11.805  1.00  0.00     0.210 C 
ENDBRANCH  38  44
BRANCH  39  46
HETATM   46  O8  UNL     1      11.329   8.439  -8.519  1.00  0.00    -0.351 OA
HETATM   47  C25 UNL     1       9.915   8.613  -8.353  1.00  0.00     0.210 C 
ENDBRANCH  39  46
BRANCH  40  48
HETATM   48  O9  UNL     1      12.332   6.850  -6.566  1.00  0.00    -0.357 OA
ATOM     49  H9  UNL     1      12.947   6.452  -5.961  1.00  0.00     0.217 HD
ENDBRANCH  40  48
BRANCH  43  50
HETATM   50  C30 UNL     1      13.951   2.071  -6.209  1.00  0.00    -0.020 A 
HETATM   51  C31 UNL     1      15.243   2.123  -5.759  1.00  0.00     0.012 A 
HETATM   52  C32 UNL     1      15.626   1.434  -4.605  1.00  0.00     0.001 A 
HETATM   53  C33 UNL     1      14.699   0.691  -3.908  1.00  0.00     0.000 A 
HETATM   54  C34 UNL     1      13.405   0.639  -4.358  1.00  0.00     0.001 A 
HETATM   55  C35 UNL     1      13.034   1.334  -5.516  1.00  0.00     0.012 A 
ENDBRANCH  43  50
ENDBRANCH   1  32
TORSDOF 16
ENDMDL
