MODEL 1
REMARK VINA RESULT: -6.211888475      0.000      0.000
REMARK  6 active torsions:
REMARK  status: ('A' for Active; 'I' for Inactive)
REMARK    1  A    between atoms: C2_2  and  N1_3 
REMARK    2  A    between atoms: C2_2  and  C3_7 
REMARK    3  A    between atoms: C3_7  and  C4_8 
REMARK       I    between atoms: C4_8  and  N2_10 
REMARK    4  A    between atoms: C8_14  and  C9_15 
REMARK       I    between atoms: C9_15  and  N3_17 
REMARK    5  A    between atoms: N3_17  and  C10_19 
REMARK    6  A    between atoms: C10_19  and  C12_21 
ROOT
HETATM    1  C4  UNL     1      -5.862   1.777  14.271  1.00  0.00     0.222 C 
HETATM    2  O1  UNL     1      -6.280   0.927  13.441  1.00  0.00    -0.273 OA
HETATM    3  N2  UNL     1      -4.761   2.612  13.983  1.00  0.00    -0.339 N 
HETATM    4  C5  UNL     1      -4.254   3.621  14.929  1.00  0.00     0.127 C 
HETATM    5  C6  UNL     1      -3.764   4.706  13.987  1.00  0.00     0.022 C 
HETATM    6  C7  UNL     1      -3.063   3.886  12.937  1.00  0.00     0.037 C 
HETATM    7  C8  UNL     1      -3.946   2.678  12.798  1.00  0.00     0.179 C 
ENDROOT
BRANCH   7   8
HETATM    8  C9  UNL     1      -3.128   1.458  12.583  1.00  0.00     0.241 C 
HETATM    9  O2  UNL     1      -1.957   1.484  13.056  1.00  0.00    -0.271 OA
HETATM   10  N3  UNL     1      -3.538   0.301  11.913  1.00  0.00    -0.351 N 
ATOM     11  H3  UNL     1      -4.485   0.282  11.534  1.00  0.00     0.163 HD
BRANCH  10  12
HETATM   12  C10 UNL     1      -2.715  -0.869  11.721  1.00  0.00     0.134 C 
HETATM   13  C11 UNL     1      -1.917  -0.845  10.467  1.00  0.00     0.036 C 
BRANCH  12  14
HETATM   14  C12 UNL     1      -3.595  -2.109  11.829  1.00  0.00     0.208 C 
HETATM   15 CL1  UNL     1      -2.673  -3.593  11.528  1.00  0.00    -0.082 Cl
HETATM   16 CL2  UNL     1      -4.328  -2.213  13.447  1.00  0.00    -0.082 Cl
HETATM   17 CL3  UNL     1      -4.925  -2.039  10.651  1.00  0.00    -0.082 Cl
ENDBRANCH  12  14
ENDBRANCH  10  12
ENDBRANCH   7   8
BRANCH   1  18
HETATM   18  C3  UNL     1      -6.603   1.839  15.558  1.00  0.00     0.135 C 
BRANCH  18  19
HETATM   19  C2  UNL     1      -6.248   0.743  16.501  1.00  0.00     0.188 C 
HETATM   20  C1  UNL     1      -7.464  -0.056  16.904  1.00  0.00     0.040 C 
BRANCH  19  21
HETATM   21  N1  UNL     1      -5.194  -0.121  16.003  1.00  0.00    -0.075 N 
ATOM     22  H13 UNL     1      -4.583   0.370  15.352  1.00  0.00     0.274 HD
ATOM     23  H12 UNL     1      -4.510  -0.334  16.729  1.00  0.00     0.274 HD
ATOM     24  H11 UNL     1      -5.580  -0.970  15.589  1.00  0.00     0.274 HD
ENDBRANCH  19  21
ENDBRANCH  18  19
ENDBRANCH   1  18
TORSDOF 6
ENDMDL
MODEL 2
REMARK VINA RESULT: -6.182497097      3.134      6.273
REMARK  6 active torsions:
REMARK  status: ('A' for Active; 'I' for Inactive)
REMARK    1  A    between atoms: C2_2  and  N1_3 
REMARK    2  A    between atoms: C2_2  and  C3_7 
REMARK    3  A    between atoms: C3_7  and  C4_8 
REMARK       I    between atoms: C4_8  and  N2_10 
REMARK    4  A    between atoms: C8_14  and  C9_15 
REMARK       I    between atoms: C9_15  and  N3_17 
REMARK    5  A    between atoms: N3_17  and  C10_19 
REMARK    6  A    between atoms: C10_19  and  C12_21 
ROOT
HETATM    1  C4  UNL     1      -2.547   0.540  10.831  1.00  0.00     0.222 C 
HETATM    2  O1  UNL     1      -3.284   1.559  10.761  1.00  0.00    -0.273 OA
HETATM    3  N2  UNL     1      -2.995  -0.657  11.431  1.00  0.00    -0.339 N 
HETATM    4  C5  UNL     1      -2.161  -1.867  11.522  1.00  0.00     0.127 C 
HETATM    5  C6  UNL     1      -3.202  -2.967  11.412  1.00  0.00     0.022 C 
HETATM    6  C7  UNL     1      -4.284  -2.434  12.314  1.00  0.00     0.037 C 
HETATM    7  C8  UNL     1      -4.266  -0.957  12.038  1.00  0.00     0.179 C 
ENDROOT
BRANCH   7   8
HETATM    8  C9  UNL     1      -4.514  -0.192  13.285  1.00  0.00     0.241 C 
HETATM    9  O2  UNL     1      -4.337  -0.820  14.366  1.00  0.00    -0.271 OA
HETATM   10  N3  UNL     1      -4.919   1.144  13.363  1.00  0.00    -0.351 N 
ATOM     11  H3  UNL     1      -5.059   1.650  12.488  1.00  0.00     0.163 HD
BRANCH  10  12
HETATM   12  C10 UNL     1      -5.152   1.859  14.595  1.00  0.00     0.134 C 
HETATM   13  C11 UNL     1      -6.524   1.687  15.141  1.00  0.00     0.036 C 
BRANCH  12  14
HETATM   14  C12 UNL     1      -4.785   3.323  14.388  1.00  0.00     0.208 C 
HETATM   15 CL1  UNL     1      -5.710   4.388  15.462  1.00  0.00    -0.082 Cl
HETATM   16 CL2  UNL     1      -3.050   3.580  14.690  1.00  0.00    -0.082 Cl
HETATM   17 CL3  UNL     1      -5.107   3.819  12.712  1.00  0.00    -0.082 Cl
ENDBRANCH  12  14
ENDBRANCH  10  12
ENDBRANCH   7   8
BRANCH   1  18
HETATM   18  C3  UNL     1      -1.189   0.685  10.244  1.00  0.00     0.135 C 
BRANCH  18  19
HETATM   19  C2  UNL     1      -0.231   1.398  11.132  1.00  0.00     0.188 C 
HETATM   20  C1  UNL     1       0.049   2.796  10.637  1.00  0.00     0.040 C 
BRANCH  19  21
HETATM   21  N1  UNL     1      -0.639   1.407  12.524  1.00  0.00    -0.075 N 
ATOM     22  H13 UNL     1       0.164   1.378  13.151  1.00  0.00     0.274 HD
ATOM     23  H12 UNL     1      -1.018   2.314  12.798  1.00  0.00     0.274 HD
ATOM     24  H11 UNL     1      -1.296   0.651  12.720  1.00  0.00     0.274 HD
ENDBRANCH  19  21
ENDBRANCH  18  19
ENDBRANCH   1  18
TORSDOF 6
ENDMDL
MODEL 3
REMARK VINA RESULT: -6.172851759      3.142      6.278
REMARK  6 active torsions:
REMARK  status: ('A' for Active; 'I' for Inactive)
REMARK    1  A    between atoms: C2_2  and  N1_3 
REMARK    2  A    between atoms: C2_2  and  C3_7 
REMARK    3  A    between atoms: C3_7  and  C4_8 
REMARK       I    between atoms: C4_8  and  N2_10 
REMARK    4  A    between atoms: C8_14  and  C9_15 
REMARK       I    between atoms: C9_15  and  N3_17 
REMARK    5  A    between atoms: N3_17  and  C10_19 
REMARK    6  A    between atoms: C10_19  and  C12_21 
ROOT
HETATM    1  C4  UNL     1      -2.549   0.528  10.839  1.00  0.00     0.222 C 
HETATM    2  O1  UNL     1      -3.287   1.546  10.767  1.00  0.00    -0.273 OA
HETATM    3  N2  UNL     1      -2.997  -0.669  11.439  1.00  0.00    -0.339 N 
HETATM    4  C5  UNL     1      -2.162  -1.878  11.532  1.00  0.00     0.127 C 
HETATM    5  C6  UNL     1      -3.202  -2.979  11.421  1.00  0.00     0.022 C 
HETATM    6  C7  UNL     1      -4.285  -2.447  12.321  1.00  0.00     0.037 C 
HETATM    7  C8  UNL     1      -4.269  -0.970  12.043  1.00  0.00     0.179 C 
ENDROOT
BRANCH   7   8
HETATM    8  C9  UNL     1      -4.520  -0.205  13.290  1.00  0.00     0.241 C 
HETATM    9  O2  UNL     1      -4.346  -0.832  14.372  1.00  0.00    -0.271 OA
HETATM   10  N3  UNL     1      -4.924   1.131  13.366  1.00  0.00    -0.351 N 
ATOM     11  H3  UNL     1      -5.062   1.637  12.491  1.00  0.00     0.163 HD
BRANCH  10  12
HETATM   12  C10 UNL     1      -5.161   1.846  14.598  1.00  0.00     0.134 C 
HETATM   13  C11 UNL     1      -6.529   1.660  15.150  1.00  0.00     0.036 C 
BRANCH  12  14
HETATM   14  C12 UNL     1      -4.811   3.314  14.386  1.00  0.00     0.208 C 
HETATM   15 CL1  UNL     1      -3.104   3.638  14.737  1.00  0.00    -0.082 Cl
HETATM   16 CL2  UNL     1      -5.148   3.799  12.707  1.00  0.00    -0.082 Cl
HETATM   17 CL3  UNL     1      -5.796   4.352  15.442  1.00  0.00    -0.082 Cl
ENDBRANCH  12  14
ENDBRANCH  10  12
ENDBRANCH   7   8
BRANCH   1  18
HETATM   18  C3  UNL     1      -1.190   0.675  10.254  1.00  0.00     0.135 C 
BRANCH  18  19
HETATM   19  C2  UNL     1      -0.236   1.393  11.142  1.00  0.00     0.188 C 
HETATM   20  C1  UNL     1       0.060   2.782  10.629  1.00  0.00     0.040 C 
BRANCH  19  21
HETATM   21  N1  UNL     1      -0.659   1.426  12.529  1.00  0.00    -0.075 N 
ATOM     22  H13 UNL     1      -1.109   2.311  12.763  1.00  0.00     0.274 HD
ATOM     23  H12 UNL     1      -1.448   0.801  12.697  1.00  0.00     0.274 HD
ATOM     24  H11 UNL     1       0.120   1.224  13.156  1.00  0.00     0.274 HD
ENDBRANCH  19  21
ENDBRANCH  18  19
ENDBRANCH   1  18
TORSDOF 6
ENDMDL
MODEL 4
REMARK VINA RESULT: -6.169656560      3.144      6.272
REMARK  6 active torsions:
REMARK  status: ('A' for Active; 'I' for Inactive)
REMARK    1  A    between atoms: C2_2  and  N1_3 
REMARK    2  A    between atoms: C2_2  and  C3_7 
REMARK    3  A    between atoms: C3_7  and  C4_8 
REMARK       I    between atoms: C4_8  and  N2_10 
REMARK    4  A    between atoms: C8_14  and  C9_15 
REMARK       I    between atoms: C9_15  and  N3_17 
REMARK    5  A    between atoms: N3_17  and  C10_19 
REMARK    6  A    between atoms: C10_19  and  C12_21 
ROOT
HETATM    1  C4  UNL     1      -2.542   0.534  10.838  1.00  0.00     0.222 C 
HETATM    2  O1  UNL     1      -3.282   1.549  10.758  1.00  0.00    -0.273 OA
HETATM    3  N2  UNL     1      -2.991  -0.663  11.438  1.00  0.00    -0.339 N 
HETATM    4  C5  UNL     1      -2.152  -1.869  11.540  1.00  0.00     0.127 C 
HETATM    5  C6  UNL     1      -3.188  -2.974  11.424  1.00  0.00     0.022 C 
HETATM    6  C7  UNL     1      -4.279  -2.443  12.315  1.00  0.00     0.037 C 
HETATM    7  C8  UNL     1      -4.265  -0.967  12.034  1.00  0.00     0.179 C 
ENDROOT
BRANCH   7   8
HETATM    8  C9  UNL     1      -4.528  -0.199  13.276  1.00  0.00     0.241 C 
HETATM    9  O2  UNL     1      -4.357  -0.822  14.361  1.00  0.00    -0.271 OA
HETATM   10  N3  UNL     1      -4.939   1.136  13.346  1.00  0.00    -0.351 N 
ATOM     11  H3  UNL     1      -5.075   1.638  12.468  1.00  0.00     0.163 HD
BRANCH  10  12
HETATM   12  C10 UNL     1      -5.187   1.853  14.574  1.00  0.00     0.134 C 
HETATM   13  C11 UNL     1      -6.558   1.665  15.117  1.00  0.00     0.036 C 
BRANCH  12  14
HETATM   14  C12 UNL     1      -4.840   3.322  14.361  1.00  0.00     0.208 C 
HETATM   15 CL1  UNL     1      -5.098   3.817  12.678  1.00  0.00    -0.082 Cl
HETATM   16 CL2  UNL     1      -5.831   4.356  15.417  1.00  0.00    -0.082 Cl
HETATM   17 CL3  UNL     1      -3.137   3.630  14.770  1.00  0.00    -0.082 Cl
ENDBRANCH  12  14
ENDBRANCH  10  12
ENDBRANCH   7   8
BRANCH   1  18
HETATM   18  C3  UNL     1      -1.179   0.683  10.262  1.00  0.00     0.135 C 
BRANCH  18  19
HETATM   19  C2  UNL     1      -0.231   1.399  11.158  1.00  0.00     0.188 C 
HETATM   20  C1  UNL     1       0.063   2.791  10.653  1.00  0.00     0.040 C 
BRANCH  19  21
HETATM   21  N1  UNL     1      -0.661   1.424  12.543  1.00  0.00    -0.075 N 
ATOM     22  H13 UNL     1      -1.052   2.331  12.798  1.00  0.00     0.274 HD
ATOM     23  H12 UNL     1      -1.492   0.850  12.690  1.00  0.00     0.274 HD
ATOM     24  H11 UNL     1       0.098   1.153  13.169  1.00  0.00     0.274 HD
ENDBRANCH  19  21
ENDBRANCH  18  19
ENDBRANCH   1  18
TORSDOF 6
ENDMDL
MODEL 5
REMARK VINA RESULT: -6.016209854      3.215      6.583
REMARK  6 active torsions:
REMARK  status: ('A' for Active; 'I' for Inactive)
REMARK    1  A    between atoms: C2_2  and  N1_3 
REMARK    2  A    between atoms: C2_2  and  C3_7 
REMARK    3  A    between atoms: C3_7  and  C4_8 
REMARK       I    between atoms: C4_8  and  N2_10 
REMARK    4  A    between atoms: C8_14  and  C9_15 
REMARK       I    between atoms: C9_15  and  N3_17 
REMARK    5  A    between atoms: N3_17  and  C10_19 
REMARK    6  A    between atoms: C10_19  and  C12_21 
ROOT
HETATM    1  C4  UNL     1      -2.472   0.435  10.755  1.00  0.00     0.222 C 
HETATM    2  O1  UNL     1      -3.178   1.473  10.660  1.00  0.00    -0.273 OA
HETATM    3  N2  UNL     1      -2.960  -0.737  11.375  1.00  0.00    -0.339 N 
HETATM    4  C5  UNL     1      -2.163  -1.969  11.496  1.00  0.00     0.127 C 
HETATM    5  C6  UNL     1      -3.236  -3.039  11.399  1.00  0.00     0.022 C 
HETATM    6  C7  UNL     1      -4.308  -2.457  12.282  1.00  0.00     0.037 C 
HETATM    7  C8  UNL     1      -4.244  -0.987  11.977  1.00  0.00     0.179 C 
ENDROOT
BRANCH   7   8
HETATM    8  C9  UNL     1      -4.478  -0.191  13.207  1.00  0.00     0.241 C 
HETATM    9  O2  UNL     1      -4.277  -0.787  14.302  1.00  0.00    -0.271 OA
HETATM   10  N3  UNL     1      -4.893   1.144  13.256  1.00  0.00    -0.351 N 
ATOM     11  H3  UNL     1      -5.053   1.624  12.371  1.00  0.00     0.163 HD
BRANCH  10  12
HETATM   12  C10 UNL     1      -5.112   1.889  14.473  1.00  0.00     0.134 C 
HETATM   13  C11 UNL     1      -6.492   1.770  15.013  1.00  0.00     0.036 C 
BRANCH  12  14
HETATM   14  C12 UNL     1      -4.699   3.338  14.240  1.00  0.00     0.208 C 
HETATM   15 CL1  UNL     1      -4.987   3.839  12.564  1.00  0.00    -0.082 Cl
HETATM   16 CL2  UNL     1      -5.602   4.425  15.321  1.00  0.00    -0.082 Cl
HETATM   17 CL3  UNL     1      -2.971   3.561  14.591  1.00  0.00    -0.082 Cl
ENDBRANCH  12  14
ENDBRANCH  10  12
ENDBRANCH   7   8
BRANCH   1  18
HETATM   18  C3  UNL     1      -1.106   0.528  10.176  1.00  0.00     0.135 C 
BRANCH  18  19
HETATM   19  C2  UNL     1      -0.784   1.872   9.627  1.00  0.00     0.188 C 
HETATM   20  C1  UNL     1       0.695   2.165   9.709  1.00  0.00     0.040 C 
BRANCH  19  21
HETATM   21  N1  UNL     1      -1.285   2.076   8.280  1.00  0.00    -0.075 N 
ATOM     22  H13 UNL     1      -0.736   1.557   7.594  1.00  0.00     0.274 HD
ATOM     23  H12 UNL     1      -2.184   1.616   8.140  1.00  0.00     0.274 HD
ATOM     24  H11 UNL     1      -1.330   3.069   8.050  1.00  0.00     0.274 HD
ENDBRANCH  19  21
ENDBRANCH  18  19
ENDBRANCH   1  18
TORSDOF 6
ENDMDL
