MODEL 1
REMARK VINA RESULT: -11.134454396      0.000      0.000
REMARK  6 active torsions:
REMARK  status: ('A' for Active; 'I' for Inactive)
REMARK    1  A    between atoms: C3_3  and  C4_4 
REMARK    2  A    between atoms: C7_11  and  O1_12 
REMARK    3  A    between atoms: O1_12  and  C8_13 
REMARK    4  A    between atoms: C11_16  and  C12_17 
REMARK    5  A    between atoms: C15_20  and  C16_21 
REMARK    6  A    between atoms: C21_28  and  C22_29 
ROOT
HETATM    1  C1  UNL     1       6.374  24.927  35.556  1.00  0.00     0.050 C 
HETATM    2  C2  UNL     1       6.832  25.234  34.173  1.00  0.00    -0.035 A 
HETATM    3  C3  UNL     1       5.899  25.415  33.185  1.00  0.00     0.011 A 
HETATM    4  C5  UNL     1       6.420  25.721  31.922  1.00  0.00     0.018 A 
HETATM    5  C6  UNL     1       7.766  25.839  31.661  1.00  0.00     0.039 A 
HETATM    6  C7  UNL     1       8.694  25.654  32.659  1.00  0.00     0.087 A 
HETATM    7  C21 UNL     1       8.209  25.352  33.908  1.00  0.00     0.015 A 
ENDROOT
BRANCH   6   8
HETATM    8  O1  UNL     1      10.064  25.761  32.455  1.00  0.00    -0.310 OA
BRANCH   8   9
HETATM    9  C8  UNL     1      10.917  24.678  32.631  1.00  0.00     0.076 A 
HETATM   10  C9  UNL     1      10.541  23.399  32.270  1.00  0.00     0.038 A 
HETATM   11  C10 UNL     1      11.370  22.310  32.433  1.00  0.00     0.015 A 
HETATM   12  C11 UNL     1      12.638  22.433  32.971  1.00  0.00    -0.026 A 
HETATM   13  C19 UNL     1      13.019  23.708  33.333  1.00  0.00     0.015 A 
HETATM   14  C20 UNL     1      12.181  24.806  33.168  1.00  0.00     0.038 A 
BRANCH  12  15
HETATM   15  C12 UNL     1      13.512  21.278  33.139  1.00  0.00    -0.026 A 
HETATM   16  C13 UNL     1      13.214  20.349  34.085  1.00  0.00     0.013 A 
HETATM   17  C14 UNL     1      13.974  19.230  34.319  1.00  0.00     0.017 A 
HETATM   18  C15 UNL     1      15.108  19.019  33.565  1.00  0.00     0.029 A 
HETATM   19  C17 UNL     1      15.445  19.939  32.595  1.00  0.00     0.017 A 
HETATM   20  C18 UNL     1      14.652  21.042  32.397  1.00  0.00     0.013 A 
BRANCH  18  21
HETATM   21  C16 UNL     1      15.962  17.853  33.791  1.00  0.00     0.264 C 
HETATM   22  N3  UNL     1      16.893  17.876  34.854  1.00  0.00    -0.057 NA
HETATM   23  O2  UNL     1      15.842  16.869  33.033  1.00  0.00    -0.271 OA
ENDBRANCH  18  21
ENDBRANCH  12  15
ENDBRANCH   8   9
ENDBRANCH   6   8
BRANCH   7  24
HETATM   24  C22 UNL     1       9.155  25.147  34.980  1.00  0.00    -0.023 A 
HETATM   25  C23 UNL     1       9.703  26.249  35.589  1.00  0.00     0.012 A 
HETATM   26  C24 UNL     1      10.615  26.102  36.608  1.00  0.00     0.001 A 
HETATM   27  C25 UNL     1      11.006  24.832  37.049  1.00  0.00     0.000 A 
HETATM   28  C26 UNL     1      10.430  23.759  36.410  1.00  0.00     0.001 A 
HETATM   29  C27 UNL     1       9.516  23.890  35.388  1.00  0.00     0.012 A 
ENDBRANCH   7  24
BRANCH   3  30
HETATM   30  C4  UNL     1       4.449  25.303  33.354  1.00  0.00     0.120 C 
HETATM   31  N1  UNL     1       3.695  24.391  33.096  1.00  0.00    -0.387 N 
ATOM     32  H12 UNL     1       4.143  23.569  32.691  1.00  0.00     0.157 HD
ATOM     33  H11 UNL     1       2.685  24.313  33.214  1.00  0.00     0.157 HD
HETATM   34  N2  UNL     1       3.807  26.481  33.934  1.00  0.00    -0.082 NA
ENDBRANCH   3  30
TORSDOF 6
ENDMDL
MODEL 2
REMARK VINA RESULT: -10.873565347      0.618      1.033
REMARK  6 active torsions:
REMARK  status: ('A' for Active; 'I' for Inactive)
REMARK    1  A    between atoms: C3_3  and  C4_4 
REMARK    2  A    between atoms: C7_11  and  O1_12 
REMARK    3  A    between atoms: O1_12  and  C8_13 
REMARK    4  A    between atoms: C11_16  and  C12_17 
REMARK    5  A    between atoms: C15_20  and  C16_21 
REMARK    6  A    between atoms: C21_28  and  C22_29 
ROOT
HETATM    1  C1  UNL     1       6.371  24.952  35.619  1.00  0.00     0.050 C 
HETATM    2  C2  UNL     1       6.840  25.175  34.224  1.00  0.00    -0.035 A 
HETATM    3  C3  UNL     1       5.916  25.320  33.223  1.00  0.00     0.011 A 
HETATM    4  C5  UNL     1       6.447  25.547  31.948  1.00  0.00     0.018 A 
HETATM    5  C6  UNL     1       7.796  25.626  31.688  1.00  0.00     0.039 A 
HETATM    6  C7  UNL     1       8.717  25.478  32.700  1.00  0.00     0.087 A 
HETATM    7  C21 UNL     1       8.220  25.254  33.961  1.00  0.00     0.015 A 
ENDROOT
BRANCH   6   8
HETATM    8  O1  UNL     1      10.089  25.548  32.498  1.00  0.00    -0.310 OA
BRANCH   8   9
HETATM    9  C8  UNL     1      10.916  24.448  32.696  1.00  0.00     0.076 A 
HETATM   10  C9  UNL     1      12.182  24.587  33.229  1.00  0.00     0.038 A 
HETATM   11  C10 UNL     1      13.018  23.512  33.437  1.00  0.00     0.015 A 
HETATM   12  C11 UNL     1      12.638  22.220  33.123  1.00  0.00    -0.026 A 
HETATM   13  C19 UNL     1      11.375  22.076  32.591  1.00  0.00     0.015 A 
HETATM   14  C20 UNL     1      10.531  23.162  32.381  1.00  0.00     0.038 A 
BRANCH  12  15
HETATM   15  C12 UNL     1      13.526  21.085  33.348  1.00  0.00    -0.026 A 
HETATM   16  C13 UNL     1      13.156  20.112  34.221  1.00  0.00     0.013 A 
HETATM   17  C14 UNL     1      13.923  19.007  34.499  1.00  0.00     0.017 A 
HETATM   18  C15 UNL     1      15.140  18.859  33.870  1.00  0.00     0.029 A 
HETATM   19  C17 UNL     1      15.551  19.825  32.977  1.00  0.00     0.017 A 
HETATM   20  C18 UNL     1      14.748  20.912  32.730  1.00  0.00     0.013 A 
BRANCH  18  21
HETATM   21  C16 UNL     1      16.002  17.711  34.149  1.00  0.00     0.264 C 
HETATM   22  N3  UNL     1      15.637  16.438  33.656  1.00  0.00    -0.057 NA
HETATM   23  O2  UNL     1      17.039  17.892  34.819  1.00  0.00    -0.271 OA
ENDBRANCH  18  21
ENDBRANCH  12  15
ENDBRANCH   8   9
ENDBRANCH   6   8
BRANCH   7  24
HETATM   24  C22 UNL     1       9.158  25.089  35.048  1.00  0.00    -0.023 A 
HETATM   25  C23 UNL     1       9.704  26.214  35.616  1.00  0.00     0.012 A 
HETATM   26  C24 UNL     1      10.608  26.105  36.647  1.00  0.00     0.001 A 
HETATM   27  C25 UNL     1      10.992  24.853  37.141  1.00  0.00     0.000 A 
HETATM   28  C26 UNL     1      10.418  23.756  36.541  1.00  0.00     0.001 A 
HETATM   29  C27 UNL     1       9.512  23.848  35.507  1.00  0.00     0.012 A 
ENDBRANCH   7  24
BRANCH   3  30
HETATM   30  C4  UNL     1       4.463  25.244  33.389  1.00  0.00     0.120 C 
HETATM   31  N1  UNL     1       3.697  24.325  33.207  1.00  0.00    -0.387 N 
ATOM     32  H12 UNL     1       4.134  23.463  32.878  1.00  0.00     0.157 HD
ATOM     33  H11 UNL     1       2.685  24.271  33.322  1.00  0.00     0.157 HD
HETATM   34  N2  UNL     1       3.835  26.478  33.860  1.00  0.00    -0.082 NA
ENDBRANCH   3  30
TORSDOF 6
ENDMDL
MODEL 3
REMARK VINA RESULT: -10.571876481      4.021      6.184
REMARK  6 active torsions:
REMARK  status: ('A' for Active; 'I' for Inactive)
REMARK    1  A    between atoms: C3_3  and  C4_4 
REMARK    2  A    between atoms: C7_11  and  O1_12 
REMARK    3  A    between atoms: O1_12  and  C8_13 
REMARK    4  A    between atoms: C11_16  and  C12_17 
REMARK    5  A    between atoms: C15_20  and  C16_21 
REMARK    6  A    between atoms: C21_28  and  C22_29 
ROOT
HETATM    1  C1  UNL     1      12.030  25.843  32.755  1.00  0.00     0.050 C 
HETATM    2  C2  UNL     1      12.816  24.582  32.656  1.00  0.00    -0.035 A 
HETATM    3  C3  UNL     1      13.514  24.318  31.506  1.00  0.00     0.011 A 
HETATM    4  C5  UNL     1      14.241  23.121  31.511  1.00  0.00     0.018 A 
HETATM    5  C6  UNL     1      14.273  22.253  32.578  1.00  0.00     0.039 A 
HETATM    6  C7  UNL     1      13.568  22.527  33.728  1.00  0.00     0.087 A 
HETATM    7  C21 UNL     1      12.846  23.696  33.748  1.00  0.00     0.015 A 
ENDROOT
BRANCH   6   8
HETATM    8  O1  UNL     1      13.563  21.690  34.836  1.00  0.00    -0.310 OA
BRANCH   8   9
HETATM    9  C8  UNL     1      13.732  20.315  34.716  1.00  0.00     0.076 A 
HETATM   10  C9  UNL     1      13.122  19.437  35.590  1.00  0.00     0.038 A 
HETATM   11  C10 UNL     1      13.272  18.071  35.490  1.00  0.00     0.015 A 
HETATM   12  C11 UNL     1      14.048  17.493  34.502  1.00  0.00    -0.026 A 
HETATM   13  C19 UNL     1      14.660  18.365  33.628  1.00  0.00     0.015 A 
HETATM   14  C20 UNL     1      14.507  19.744  33.729  1.00  0.00     0.038 A 
BRANCH  12  15
HETATM   15  C12 UNL     1      14.202  16.046  34.400  1.00  0.00    -0.026 A 
HETATM   16  C13 UNL     1      13.095  15.257  34.392  1.00  0.00     0.013 A 
HETATM   17  C14 UNL     1      13.137  13.887  34.300  1.00  0.00     0.017 A 
HETATM   18  C15 UNL     1      14.360  13.258  34.211  1.00  0.00     0.029 A 
HETATM   19  C17 UNL     1      15.507  14.024  34.216  1.00  0.00     0.017 A 
HETATM   20  C18 UNL     1      15.413  15.390  34.308  1.00  0.00     0.013 A 
BRANCH  18  21
HETATM   21  C16 UNL     1      14.458  11.801  34.133  1.00  0.00     0.264 C 
HETATM   22  N3  UNL     1      14.748  11.195  32.889  1.00  0.00    -0.057 NA
HETATM   23  O2  UNL     1      14.280  11.134  35.172  1.00  0.00    -0.271 OA
ENDBRANCH  18  21
ENDBRANCH  12  15
ENDBRANCH   8   9
ENDBRANCH   6   8
BRANCH   7  24
HETATM   24  C22 UNL     1      12.090  24.013  34.938  1.00  0.00    -0.023 A 
HETATM   25  C23 UNL     1      10.764  23.657  34.984  1.00  0.00     0.012 A 
HETATM   26  C24 UNL     1      10.003  23.948  36.092  1.00  0.00     0.001 A 
HETATM   27  C25 UNL     1      10.556  24.608  37.195  1.00  0.00     0.000 A 
HETATM   28  C26 UNL     1      11.887  24.944  37.102  1.00  0.00     0.001 A 
HETATM   29  C27 UNL     1      12.662  24.661  36.000  1.00  0.00     0.012 A 
ENDBRANCH   7  24
BRANCH   3  30
HETATM   30  C4  UNL     1      13.539  25.166  30.313  1.00  0.00     0.120 C 
HETATM   31  N1  UNL     1      14.334  26.009  29.963  1.00  0.00    -0.387 N 
ATOM     32  H12 UNL     1      15.111  26.156  30.607  1.00  0.00     0.157 HD
ATOM     33  H11 UNL     1      14.351  26.599  29.132  1.00  0.00     0.157 HD
HETATM   34  N2  UNL     1      12.426  24.955  29.389  1.00  0.00    -0.082 NA
ENDBRANCH   3  30
TORSDOF 6
ENDMDL
MODEL 4
REMARK VINA RESULT: -10.260998288      4.046      6.224
REMARK  6 active torsions:
REMARK  status: ('A' for Active; 'I' for Inactive)
REMARK    1  A    between atoms: C3_3  and  C4_4 
REMARK    2  A    between atoms: C7_11  and  O1_12 
REMARK    3  A    between atoms: O1_12  and  C8_13 
REMARK    4  A    between atoms: C11_16  and  C12_17 
REMARK    5  A    between atoms: C15_20  and  C16_21 
REMARK    6  A    between atoms: C21_28  and  C22_29 
ROOT
HETATM    1  C1  UNL     1      11.906  25.708  32.577  1.00  0.00     0.050 C 
HETATM    2  C2  UNL     1      12.769  24.497  32.489  1.00  0.00    -0.035 A 
HETATM    3  C3  UNL     1      13.429  24.231  31.318  1.00  0.00     0.011 A 
HETATM    4  C5  UNL     1      14.233  23.086  31.333  1.00  0.00     0.018 A 
HETATM    5  C6  UNL     1      14.372  22.267  32.430  1.00  0.00     0.039 A 
HETATM    6  C7  UNL     1      13.704  22.542  33.601  1.00  0.00     0.087 A 
HETATM    7  C21 UNL     1      12.907  23.661  33.612  1.00  0.00     0.015 A 
ENDROOT
BRANCH   6   8
HETATM    8  O1  UNL     1      13.805  21.753  34.739  1.00  0.00    -0.310 OA
BRANCH   8   9
HETATM    9  C8  UNL     1      13.856  20.365  34.667  1.00  0.00     0.076 A 
HETATM   10  C9  UNL     1      14.746  19.721  33.832  1.00  0.00     0.038 A 
HETATM   11  C10 UNL     1      14.817  18.347  33.744  1.00  0.00     0.015 A 
HETATM   12  C11 UNL     1      13.994  17.526  34.494  1.00  0.00    -0.026 A 
HETATM   13  C19 UNL     1      13.103  18.164  35.329  1.00  0.00     0.015 A 
HETATM   14  C20 UNL     1      13.033  19.551  35.417  1.00  0.00     0.038 A 
BRANCH  12  15
HETATM   15  C12 UNL     1      14.074  16.072  34.399  1.00  0.00    -0.026 A 
HETATM   16  C13 UNL     1      15.294  15.472  34.376  1.00  0.00     0.013 A 
HETATM   17  C14 UNL     1      15.472  14.114  34.289  1.00  0.00     0.017 A 
HETATM   18  C15 UNL     1      14.366  13.295  34.218  1.00  0.00     0.029 A 
HETATM   19  C17 UNL     1      13.111  13.865  34.238  1.00  0.00     0.017 A 
HETATM   20  C18 UNL     1      12.984  15.229  34.329  1.00  0.00     0.013 A 
BRANCH  18  21
HETATM   21  C16 UNL     1      14.505  11.844  34.102  1.00  0.00     0.264 C 
HETATM   22  N3  UNL     1      14.799  11.277  32.841  1.00  0.00    -0.057 NA
HETATM   23  O2  UNL     1      14.359  11.146  35.126  1.00  0.00    -0.271 OA
ENDBRANCH  18  21
ENDBRANCH  12  15
ENDBRANCH   8   9
ENDBRANCH   6   8
BRANCH   7  24
HETATM   24  C22 UNL     1      12.187  23.978  34.823  1.00  0.00    -0.023 A 
HETATM   25  C23 UNL     1      10.871  23.597  34.920  1.00  0.00     0.012 A 
HETATM   26  C24 UNL     1      10.143  23.886  36.050  1.00  0.00     0.001 A 
HETATM   27  C25 UNL     1      10.721  24.571  37.126  1.00  0.00     0.000 A 
HETATM   28  C26 UNL     1      12.041  24.931  36.983  1.00  0.00     0.001 A 
HETATM   29  C27 UNL     1      12.783  24.650  35.857  1.00  0.00     0.012 A 
ENDBRANCH   7  24
BRANCH   3  30
HETATM   30  C4  UNL     1      13.344  25.029  30.093  1.00  0.00     0.120 C 
HETATM   31  N1  UNL     1      12.541  24.998  29.187  1.00  0.00    -0.387 N 
ATOM     32  H12 UNL     1      11.806  24.297  29.292  1.00  0.00     0.157 HD
ATOM     33  H11 UNL     1      12.481  25.553  28.334  1.00  0.00     0.157 HD
HETATM   34  N2  UNL     1      14.396  26.033  29.942  1.00  0.00    -0.082 NA
ENDBRANCH   3  30
TORSDOF 6
ENDMDL
MODEL 5
REMARK VINA RESULT: -10.143200944      1.924      8.750
REMARK  6 active torsions:
REMARK  status: ('A' for Active; 'I' for Inactive)
REMARK    1  A    between atoms: C3_3  and  C4_4 
REMARK    2  A    between atoms: C7_11  and  O1_12 
REMARK    3  A    between atoms: O1_12  and  C8_13 
REMARK    4  A    between atoms: C11_16  and  C12_17 
REMARK    5  A    between atoms: C15_20  and  C16_21 
REMARK    6  A    between atoms: C21_28  and  C22_29 
ROOT
HETATM    1  C1  UNL     1      13.747  20.263  35.640  1.00  0.00     0.050 C 
HETATM    2  C2  UNL     1      14.002  20.788  34.270  1.00  0.00    -0.035 A 
HETATM    3  C3  UNL     1      14.676  20.005  33.370  1.00  0.00     0.011 A 
HETATM    4  C5  UNL     1      14.851  20.570  32.101  1.00  0.00     0.018 A 
HETATM    5  C6  UNL     1      14.389  21.819  31.753  1.00  0.00     0.039 A 
HETATM    6  C7  UNL     1      13.714  22.597  32.664  1.00  0.00     0.087 A 
HETATM    7  C21 UNL     1      13.530  22.065  33.918  1.00  0.00     0.015 A 
ENDROOT
BRANCH   6   8
HETATM    8  O1  UNL     1      13.225  23.863  32.371  1.00  0.00    -0.310 OA
BRANCH   8   9
HETATM    9  C8  UNL     1      11.879  24.181  32.514  1.00  0.00     0.076 A 
HETATM   10  C9  UNL     1      10.888  23.287  32.161  1.00  0.00     0.038 A 
HETATM   11  C10 UNL     1       9.548  23.578  32.295  1.00  0.00     0.015 A 
HETATM   12  C11 UNL     1       9.111  24.791  32.797  1.00  0.00    -0.026 A 
HETATM   13  C19 UNL     1      10.097  25.687  33.151  1.00  0.00     0.015 A 
HETATM   14  C20 UNL     1      11.450  25.392  33.015  1.00  0.00     0.038 A 
BRANCH  12  15
HETATM   15  C12 UNL     1       7.691  25.093  32.940  1.00  0.00    -0.026 A 
HETATM   16  C13 UNL     1       7.079  24.866  34.132  1.00  0.00     0.013 A 
HETATM   17  C14 UNL     1       5.749  25.117  34.364  1.00  0.00     0.017 A 
HETATM   18  C15 UNL     1       4.974  25.626  33.345  1.00  0.00     0.029 A 
HETATM   19  C17 UNL     1       5.559  25.870  32.120  1.00  0.00     0.017 A 
HETATM   20  C18 UNL     1       6.893  25.604  31.937  1.00  0.00     0.013 A 
BRANCH  18  21
HETATM   21  C16 UNL     1       3.549  25.890  33.536  1.00  0.00     0.264 C 
HETATM   22  N3  UNL     1       3.151  27.020  34.287  1.00  0.00    -0.057 NA
HETATM   23  O2  UNL     1       2.722  25.105  33.029  1.00  0.00    -0.271 OA
ENDBRANCH  18  21
ENDBRANCH  12  15
ENDBRANCH   8   9
ENDBRANCH   6   8
BRANCH   7  24
HETATM   24  C22 UNL     1      12.829  22.857  34.902  1.00  0.00    -0.023 A 
HETATM   25  C23 UNL     1      11.499  22.597  35.123  1.00  0.00     0.012 A 
HETATM   26  C24 UNL     1      10.789  23.331  36.044  1.00  0.00     0.001 A 
HETATM   27  C25 UNL     1      11.400  24.355  36.777  1.00  0.00     0.000 A 
HETATM   28  C26 UNL     1      12.734  24.577  36.522  1.00  0.00     0.001 A 
HETATM   29  C27 UNL     1      13.458  23.852  35.603  1.00  0.00     0.012 A 
ENDBRANCH   7  24
BRANCH   3  30
HETATM   30  C4  UNL     1      15.217  18.671  33.639  1.00  0.00     0.120 C 
HETATM   31  N1  UNL     1      16.266  18.333  34.141  1.00  0.00    -0.387 N 
ATOM     32  H12 UNL     1      16.875  19.104  34.416  1.00  0.00     0.157 HD
ATOM     33  H11 UNL     1      16.643  17.404  34.329  1.00  0.00     0.157 HD
HETATM   34  N2  UNL     1      14.345  17.566  33.245  1.00  0.00    -0.082 NA
ENDBRANCH   3  30
TORSDOF 6
ENDMDL
