MODEL 1
REMARK VINA RESULT: -6.570360793      0.000      0.000
REMARK  7 active torsions:
REMARK  status: ('A' for Active; 'I' for Inactive)
REMARK    1  A    between atoms: C2_2  and  C4_4 
REMARK    2  A    between atoms: N1_11  and  C11_12 
REMARK    3  A    between atoms: C11_12  and  C12_13 
REMARK    4  A    between atoms: C12_13  and  O1_14 
REMARK    5  A    between atoms: C12_13  and  C13_16 
REMARK    6  A    between atoms: C13_16  and  N2_17 
REMARK    7  A    between atoms: N3_20  and  C16_21 
ROOT
HETATM    1  C11 UNL     1      -2.821   3.859  12.026  1.00  0.00     0.096 C 
ENDROOT
BRANCH   1   2
HETATM    2  N1  UNL     1      -3.425   5.115  12.067  1.00  0.00    -0.371 N 
HETATM    3  C10 UNL     1      -3.150   5.982  10.957  1.00  0.00     0.128 C 
HETATM    4  C9  UNL     1      -4.048   7.212  11.080  1.00  0.00     0.030 C 
HETATM    5  C8  UNL     1      -5.447   6.745  10.907  1.00  0.00    -0.031 C 
HETATM    6  C4  UNL     1      -6.482   7.791  10.759  1.00  0.00    -0.002 C 
HETATM    7  C7  UNL     1      -5.636   5.858   9.692  1.00  0.00     0.010 C 
HETATM    8  C22 UNL     1      -5.768   5.857  12.118  1.00  0.00     0.054 C 
HETATM    9  C5  UNL     1      -7.686   7.056  10.227  1.00  0.00     0.006 C 
HETATM   10  C6  UNL     1      -7.138   5.837   9.496  1.00  0.00     0.001 C 
HETATM   11  C21 UNL     1      -4.525   5.419  12.851  1.00  0.00     0.064 C 
BRANCH   6  12
HETATM   12  C2  UNL     1      -6.122   9.001   9.984  1.00  0.00    -0.018 C 
HETATM   13  C1  UNL     1      -6.969   9.298   8.798  1.00  0.00     0.010 C 
HETATM   14  C3  UNL     1      -6.231  10.199  10.940  1.00  0.00     0.010 C 
ENDBRANCH   6  12
ENDBRANCH   1   2
BRANCH   1  15
HETATM   15  C12 UNL     1      -3.067   3.055  13.282  1.00  0.00     0.184 C 
BRANCH  15  16
HETATM   16  O1  UNL     1      -1.828   2.620  13.730  1.00  0.00    -0.389 OA
ATOM     17  H1  UNL     1      -1.632   3.112  14.519  1.00  0.00     0.210 HD
ENDBRANCH  15  16
BRANCH  15  18
HETATM   18  C13 UNL     1      -3.903   1.827  12.946  1.00  0.00     0.309 C 
BRANCH  18  19
HETATM   19  N2  UNL     1      -4.728   1.338  13.973  1.00  0.00     0.094 N 
HETATM   20  C14 UNL     1      -4.252   0.274  14.786  1.00  0.00     0.302 C 
HETATM   21  C15 UNL     1      -4.251   0.608  16.264  1.00  0.00     0.303 C 
HETATM   22  N3  UNL     1      -5.583   0.966  16.723  1.00  0.00     0.095 N 
HETATM   23  C19 UNL     1      -6.229   1.901  15.835  1.00  0.00     0.303 C 
HETATM   24  C20 UNL     1      -5.314   2.418  14.744  1.00  0.00     0.302 C 
BRANCH  22  25
HETATM   25  C16 UNL     1      -6.435  -0.183  16.864  1.00  0.00     0.215 C 
HETATM   26  C17 UNL     1      -6.056  -1.035  18.061  1.00  0.00     0.042 C 
HETATM   27  C18 UNL     1      -7.852   0.314  17.137  1.00  0.00     0.042 C 
ENDBRANCH  22  25
ENDBRANCH  18  19
ENDBRANCH  15  18
ENDBRANCH   1  15
TORSDOF 7
ENDMDL
MODEL 2
REMARK VINA RESULT: -6.455046486      1.993      8.118
REMARK  7 active torsions:
REMARK  status: ('A' for Active; 'I' for Inactive)
REMARK    1  A    between atoms: C2_2  and  C4_4 
REMARK    2  A    between atoms: N1_11  and  C11_12 
REMARK    3  A    between atoms: C11_12  and  C12_13 
REMARK    4  A    between atoms: C12_13  and  O1_14 
REMARK    5  A    between atoms: C12_13  and  C13_16 
REMARK    6  A    between atoms: C13_16  and  N2_17 
REMARK    7  A    between atoms: N3_20  and  C16_21 
ROOT
HETATM    1  C11 UNL     1      -3.307   3.692  12.024  1.00  0.00     0.096 C 
ENDROOT
BRANCH   1   2
HETATM    2  N1  UNL     1      -3.964   3.591  13.250  1.00  0.00    -0.371 N 
HETATM    3  C10 UNL     1      -5.316   3.112  13.203  1.00  0.00     0.128 C 
HETATM    4  C9  UNL     1      -5.789   2.881  14.637  1.00  0.00     0.030 C 
HETATM    5  C8  UNL     1      -4.973   1.769  15.186  1.00  0.00    -0.031 C 
HETATM    6  C4  UNL     1      -5.402   1.211  16.488  1.00  0.00    -0.002 C 
HETATM    7  C7  UNL     1      -4.905   0.565  14.269  1.00  0.00     0.010 C 
HETATM    8  C22 UNL     1      -3.531   2.288  15.290  1.00  0.00     0.054 C 
HETATM    9  C5  UNL     1      -4.664  -0.098  16.598  1.00  0.00     0.006 C 
HETATM   10  C6  UNL     1      -4.388  -0.540  15.167  1.00  0.00     0.001 C 
HETATM   11  C21 UNL     1      -3.315   3.538  14.472  1.00  0.00     0.064 C 
BRANCH   6  12
HETATM   12  C2  UNL     1      -6.859   1.106  16.736  1.00  0.00    -0.018 C 
HETATM   13  C1  UNL     1      -7.326  -0.149  17.383  1.00  0.00     0.010 C 
HETATM   14  C3  UNL     1      -7.245   2.272  17.658  1.00  0.00     0.010 C 
ENDBRANCH   6  12
ENDBRANCH   1   2
BRANCH   1  15
HETATM   15  C12 UNL     1      -4.265   3.824  10.861  1.00  0.00     0.184 C 
BRANCH  15  16
HETATM   16  O1  UNL     1      -4.058   2.721  10.043  1.00  0.00    -0.389 OA
ATOM     17  H1  UNL     1      -4.702   2.069  10.294  1.00  0.00     0.210 HD
ENDBRANCH  15  16
BRANCH  15  18
HETATM   18  C13 UNL     1      -3.924   5.073  10.060  1.00  0.00     0.309 C 
BRANCH  18  19
HETATM   19  N2  UNL     1      -5.010   5.879   9.676  1.00  0.00     0.094 N 
HETATM   20  C14 UNL     1      -5.674   5.596   8.451  1.00  0.00     0.302 C 
HETATM   21  C15 UNL     1      -7.160   5.354   8.621  1.00  0.00     0.303 C 
HETATM   22  N3  UNL     1      -7.813   6.499   9.234  1.00  0.00     0.095 N 
HETATM   23  C19 UNL     1      -7.088   6.986  10.382  1.00  0.00     0.303 C 
HETATM   24  C20 UNL     1      -5.928   6.094  10.778  1.00  0.00     0.302 C 
BRANCH  22  25
HETATM   25  C16 UNL     1      -7.977   7.588   8.311  1.00  0.00     0.215 C 
HETATM   26  C17 UNL     1      -9.437   7.896   8.041  1.00  0.00     0.042 C 
HETATM   27  C18 UNL     1      -7.398   8.843   8.958  1.00  0.00     0.042 C 
ENDBRANCH  22  25
ENDBRANCH  18  19
ENDBRANCH  15  18
ENDBRANCH   1  15
TORSDOF 7
ENDMDL
MODEL 3
REMARK VINA RESULT: -6.319880714      2.185      7.156
REMARK  7 active torsions:
REMARK  status: ('A' for Active; 'I' for Inactive)
REMARK    1  A    between atoms: C2_2  and  C4_4 
REMARK    2  A    between atoms: N1_11  and  C11_12 
REMARK    3  A    between atoms: C11_12  and  C12_13 
REMARK    4  A    between atoms: C12_13  and  O1_14 
REMARK    5  A    between atoms: C12_13  and  C13_16 
REMARK    6  A    between atoms: C13_16  and  N2_17 
REMARK    7  A    between atoms: N3_20  and  C16_21 
ROOT
HETATM    1  C11 UNL     1      -1.203   5.163  13.032  1.00  0.00     0.096 C 
ENDROOT
BRANCH   1   2
HETATM    2  N1  UNL     1      -1.832   3.978  13.412  1.00  0.00    -0.371 N 
HETATM    3  C10 UNL     1      -1.975   3.766  14.824  1.00  0.00     0.128 C 
HETATM    4  C9  UNL     1      -2.854   2.534  15.033  1.00  0.00     0.030 C 
HETATM    5  C8  UNL     1      -4.206   2.877  14.525  1.00  0.00    -0.031 C 
HETATM    6  C4  UNL     1      -5.292   1.919  14.828  1.00  0.00    -0.002 C 
HETATM    7  C7  UNL     1      -4.723   4.203  15.046  1.00  0.00     0.010 C 
HETATM    8  C22 UNL     1      -4.074   3.056  13.006  1.00  0.00     0.054 C 
HETATM    9  C5  UNL     1      -6.559   2.686  14.548  1.00  0.00     0.006 C 
HETATM   10  C6  UNL     1      -6.205   4.154  14.738  1.00  0.00     0.001 C 
HETATM   11  C21 UNL     1      -2.639   3.228  12.574  1.00  0.00     0.064 C 
BRANCH   6  12
HETATM   12  C2  UNL     1      -5.266   1.257  16.154  1.00  0.00    -0.018 C 
HETATM   13  C1  UNL     1      -6.567   1.173  16.871  1.00  0.00     0.010 C 
HETATM   14  C3  UNL     1      -4.767  -0.178  15.932  1.00  0.00     0.010 C 
ENDBRANCH   6  12
ENDBRANCH   1   2
BRANCH   1  15
HETATM   15  C12 UNL     1      -1.498   5.545  11.600  1.00  0.00     0.184 C 
BRANCH  15  16
HETATM   16  O1  UNL     1      -0.275   5.764  10.982  1.00  0.00    -0.389 OA
ATOM     17  H1  UNL     1      -0.458   6.184  10.149  1.00  0.00     0.210 HD
ENDBRANCH  15  16
BRANCH  15  18
HETATM   18  C13 UNL     1      -2.280   6.851  11.571  1.00  0.00     0.309 C 
BRANCH  18  19
HETATM   19  N2  UNL     1      -3.559   6.796  10.989  1.00  0.00     0.094 N 
HETATM   20  C14 UNL     1      -3.729   6.080   9.774  1.00  0.00     0.302 C 
HETATM   21  C15 UNL     1      -4.782   4.993   9.864  1.00  0.00     0.303 C 
HETATM   22  N3  UNL     1      -6.072   5.543  10.248  1.00  0.00     0.095 N 
HETATM   23  C19 UNL     1      -5.964   6.452  11.363  1.00  0.00     0.303 C 
HETATM   24  C20 UNL     1      -4.578   6.485  11.974  1.00  0.00     0.302 C 
BRANCH  22  25
HETATM   25  C16 UNL     1      -6.711   6.235   9.163  1.00  0.00     0.215 C 
HETATM   26  C17 UNL     1      -7.694   5.351   8.419  1.00  0.00     0.042 C 
HETATM   27  C18 UNL     1      -7.538   7.373   9.754  1.00  0.00     0.042 C 
ENDBRANCH  22  25
ENDBRANCH  18  19
ENDBRANCH  15  18
ENDBRANCH   1  15
TORSDOF 7
ENDMDL
MODEL 4
REMARK VINA RESULT: -6.283881722      1.933      7.927
REMARK  7 active torsions:
REMARK  status: ('A' for Active; 'I' for Inactive)
REMARK    1  A    between atoms: C2_2  and  C4_4 
REMARK    2  A    between atoms: N1_11  and  C11_12 
REMARK    3  A    between atoms: C11_12  and  C12_13 
REMARK    4  A    between atoms: C12_13  and  O1_14 
REMARK    5  A    between atoms: C12_13  and  C13_16 
REMARK    6  A    between atoms: C13_16  and  N2_17 
REMARK    7  A    between atoms: N3_20  and  C16_21 
ROOT
HETATM    1  C11 UNL     1      -2.466   3.307  12.367  1.00  0.00     0.096 C 
ENDROOT
BRANCH   1   2
HETATM    2  N1  UNL     1      -3.280   3.307  13.499  1.00  0.00    -0.371 N 
HETATM    3  C10 UNL     1      -4.662   2.989  13.282  1.00  0.00     0.128 C 
HETATM    4  C9  UNL     1      -5.337   2.843  14.644  1.00  0.00     0.030 C 
HETATM    5  C8  UNL     1      -4.735   1.654  15.299  1.00  0.00    -0.031 C 
HETATM    6  C4  UNL     1      -5.389   1.175  16.536  1.00  0.00    -0.002 C 
HETATM    7  C7  UNL     1      -4.694   0.432  14.402  1.00  0.00     0.010 C 
HETATM    8  C22 UNL     1      -3.267   2.003  15.583  1.00  0.00     0.054 C 
HETATM    9  C5  UNL     1      -4.831  -0.210  16.745  1.00  0.00     0.006 C 
HETATM   10  C6  UNL     1      -4.430  -0.708  15.363  1.00  0.00     0.001 C 
HETATM   11  C21 UNL     1      -2.802   3.202  14.795  1.00  0.00     0.064 C 
BRANCH   6  12
HETATM   12  C2  UNL     1      -6.867   1.246  16.597  1.00  0.00    -0.018 C 
HETATM   13  C1  UNL     1      -7.559   0.060  17.169  1.00  0.00     0.010 C 
HETATM   14  C3  UNL     1      -7.226   2.457  17.472  1.00  0.00     0.010 C 
ENDBRANCH   6  12
ENDBRANCH   1   2
BRANCH   1  15
HETATM   15  C12 UNL     1      -3.260   3.344  11.081  1.00  0.00     0.184 C 
BRANCH  15  16
HETATM   16  O1  UNL     1      -2.535   2.625  10.140  1.00  0.00    -0.389 OA
ATOM     17  H1  UNL     1      -1.633   2.914  10.208  1.00  0.00     0.210 HD
ENDBRANCH  15  16
BRANCH  15  18
HETATM   18  C13 UNL     1      -3.369   4.781  10.591  1.00  0.00     0.309 C 
BRANCH  18  19
HETATM   19  N2  UNL     1      -4.608   5.157  10.043  1.00  0.00     0.094 N 
HETATM   20  C14 UNL     1      -5.504   5.923  10.837  1.00  0.00     0.302 C 
HETATM   21  C15 UNL     1      -5.912   7.228  10.183  1.00  0.00     0.303 C 
HETATM   22  N3  UNL     1      -6.538   6.997   8.892  1.00  0.00     0.095 N 
HETATM   23  C19 UNL     1      -5.791   6.061   8.087  1.00  0.00     0.303 C 
HETATM   24  C20 UNL     1      -4.458   5.680   8.698  1.00  0.00     0.302 C 
BRANCH  22  25
HETATM   25  C16 UNL     1      -7.883   6.506   9.022  1.00  0.00     0.215 C 
HETATM   26  C17 UNL     1      -8.899   7.450   8.408  1.00  0.00     0.042 C 
HETATM   27  C18 UNL     1      -7.987   5.207   8.228  1.00  0.00     0.042 C 
ENDBRANCH  22  25
ENDBRANCH  18  19
ENDBRANCH  15  18
ENDBRANCH   1  15
TORSDOF 7
ENDMDL
MODEL 5
REMARK VINA RESULT: -6.245142940      1.519      2.272
REMARK  7 active torsions:
REMARK  status: ('A' for Active; 'I' for Inactive)
REMARK    1  A    between atoms: C2_2  and  C4_4 
REMARK    2  A    between atoms: N1_11  and  C11_12 
REMARK    3  A    between atoms: C11_12  and  C12_13 
REMARK    4  A    between atoms: C12_13  and  O1_14 
REMARK    5  A    between atoms: C12_13  and  C13_16 
REMARK    6  A    between atoms: C13_16  and  N2_17 
REMARK    7  A    between atoms: N3_20  and  C16_21 
ROOT
HETATM    1  C11 UNL     1      -3.367   4.995  11.177  1.00  0.00     0.096 C 
ENDROOT
BRANCH   1   2
HETATM    2  N1  UNL     1      -4.179   6.100  10.923  1.00  0.00    -0.371 N 
HETATM    3  C10 UNL     1      -4.053   6.687   9.620  1.00  0.00     0.128 C 
HETATM    4  C9  UNL     1      -5.150   7.739   9.465  1.00  0.00     0.030 C 
HETATM    5  C8  UNL     1      -6.446   7.015   9.471  1.00  0.00    -0.031 C 
HETATM    6  C4  UNL     1      -7.646   7.800   9.104  1.00  0.00    -0.002 C 
HETATM    7  C7  UNL     1      -6.475   5.829   8.528  1.00  0.00     0.010 C 
HETATM    8  C22 UNL     1      -6.616   6.426  10.878  1.00  0.00     0.054 C 
HETATM    9  C5  UNL     1      -8.703   6.762   8.824  1.00  0.00     0.006 C 
HETATM   10  C6  UNL     1      -7.949   5.507   8.403  1.00  0.00     0.001 C 
HETATM   11  C21 UNL     1      -5.318   6.405  11.648  1.00  0.00     0.064 C 
BRANCH   6  12
HETATM   12  C2  UNL     1      -7.497   8.815   8.036  1.00  0.00    -0.018 C 
HETATM   13  C1  UNL     1      -8.525   8.793   6.961  1.00  0.00     0.010 C 
HETATM   14  C3  UNL     1      -7.562  10.194   8.710  1.00  0.00     0.010 C 
ENDBRANCH   6  12
ENDBRANCH   1   2
BRANCH   1  15
HETATM   15  C12 UNL     1      -2.887   4.943  12.610  1.00  0.00     0.184 C 
BRANCH  15  16
HETATM   16  O1  UNL     1      -1.894   5.905  12.735  1.00  0.00    -0.389 OA
ATOM     17  H1  UNL     1      -1.716   6.232  11.862  1.00  0.00     0.210 HD
ENDBRANCH  15  16
BRANCH  15  18
HETATM   18  C13 UNL     1      -2.262   3.584  12.889  1.00  0.00     0.309 C 
BRANCH  18  19
HETATM   19  N2  UNL     1      -2.993   2.725  13.728  1.00  0.00     0.094 N 
HETATM   20  C14 UNL     1      -3.723   3.284  14.812  1.00  0.00     0.302 C 
HETATM   21  C15 UNL     1      -5.197   2.933  14.781  1.00  0.00     0.303 C 
HETATM   22  N3  UNL     1      -5.395   1.493  14.799  1.00  0.00     0.095 N 
HETATM   23  C19 UNL     1      -4.535   0.816  13.859  1.00  0.00     0.303 C 
HETATM   24  C20 UNL     1      -3.766   1.765  12.963  1.00  0.00     0.302 C 
BRANCH  22  25
HETATM   25  C16 UNL     1      -5.168   0.930  16.102  1.00  0.00     0.215 C 
HETATM   26  C17 UNL     1      -6.460   0.724  16.870  1.00  0.00     0.042 C 
HETATM   27  C18 UNL     1      -4.567  -0.459  15.915  1.00  0.00     0.042 C 
ENDBRANCH  22  25
ENDBRANCH  18  19
ENDBRANCH  15  18
ENDBRANCH   1  15
TORSDOF 7
ENDMDL
