MODEL 1
REMARK VINA RESULT: -7.304789354      0.000      0.000
REMARK  8 active torsions:
REMARK  status: ('A' for Active; 'I' for Inactive)
REMARK    1  A    between atoms: C2_3  and  N2_4 
REMARK    2  A    between atoms: N2_4  and  C3_6 
REMARK    3  A    between atoms: C3_6  and  N3_7 
REMARK    4  A    between atoms: C3_6  and  C17_26 
REMARK    5  A    between atoms: N3_7  and  C4_9 
REMARK    6  A    between atoms: N4_12  and  C7_13 
REMARK    7  A    between atoms: C7_13  and  C8_14 
REMARK       I    between atoms: C8_14  and  N5_16 
REMARK    8  A    between atoms: N5_16  and  C9_18 
ROOT
HETATM    1  N1  UNL     1      -5.481   0.349  11.069  1.00  0.00    -0.191 NA
HETATM    2  C1  UNL     1      -4.912   0.044  12.029  1.00  0.00     0.105 C 
HETATM    3  C2  UNL     1      -4.191  -0.317  13.256  1.00  0.00     0.183 C 
ENDROOT
BRANCH   3   4
HETATM    4  N2  UNL     1      -4.568   0.310  14.402  1.00  0.00    -0.347 N 
ATOM      5  H2  UNL     1      -4.512  -0.435  15.097  1.00  0.00     0.167 HD
BRANCH   4   6
HETATM    6  C3  UNL     1      -4.930   1.255  15.052  1.00  0.00     0.082 C 
BRANCH   6   7
HETATM    7  N3  UNL     1      -4.961   2.553  14.405  1.00  0.00    -0.373 N 
ATOM      8  H3  UNL     1      -5.793   2.804  13.870  1.00  0.00     0.161 HD
BRANCH   7   9
HETATM    9  C4  UNL     1      -3.900   3.494  14.474  1.00  0.00     0.097 C 
HETATM   10  C5  UNL     1      -4.390   4.918  14.574  1.00  0.00     0.041 C 
HETATM   11  C6  UNL     1      -3.256   5.730  13.935  1.00  0.00     0.097 C 
HETATM   12  N4  UNL     1      -2.517   4.824  13.152  1.00  0.00    -0.286 NA
HETATM   13  C16 UNL     1      -3.165   3.527  13.154  1.00  0.00     0.120 C 
BRANCH  12  14
HETATM   14  C7  UNL     1      -2.037   5.219  11.889  1.00  0.00     0.134 C 
BRANCH  14  15
HETATM   15  C8  UNL     1      -2.780   6.209  11.132  1.00  0.00     0.252 C 
HETATM   16  O1  UNL     1      -2.183   7.337  10.949  1.00  0.00    -0.268 OA
HETATM   17  N5  UNL     1      -4.059   6.116  10.571  1.00  0.00    -0.352 N 
ATOM     18  H5  UNL     1      -4.566   5.240  10.694  1.00  0.00     0.163 HD
BRANCH  17  19
HETATM   19  C9  UNL     1      -4.710   7.167   9.833  1.00  0.00     0.084 C 
HETATM   20  C10 UNL     1      -5.515   8.057  10.712  1.00  0.00     0.025 C 
HETATM   21  C11 UNL     1      -6.389   7.380  11.709  1.00  0.00     0.002 C 
HETATM   22  C12 UNL     1      -7.659   6.808  11.190  1.00  0.00     0.000 C 
HETATM   23  C13 UNL     1      -7.769   6.752   9.687  1.00  0.00     0.000 C 
HETATM   24  C14 UNL     1      -6.708   5.807   9.180  1.00  0.00     0.002 C 
HETATM   25  C15 UNL     1      -5.555   6.655   8.702  1.00  0.00     0.025 C 
ENDBRANCH  17  19
ENDBRANCH  14  15
ENDBRANCH  12  14
ENDBRANCH   7   9
ENDBRANCH   6   7
BRANCH   6  26
HETATM   26  C17 UNL     1      -5.359   1.279  16.452  1.00  0.00     0.053 C 
HETATM   27  C18 UNL     1      -6.797   1.474  16.730  1.00  0.00     0.012 C 
HETATM   28  C19 UNL     1      -7.387   0.136  17.123  1.00  0.00     0.001 C 
HETATM   29  C20 UNL     1      -6.227  -0.819  17.265  1.00  0.00     0.001 C 
HETATM   30  C21 UNL     1      -4.984   0.001  17.188  1.00  0.00     0.012 C 
ENDBRANCH   6  26
ENDBRANCH   4   6
ENDBRANCH   3   4
TORSDOF 8
ENDMDL
MODEL 2
REMARK VINA RESULT: -7.272844897      1.361      1.843
REMARK  8 active torsions:
REMARK  status: ('A' for Active; 'I' for Inactive)
REMARK    1  A    between atoms: C2_3  and  N2_4 
REMARK    2  A    between atoms: N2_4  and  C3_6 
REMARK    3  A    between atoms: C3_6  and  N3_7 
REMARK    4  A    between atoms: C3_6  and  C17_26 
REMARK    5  A    between atoms: N3_7  and  C4_9 
REMARK    6  A    between atoms: N4_12  and  C7_13 
REMARK    7  A    between atoms: C7_13  and  C8_14 
REMARK       I    between atoms: C8_14  and  N5_16 
REMARK    8  A    between atoms: N5_16  and  C9_18 
ROOT
HETATM    1  N1  UNL     1      -5.537   0.344  11.085  1.00  0.00    -0.191 NA
HETATM    2  C1  UNL     1      -4.938   0.042  12.027  1.00  0.00     0.105 C 
HETATM    3  C2  UNL     1      -4.175  -0.316  13.229  1.00  0.00     0.183 C 
ENDROOT
BRANCH   3   4
HETATM    4  N2  UNL     1      -4.412   0.413  14.352  1.00  0.00    -0.347 N 
ATOM      5  H2  UNL     1      -3.841  -0.059  15.054  1.00  0.00     0.167 HD
BRANCH   4   6
HETATM    6  C3  UNL     1      -4.920   1.305  14.978  1.00  0.00     0.082 C 
BRANCH   6   7
HETATM    7  N3  UNL     1      -5.211   2.544  14.281  1.00  0.00    -0.373 N 
ATOM      8  H3  UNL     1      -6.189   2.782  14.110  1.00  0.00     0.161 HD
BRANCH   7   9
HETATM    9  C4  UNL     1      -4.213   3.444  13.824  1.00  0.00     0.097 C 
HETATM   10  C5  UNL     1      -3.853   4.486  14.854  1.00  0.00     0.041 C 
HETATM   11  C6  UNL     1      -3.389   5.679  14.007  1.00  0.00     0.097 C 
HETATM   12  N4  UNL     1      -3.916   5.473  12.719  1.00  0.00    -0.286 NA
HETATM   13  C16 UNL     1      -4.774   4.306  12.716  1.00  0.00     0.120 C 
BRANCH  12  14
HETATM   14  C7  UNL     1      -4.435   6.563  11.993  1.00  0.00     0.134 C 
BRANCH  14  15
HETATM   15  C8  UNL     1      -4.874   6.351  10.626  1.00  0.00     0.252 C 
HETATM   16  O1  UNL     1      -3.978   5.906   9.813  1.00  0.00    -0.268 OA
HETATM   17  N5  UNL     1      -6.136   6.562  10.060  1.00  0.00    -0.352 N 
ATOM     18  H5  UNL     1      -6.874   6.914  10.669  1.00  0.00     0.163 HD
BRANCH  17  19
HETATM   19  C9  UNL     1      -6.469   6.317   8.680  1.00  0.00     0.084 C 
HETATM   20  C10 UNL     1      -6.182   7.492   7.815  1.00  0.00     0.025 C 
HETATM   21  C11 UNL     1      -6.639   8.813   8.327  1.00  0.00     0.002 C 
HETATM   22  C12 UNL     1      -8.089   9.109   8.183  1.00  0.00     0.000 C 
HETATM   23  C13 UNL     1      -8.945   7.934   7.785  1.00  0.00     0.000 C 
HETATM   24  C14 UNL     1      -8.889   6.921   8.900  1.00  0.00     0.002 C 
HETATM   25  C15 UNL     1      -7.889   5.868   8.488  1.00  0.00     0.025 C 
ENDBRANCH  17  19
ENDBRANCH  14  15
ENDBRANCH  12  14
ENDBRANCH   7   9
ENDBRANCH   6   7
BRANCH   6  26
HETATM   26  C17 UNL     1      -5.301   1.316  16.392  1.00  0.00     0.053 C 
HETATM   27  C18 UNL     1      -6.717   1.578  16.724  1.00  0.00     0.012 C 
HETATM   28  C19 UNL     1      -7.364   0.263  17.105  1.00  0.00     0.001 C 
HETATM   29  C20 UNL     1      -6.251  -0.754  17.185  1.00  0.00     0.001 C 
HETATM   30  C21 UNL     1      -4.970   0.002  17.084  1.00  0.00     0.012 C 
ENDBRANCH   6  26
ENDBRANCH   4   6
ENDBRANCH   3   4
TORSDOF 8
ENDMDL
MODEL 3
REMARK VINA RESULT: -7.208038606      1.219      1.660
REMARK  8 active torsions:
REMARK  status: ('A' for Active; 'I' for Inactive)
REMARK    1  A    between atoms: C2_3  and  N2_4 
REMARK    2  A    between atoms: N2_4  and  C3_6 
REMARK    3  A    between atoms: C3_6  and  N3_7 
REMARK    4  A    between atoms: C3_6  and  C17_26 
REMARK    5  A    between atoms: N3_7  and  C4_9 
REMARK    6  A    between atoms: N4_12  and  C7_13 
REMARK    7  A    between atoms: C7_13  and  C8_14 
REMARK       I    between atoms: C8_14  and  N5_16 
REMARK    8  A    between atoms: N5_16  and  C9_18 
ROOT
HETATM    1  N1  UNL     1      -5.328  -0.324  10.793  1.00  0.00    -0.191 NA
HETATM    2  C1  UNL     1      -4.833  -0.629  11.793  1.00  0.00     0.105 C 
HETATM    3  C2  UNL     1      -4.200  -0.989  13.068  1.00  0.00     0.183 C 
ENDROOT
BRANCH   3   4
HETATM    4  N2  UNL     1      -4.397  -0.147  14.117  1.00  0.00    -0.347 N 
ATOM      5  H2  UNL     1      -4.265  -0.756  14.925  1.00  0.00     0.167 HD
BRANCH   4   6
HETATM    6  C3  UNL     1      -4.641   0.917  14.621  1.00  0.00     0.082 C 
BRANCH   6   7
HETATM    7  N3  UNL     1      -4.566   2.099  13.784  1.00  0.00    -0.373 N 
ATOM      8  H3  UNL     1      -5.426   2.617  13.604  1.00  0.00     0.161 HD
BRANCH   7   9
HETATM    9  C4  UNL     1      -3.362   2.576  13.201  1.00  0.00     0.097 C 
HETATM   10  C5  UNL     1      -2.527   3.383  14.165  1.00  0.00     0.041 C 
HETATM   11  C6  UNL     1      -1.752   4.339  13.251  1.00  0.00     0.097 C 
HETATM   12  N4  UNL     1      -2.458   4.379  12.035  1.00  0.00    -0.286 NA
HETATM   13  C16 UNL     1      -3.683   3.613  12.150  1.00  0.00     0.120 C 
BRANCH  12  14
HETATM   14  C7  UNL     1      -2.612   5.602  11.353  1.00  0.00     0.134 C 
BRANCH  14  15
HETATM   15  C8  UNL     1      -3.725   6.466  11.704  1.00  0.00     0.252 C 
HETATM   16  O1  UNL     1      -3.595   7.128  12.801  1.00  0.00    -0.268 OA
HETATM   17  N5  UNL     1      -4.925   6.684  11.017  1.00  0.00    -0.352 N 
ATOM     18  H5  UNL     1      -5.067   6.178  10.143  1.00  0.00     0.163 HD
BRANCH  17  19
HETATM   19  C9  UNL     1      -5.972   7.571  11.455  1.00  0.00     0.084 C 
HETATM   20  C10 UNL     1      -7.326   6.998  11.226  1.00  0.00     0.025 C 
HETATM   21  C11 UNL     1      -7.564   6.386   9.890  1.00  0.00     0.002 C 
HETATM   22  C12 UNL     1      -7.815   7.330   8.769  1.00  0.00     0.000 C 
HETATM   23  C13 UNL     1      -7.532   8.778   9.077  1.00  0.00     0.000 C 
HETATM   24  C14 UNL     1      -6.054   8.915   9.345  1.00  0.00     0.002 C 
HETATM   25  C15 UNL     1      -5.879   8.938  10.843  1.00  0.00     0.025 C 
ENDBRANCH  17  19
ENDBRANCH  14  15
ENDBRANCH  12  14
ENDBRANCH   7   9
ENDBRANCH   6   7
BRANCH   6  26
HETATM   26  C17 UNL     1      -5.017   1.195  16.009  1.00  0.00     0.053 C 
HETATM   27  C18 UNL     1      -6.418   1.579  16.281  1.00  0.00     0.012 C 
HETATM   28  C19 UNL     1      -7.126   0.384  16.884  1.00  0.00     0.001 C 
HETATM   29  C20 UNL     1      -6.063  -0.655  17.149  1.00  0.00     0.001 C 
HETATM   30  C21 UNL     1      -4.747   0.009  16.925  1.00  0.00     0.012 C 
ENDBRANCH   6  26
ENDBRANCH   4   6
ENDBRANCH   3   4
TORSDOF 8
ENDMDL
MODEL 4
REMARK VINA RESULT: -7.194304997      3.667      5.985
REMARK  8 active torsions:
REMARK  status: ('A' for Active; 'I' for Inactive)
REMARK    1  A    between atoms: C2_3  and  N2_4 
REMARK    2  A    between atoms: N2_4  and  C3_6 
REMARK    3  A    between atoms: C3_6  and  N3_7 
REMARK    4  A    between atoms: C3_6  and  C17_26 
REMARK    5  A    between atoms: N3_7  and  C4_9 
REMARK    6  A    between atoms: N4_12  and  C7_13 
REMARK    7  A    between atoms: C7_13  and  C8_14 
REMARK       I    between atoms: C8_14  and  N5_16 
REMARK    8  A    between atoms: N5_16  and  C9_18 
ROOT
HETATM    1  N1  UNL     1      -5.337  -0.075  10.865  1.00  0.00    -0.191 NA
HETATM    2  C1  UNL     1      -4.821  -0.353  11.861  1.00  0.00     0.105 C 
HETATM    3  C2  UNL     1      -4.164  -0.678  13.133  1.00  0.00     0.183 C 
ENDROOT
BRANCH   3   4
HETATM    4  N2  UNL     1      -4.502   0.073  14.215  1.00  0.00    -0.347 N 
ATOM      5  H2  UNL     1      -4.849  -0.622  14.875  1.00  0.00     0.167 HD
BRANCH   4   6
HETATM    6  C3  UNL     1      -4.619   1.103  14.825  1.00  0.00     0.082 C 
BRANCH   6   7
HETATM    7  N3  UNL     1      -4.267   2.337  14.149  1.00  0.00    -0.373 N 
ATOM      8  H3  UNL     1      -4.911   2.701  13.446  1.00  0.00     0.161 HD
BRANCH   7   9
HETATM    9  C4  UNL     1      -3.078   3.068  14.411  1.00  0.00     0.097 C 
HETATM   10  C5  UNL     1      -3.333   4.542  14.608  1.00  0.00     0.041 C 
HETATM   11  C6  UNL     1      -2.017   5.193  14.163  1.00  0.00     0.097 C 
HETATM   12  N4  UNL     1      -1.358   4.239  13.365  1.00  0.00    -0.286 NA
HETATM   13  C16 UNL     1      -2.208   3.081  13.176  1.00  0.00     0.120 C 
BRANCH  12  14
HETATM   14  C7  UNL     1      -0.683   4.647  12.198  1.00  0.00     0.134 C 
BRANCH  14  15
HETATM   15  C8  UNL     1       0.620   4.079  11.905  1.00  0.00     0.252 C 
HETATM   16  O1  UNL     1       0.614   3.002  11.197  1.00  0.00    -0.268 OA
HETATM   17  N5  UNL     1       1.888   4.534  12.283  1.00  0.00    -0.352 N 
ATOM     18  H5  UNL     1       1.937   5.383  12.845  1.00  0.00     0.163 HD
BRANCH  17  19
HETATM   19  C9  UNL     1       3.129   3.890  11.936  1.00  0.00     0.084 C 
HETATM   20  C10 UNL     1       4.130   3.968  13.034  1.00  0.00     0.025 C 
HETATM   21  C11 UNL     1       4.294   5.299  13.680  1.00  0.00     0.002 C 
HETATM   22  C12 UNL     1       5.095   6.301  12.930  1.00  0.00     0.000 C 
HETATM   23  C13 UNL     1       5.408   5.931  11.502  1.00  0.00     0.000 C 
HETATM   24  C14 UNL     1       4.106   5.863  10.745  1.00  0.00     0.002 C 
HETATM   25  C15 UNL     1       3.722   4.407  10.657  1.00  0.00     0.025 C 
ENDBRANCH  17  19
ENDBRANCH  14  15
ENDBRANCH  12  14
ENDBRANCH   7   9
ENDBRANCH   6   7
BRANCH   6  26
HETATM   26  C17 UNL     1      -5.084   1.290  16.201  1.00  0.00     0.053 C 
HETATM   27  C18 UNL     1      -6.503   1.646  16.408  1.00  0.00     0.012 C 
HETATM   28  C19 UNL     1      -7.234   0.411  16.890  1.00  0.00     0.001 C 
HETATM   29  C20 UNL     1      -6.178  -0.635  17.156  1.00  0.00     0.001 C 
HETATM   30  C21 UNL     1      -4.858   0.052  17.056  1.00  0.00     0.012 C 
ENDBRANCH   6  26
ENDBRANCH   4   6
ENDBRANCH   3   4
TORSDOF 8
ENDMDL
MODEL 5
REMARK VINA RESULT: -7.119547242      1.579      2.079
REMARK  8 active torsions:
REMARK  status: ('A' for Active; 'I' for Inactive)
REMARK    1  A    between atoms: C2_3  and  N2_4 
REMARK    2  A    between atoms: N2_4  and  C3_6 
REMARK    3  A    between atoms: C3_6  and  N3_7 
REMARK    4  A    between atoms: C3_6  and  C17_26 
REMARK    5  A    between atoms: N3_7  and  C4_9 
REMARK    6  A    between atoms: N4_12  and  C7_13 
REMARK    7  A    between atoms: C7_13  and  C8_14 
REMARK       I    between atoms: C8_14  and  N5_16 
REMARK    8  A    between atoms: N5_16  and  C9_18 
ROOT
HETATM    1  N1  UNL     1      -5.330  -0.620  10.670  1.00  0.00    -0.191 NA
HETATM    2  C1  UNL     1      -4.842  -0.858  11.691  1.00  0.00     0.105 C 
HETATM    3  C2  UNL     1      -4.216  -1.133  12.989  1.00  0.00     0.183 C 
ENDROOT
BRANCH   3   4
HETATM    4  N2  UNL     1      -4.327  -0.173  13.946  1.00  0.00    -0.347 N 
ATOM      5  H2  UNL     1      -4.174  -0.695  14.810  1.00  0.00     0.167 HD
BRANCH   4   6
HETATM    6  C3  UNL     1      -4.506   0.948  14.340  1.00  0.00     0.082 C 
BRANCH   6   7
HETATM    7  N3  UNL     1      -4.367   2.033  13.388  1.00  0.00    -0.373 N 
ATOM      8  H3  UNL     1      -5.207   2.543  13.113  1.00  0.00     0.161 HD
BRANCH   7   9
HETATM    9  C4  UNL     1      -3.129   2.426  12.816  1.00  0.00     0.097 C 
HETATM   10  C5  UNL     1      -2.751   3.845  13.162  1.00  0.00     0.041 C 
HETATM   11  C6  UNL     1      -1.887   4.284  11.973  1.00  0.00     0.097 C 
HETATM   12  N4  UNL     1      -2.193   3.403  10.919  1.00  0.00    -0.286 NA
HETATM   13  C16 UNL     1      -3.269   2.516  11.314  1.00  0.00     0.120 C 
BRANCH  12  14
HETATM   14  C7  UNL     1      -2.314   3.897   9.606  1.00  0.00     0.134 C 
BRANCH  14  15
HETATM   15  C8  UNL     1      -3.558   4.526   9.204  1.00  0.00     0.252 C 
HETATM   16  O1  UNL     1      -4.099   4.060   8.131  1.00  0.00    -0.268 OA
HETATM   17  N5  UNL     1      -4.259   5.570   9.817  1.00  0.00    -0.352 N 
ATOM     18  H5  UNL     1      -3.865   5.968  10.669  1.00  0.00     0.163 HD
BRANCH  17  19
HETATM   19  C9  UNL     1      -5.497   6.125   9.332  1.00  0.00     0.084 C 
HETATM   20  C10 UNL     1      -5.346   7.538   8.892  1.00  0.00     0.025 C 
HETATM   21  C11 UNL     1      -4.594   8.436   9.811  1.00  0.00     0.002 C 
HETATM   22  C12 UNL     1      -5.334   8.926  11.003  1.00  0.00     0.000 C 
HETATM   23  C13 UNL     1      -6.650   8.241  11.265  1.00  0.00     0.000 C 
HETATM   24  C14 UNL     1      -6.365   6.795  11.582  1.00  0.00     0.002 C 
HETATM   25  C15 UNL     1      -6.621   6.008  10.320  1.00  0.00     0.025 C 
ENDBRANCH  17  19
ENDBRANCH  14  15
ENDBRANCH  12  14
ENDBRANCH   7   9
ENDBRANCH   6   7
BRANCH   6  26
HETATM   26  C17 UNL     1      -4.859   1.386  15.692  1.00  0.00     0.053 C 
HETATM   27  C18 UNL     1      -6.249   1.824  15.936  1.00  0.00     0.012 C 
HETATM   28  C19 UNL     1      -6.969   0.716  16.678  1.00  0.00     0.001 C 
HETATM   29  C20 UNL     1      -5.920  -0.305  17.045  1.00  0.00     0.001 C 
HETATM   30  C21 UNL     1      -4.596   0.306  16.732  1.00  0.00     0.012 C 
ENDBRANCH   6  26
ENDBRANCH   4   6
ENDBRANCH   3   4
TORSDOF 8
ENDMDL
