MODEL 1
REMARK VINA RESULT: -5.797055487      0.000      0.000
REMARK  5 active torsions:
REMARK  status: ('A' for Active; 'I' for Inactive)
REMARK    1  A    between atoms: N1_1  and  C1_4 
REMARK    2  A    between atoms: C2_7  and  C3_8 
REMARK    3  A    between atoms: N3_9  and  N4_11 
REMARK    4  A    between atoms: N4_11  and  C4_13 
REMARK    5  A    between atoms: N5_14  and  N6_16 
ROOT
HETATM    1  C1  UNL     1      80.844 -17.852  63.371  1.00  0.00     0.692 A 
HETATM    2  N2  UNL     1      81.893 -17.588  64.136  1.00  0.00    -0.173 N 
ATOM      3  H2  UNL     1      82.468 -18.275  64.624  1.00  0.00     0.186 HD
HETATM    4  C2  UNL     1      82.063 -16.257  64.156  1.00  0.00     0.152 A 
HETATM    5  N7  UNL     1      81.108 -15.695  63.396  1.00  0.00    -0.270 N 
ATOM      6  H7  UNL     1      80.981 -14.699  63.220  1.00  0.00     0.189 HD
HETATM    7  N8  UNL     1      80.363 -16.680  62.916  1.00  0.00    -0.131 N 
ATOM      8  H8  UNL     1      79.556 -16.569  62.302  1.00  0.00     0.205 HD
ENDROOT
BRANCH   4   9
HETATM    9  C3  UNL     1      83.131 -15.568  64.901  1.00  0.00     0.157 C 
HETATM   10  N3  UNL     1      83.287 -14.307  64.679  1.00  0.00    -0.307 N 
ATOM     11  H3  UNL     1      82.696 -13.807  64.016  1.00  0.00     0.186 HD
BRANCH  10  12
HETATM   12  N4  UNL     1      84.301 -13.652  65.386  1.00  0.00    -0.295 N 
ATOM     13  H4  UNL     1      85.284 -13.778  65.147  1.00  0.00     0.187 HD
BRANCH  12  14
HETATM   14  C4  UNL     1      83.896 -12.804  66.452  1.00  0.00     0.213 C 
HETATM   15  N5  UNL     1      84.328 -13.095  67.644  1.00  0.00    -0.301 N 
ATOM     16  H5  UNL     1      84.053 -12.502  68.426  1.00  0.00     0.187 HD
BRANCH  15  17
HETATM   17  N6  UNL     1      85.155 -14.190  67.887  1.00  0.00    -0.344 N 
ATOM     18  H62 UNL     1      85.054 -15.006  67.283  1.00  0.00     0.176 HD
ATOM     19  H61 UNL     1      85.844 -14.194  68.639  1.00  0.00     0.176 HD
ENDBRANCH  15  17
ENDBRANCH  12  14
ENDBRANCH  10  12
ENDBRANCH   4   9
BRANCH   1  20
HETATM   20  N1  UNL     1      80.300 -18.990  63.056  1.00  0.00    -0.233 N 
ATOM     21  H12 UNL     1      80.771 -19.666  62.455  1.00  0.00     0.174 HD
ATOM     22  H11 UNL     1      79.397 -19.383  63.321  1.00  0.00     0.174 HD
ENDBRANCH   1  20
TORSDOF 5
ENDMDL
MODEL 2
REMARK VINA RESULT: -5.702781412      1.096      6.036
REMARK  5 active torsions:
REMARK  status: ('A' for Active; 'I' for Inactive)
REMARK    1  A    between atoms: N1_1  and  C1_4 
REMARK    2  A    between atoms: C2_7  and  C3_8 
REMARK    3  A    between atoms: N3_9  and  N4_11 
REMARK    4  A    between atoms: N4_11  and  C4_13 
REMARK    5  A    between atoms: N5_14  and  N6_16 
ROOT
HETATM    1  C1  UNL     1      84.370 -13.043  66.555  1.00  0.00     0.692 A 
HETATM    2  N2  UNL     1      83.663 -13.525  65.545  1.00  0.00    -0.173 N 
ATOM      3  H2  UNL     1      83.063 -12.987  64.920  1.00  0.00     0.186 HD
HETATM    4  C2  UNL     1      83.874 -14.850  65.490  1.00  0.00     0.152 A 
HETATM    5  N7  UNL     1      84.721 -15.186  66.478  1.00  0.00    -0.270 N 
ATOM      6  H7  UNL     1      85.067 -16.122  66.687  1.00  0.00     0.189 HD
HETATM    7  N8  UNL     1      85.022 -14.072  67.128  1.00  0.00    -0.131 N 
ATOM      8  H8  UNL     1      85.647 -14.005  67.932  1.00  0.00     0.205 HD
ENDROOT
BRANCH   4   9
HETATM    9  C3  UNL     1      83.261 -15.747  64.496  1.00  0.00     0.157 C 
HETATM   10  N3  UNL     1      81.989 -15.948  64.586  1.00  0.00    -0.307 N 
ATOM     11  H3  UNL     1      81.432 -15.503  65.315  1.00  0.00     0.186 HD
BRANCH  10  12
HETATM   12  N4  UNL     1      81.406 -16.799  63.643  1.00  0.00    -0.295 N 
ATOM     13  H4  UNL     1      81.068 -16.452  62.746  1.00  0.00     0.187 HD
BRANCH  12  14
HETATM   14  C4  UNL     1      81.306 -18.174  63.994  1.00  0.00     0.213 C 
HETATM   15  N5  UNL     1      80.243 -18.814  63.603  1.00  0.00    -0.301 N 
ATOM     16  H5  UNL     1      80.147 -19.800  63.841  1.00  0.00     0.187 HD
BRANCH  15  17
HETATM   17  N6  UNL     1      79.233 -18.196  62.869  1.00  0.00    -0.344 N 
ATOM     18  H62 UNL     1      79.303 -17.190  62.715  1.00  0.00     0.176 HD
ATOM     19  H61 UNL     1      78.441 -18.716  62.490  1.00  0.00     0.176 HD
ENDBRANCH  15  17
ENDBRANCH  12  14
ENDBRANCH  10  12
ENDBRANCH   4   9
BRANCH   1  20
HETATM   20  N1  UNL     1      84.483 -11.825  66.994  1.00  0.00    -0.233 N 
ATOM     21  H12 UNL     1      85.370 -11.321  66.971  1.00  0.00     0.174 HD
ATOM     22  H11 UNL     1      83.783 -11.204  67.401  1.00  0.00     0.174 HD
ENDBRANCH   1  20
TORSDOF 5
ENDMDL
MODEL 3
REMARK VINA RESULT: -5.676152842      1.139      5.754
REMARK  5 active torsions:
REMARK  status: ('A' for Active; 'I' for Inactive)
REMARK    1  A    between atoms: N1_1  and  C1_4 
REMARK    2  A    between atoms: C2_7  and  C3_8 
REMARK    3  A    between atoms: N3_9  and  N4_11 
REMARK    4  A    between atoms: N4_11  and  C4_13 
REMARK    5  A    between atoms: N5_14  and  N6_16 
ROOT
HETATM    1  C1  UNL     1      84.100 -13.110  66.639  1.00  0.00     0.692 A 
HETATM    2  N2  UNL     1      83.993 -14.358  66.208  1.00  0.00    -0.173 N 
ATOM      3  H2  UNL     1      84.169 -15.200  66.755  1.00  0.00     0.186 HD
HETATM    4  C2  UNL     1      83.611 -14.316  64.922  1.00  0.00     0.152 A 
HETATM    5  N7  UNL     1      83.483 -13.029  64.558  1.00  0.00    -0.270 N 
ATOM      6  H7  UNL     1      83.206 -12.683  63.639  1.00  0.00     0.189 HD
HETATM    7  N8  UNL     1      83.785 -12.293  65.618  1.00  0.00    -0.131 N 
ATOM      8  H8  UNL     1      83.779 -11.273  65.653  1.00  0.00     0.205 HD
ENDROOT
BRANCH   4   9
HETATM    9  C3  UNL     1      83.382 -15.507  64.086  1.00  0.00     0.157 C 
HETATM   10  N3  UNL     1      82.509 -16.362  64.500  1.00  0.00    -0.307 N 
ATOM     11  H3  UNL     1      81.998 -16.219  65.371  1.00  0.00     0.186 HD
BRANCH  10  12
HETATM   12  N4  UNL     1      82.292 -17.492  63.707  1.00  0.00    -0.295 N 
ATOM     13  H4  UNL     1      82.934 -17.752  62.959  1.00  0.00     0.187 HD
BRANCH  12  14
HETATM   14  C4  UNL     1      81.132 -18.264  63.993  1.00  0.00     0.213 C 
HETATM   15  N5  UNL     1      80.043 -17.966  63.347  1.00  0.00    -0.301 N 
ATOM     16  H5  UNL     1      79.197 -18.505  63.533  1.00  0.00     0.187 HD
BRANCH  15  17
HETATM   17  N6  UNL     1      79.994 -16.937  62.409  1.00  0.00    -0.344 N 
ATOM     18  H62 UNL     1      79.490 -17.109  61.539  1.00  0.00     0.176 HD
ATOM     19  H61 UNL     1      80.440 -16.034  62.569  1.00  0.00     0.176 HD
ENDBRANCH  15  17
ENDBRANCH  12  14
ENDBRANCH  10  12
ENDBRANCH   4   9
BRANCH   1  20
HETATM   20  N1  UNL     1      84.439 -12.653  67.808  1.00  0.00    -0.233 N 
ATOM     21  H12 UNL     1      83.757 -12.516  68.554  1.00  0.00     0.174 HD
ATOM     22  H11 UNL     1      85.353 -12.374  68.166  1.00  0.00     0.174 HD
ENDBRANCH   1  20
TORSDOF 5
ENDMDL
MODEL 4
REMARK VINA RESULT: -5.671057894      1.048      1.182
REMARK  5 active torsions:
REMARK  status: ('A' for Active; 'I' for Inactive)
REMARK    1  A    between atoms: N1_1  and  C1_4 
REMARK    2  A    between atoms: C2_7  and  C3_8 
REMARK    3  A    between atoms: N3_9  and  N4_11 
REMARK    4  A    between atoms: N4_11  and  C4_13 
REMARK    5  A    between atoms: N5_14  and  N6_16 
ROOT
HETATM    1  C1  UNL     1      80.769 -18.178  63.663  1.00  0.00     0.692 A 
HETATM    2  N2  UNL     1      81.838 -17.554  64.134  1.00  0.00    -0.173 N 
ATOM      3  H2  UNL     1      82.548 -17.956  64.746  1.00  0.00     0.186 HD
HETATM    4  C2  UNL     1      81.821 -16.297  63.662  1.00  0.00     0.152 A 
HETATM    5  N7  UNL     1      80.729 -16.148  62.893  1.00  0.00    -0.270 N 
ATOM      6  H7  UNL     1      80.447 -15.301  62.399  1.00  0.00     0.189 HD
HETATM    7  N8  UNL     1      80.088 -17.307  62.898  1.00  0.00    -0.131 N 
ATOM      8  H8  UNL     1      79.218 -17.505  62.402  1.00  0.00     0.205 HD
ENDROOT
BRANCH   4   9
HETATM    9  C3  UNL     1      82.847 -15.285  63.961  1.00  0.00     0.157 C 
HETATM   10  N3  UNL     1      83.596 -15.488  64.992  1.00  0.00    -0.307 N 
ATOM     11  H3  UNL     1      83.481 -16.317  65.577  1.00  0.00     0.186 HD
BRANCH  10  12
HETATM   12  N4  UNL     1      84.570 -14.528  65.277  1.00  0.00    -0.295 N 
ATOM     13  H4  UNL     1      84.587 -13.626  64.802  1.00  0.00     0.187 HD
BRANCH  12  14
HETATM   14  C4  UNL     1      85.538 -14.866  66.262  1.00  0.00     0.213 C 
HETATM   15  N5  UNL     1      85.438 -14.286  67.422  1.00  0.00    -0.301 N 
ATOM     16  H5  UNL     1      86.120 -14.512  68.146  1.00  0.00     0.187 HD
BRANCH  15  17
HETATM   17  N6  UNL     1      84.431 -13.367  67.708  1.00  0.00    -0.344 N 
ATOM     18  H62 UNL     1      83.757 -13.154  66.972  1.00  0.00     0.176 HD
ATOM     19  H61 UNL     1      84.354 -12.911  68.617  1.00  0.00     0.176 HD
ENDBRANCH  15  17
ENDBRANCH  12  14
ENDBRANCH  10  12
ENDBRANCH   4   9
BRANCH   1  20
HETATM   20  N1  UNL     1      80.363 -19.400  63.846  1.00  0.00    -0.233 N 
ATOM     21  H12 UNL     1      80.032 -19.730  64.753  1.00  0.00     0.174 HD
ATOM     22  H11 UNL     1      80.304 -20.179  63.190  1.00  0.00     0.174 HD
ENDBRANCH   1  20
TORSDOF 5
ENDMDL
MODEL 5
REMARK VINA RESULT: -5.583278906      1.209      5.822
REMARK  5 active torsions:
REMARK  status: ('A' for Active; 'I' for Inactive)
REMARK    1  A    between atoms: N1_1  and  C1_4 
REMARK    2  A    between atoms: C2_7  and  C3_8 
REMARK    3  A    between atoms: N3_9  and  N4_11 
REMARK    4  A    between atoms: N4_11  and  C4_13 
REMARK    5  A    between atoms: N5_14  and  N6_16 
ROOT
HETATM    1  C1  UNL     1      84.098 -12.993  66.648  1.00  0.00     0.692 A 
HETATM    2  N2  UNL     1      83.967 -14.280  66.365  1.00  0.00    -0.173 N 
ATOM      3  H2  UNL     1      84.147 -15.057  67.002  1.00  0.00     0.186 HD
HETATM    4  C2  UNL     1      83.556 -14.381  65.091  1.00  0.00     0.152 A 
HETATM    5  N7  UNL     1      83.435 -13.143  64.585  1.00  0.00    -0.270 N 
ATOM      6  H7  UNL     1      83.140 -12.901  63.639  1.00  0.00     0.189 HD
HETATM    7  N8  UNL     1      83.768 -12.295  65.546  1.00  0.00    -0.131 N 
ATOM      8  H8  UNL     1      83.774 -11.278  65.464  1.00  0.00     0.205 HD
ENDROOT
BRANCH   4   9
HETATM    9  C3  UNL     1      83.295 -15.657  64.403  1.00  0.00     0.157 C 
HETATM   10  N3  UNL     1      82.231 -16.304  64.739  1.00  0.00    -0.307 N 
ATOM     11  H3  UNL     1      81.596 -15.946  65.453  1.00  0.00     0.186 HD
BRANCH  10  12
HETATM   12  N4  UNL     1      81.982 -17.514  64.086  1.00  0.00    -0.295 N 
ATOM     13  H4  UNL     1      82.626 -18.302  64.159  1.00  0.00     0.187 HD
BRANCH  12  14
HETATM   14  C4  UNL     1      80.790 -17.596  63.316  1.00  0.00     0.213 C 
HETATM   15  N5  UNL     1      80.038 -18.643  63.490  1.00  0.00    -0.301 N 
ATOM     16  H5  UNL     1      79.177 -18.726  62.950  1.00  0.00     0.187 HD
BRANCH  15  17
HETATM   17  N6  UNL     1      80.368 -19.653  64.390  1.00  0.00    -0.344 N 
ATOM     18  H62 UNL     1      81.101 -19.462  65.074  1.00  0.00     0.176 HD
ATOM     19  H61 UNL     1      79.903 -20.562  64.382  1.00  0.00     0.176 HD
ENDBRANCH  15  17
ENDBRANCH  12  14
ENDBRANCH  10  12
ENDBRANCH   4   9
BRANCH   1  20
HETATM   20  N1  UNL     1      84.469 -12.410  67.749  1.00  0.00    -0.233 N 
ATOM     21  H12 UNL     1      83.818 -12.233  68.514  1.00  0.00     0.174 HD
ATOM     22  H11 UNL     1      85.384 -12.055  68.030  1.00  0.00     0.174 HD
ENDBRANCH   1  20
TORSDOF 5
ENDMDL
