MODEL 1
REMARK VINA RESULT: -7.746039940      0.000      0.000
REMARK  3 active torsions:
REMARK  status: ('A' for Active; 'I' for Inactive)
REMARK    1  A    between atoms: N1_1  and  C1_5 
REMARK    2  A    between atoms: C1_5  and  C2_6 
REMARK    3  A    between atoms: C4_8  and  C5_9 
ROOT
HETATM    1  C2  UNL     1      82.316 -15.793  63.937  1.00  0.00     0.103 A 
HETATM    2  C3  UNL     1      83.067 -14.637  64.023  1.00  0.00     0.066 A 
HETATM    3  C4  UNL     1      83.512 -14.551  65.337  1.00  0.00     0.072 A 
HETATM    4  N6  UNL     1      83.009 -15.640  65.944  1.00  0.00    -0.262 N 
ATOM      5  H6  UNL     1      83.155 -15.875  66.926  1.00  0.00     0.194 HD
HETATM    6  O1  UNL     1      82.313 -16.351  65.107  1.00  0.00    -0.240 OA
ENDROOT
BRANCH   1   7
HETATM    7  C1  UNL     1      81.628 -16.306  62.706  1.00  0.00     0.296 C 
BRANCH   7   8
HETATM    8  N1  UNL     1      80.316 -15.700  62.615  1.00  0.00    -0.073 N 
ATOM      9  H13 UNL     1      79.572 -16.339  62.898  1.00  0.00     0.274 HD
ATOM     10  H12 UNL     1      80.167 -14.985  63.327  1.00  0.00     0.274 HD
ATOM     11  H11 UNL     1      80.182 -15.341  61.670  1.00  0.00     0.274 HD
ENDBRANCH   7   8
ENDBRANCH   1   7
BRANCH   3  12
HETATM   12  C5  UNL     1      84.356 -13.494  65.947  1.00  0.00     0.258 C 
HETATM   13  N2  UNL     1      83.920 -13.290  67.331  1.00  0.00    -0.099 NA
HETATM   14  N3  UNL     1      84.351 -12.005  67.614  1.00  0.00    -0.019 NA
HETATM   15  N4  UNL     1      84.568 -11.351  66.405  1.00  0.00    -0.019 NA
HETATM   16  N5  UNL     1      84.041 -12.175  65.397  1.00  0.00    -0.099 NA
ENDBRANCH   3  12
TORSDOF 3
ENDMDL
MODEL 2
REMARK VINA RESULT: -7.533375912      1.274      1.667
REMARK  3 active torsions:
REMARK  status: ('A' for Active; 'I' for Inactive)
REMARK    1  A    between atoms: N1_1  and  C1_5 
REMARK    2  A    between atoms: C1_5  and  C2_6 
REMARK    3  A    between atoms: C4_8  and  C5_9 
ROOT
HETATM    1  C2  UNL     1      83.110 -16.249  64.309  1.00  0.00     0.103 A 
HETATM    2  C3  UNL     1      82.562 -15.221  65.052  1.00  0.00     0.066 A 
HETATM    3  C4  UNL     1      83.614 -14.384  65.405  1.00  0.00     0.072 A 
HETATM    4  N6  UNL     1      84.705 -14.952  64.863  1.00  0.00    -0.262 N 
ATOM      5  H6  UNL     1      85.651 -14.579  64.939  1.00  0.00     0.194 HD
HETATM    6  O1  UNL     1      84.387 -16.041  64.227  1.00  0.00    -0.240 OA
ENDROOT
BRANCH   1   7
HETATM    7  C1  UNL     1      82.356 -17.398  63.707  1.00  0.00     0.296 C 
BRANCH   7   8
HETATM    8  N1  UNL     1      80.959 -17.035  63.593  1.00  0.00    -0.073 N 
ATOM      9  H13 UNL     1      80.378 -17.495  64.295  1.00  0.00     0.274 HD
ATOM     10  H12 UNL     1      80.783 -16.070  63.874  1.00  0.00     0.274 HD
ATOM     11  H11 UNL     1      80.645 -17.226  62.642  1.00  0.00     0.274 HD
ENDBRANCH   7   8
ENDBRANCH   1   7
BRANCH   3  12
HETATM   12  C5  UNL     1      83.557 -13.136  66.205  1.00  0.00     0.258 C 
HETATM   13  N2  UNL     1      84.342 -12.106  65.519  1.00  0.00    -0.099 NA
HETATM   14  N3  UNL     1      84.670 -11.226  66.536  1.00  0.00    -0.019 NA
HETATM   15  N4  UNL     1      84.528 -11.899  67.746  1.00  0.00    -0.019 NA
HETATM   16  N5  UNL     1      84.339 -13.256  67.437  1.00  0.00    -0.099 NA
ENDBRANCH   3  12
TORSDOF 3
ENDMDL
MODEL 3
REMARK VINA RESULT: -7.483695838      1.270      1.306
REMARK  3 active torsions:
REMARK  status: ('A' for Active; 'I' for Inactive)
REMARK    1  A    between atoms: N1_1  and  C1_5 
REMARK    2  A    between atoms: C1_5  and  C2_6 
REMARK    3  A    between atoms: C4_8  and  C5_9 
ROOT
HETATM    1  C2  UNL     1      82.383 -15.984  64.349  1.00  0.00     0.103 A 
HETATM    2  C3  UNL     1      83.246 -15.600  65.357  1.00  0.00     0.066 A 
HETATM    3  C4  UNL     1      83.508 -14.249  65.162  1.00  0.00     0.072 A 
HETATM    4  N6  UNL     1      82.799 -13.915  64.070  1.00  0.00    -0.262 N 
ATOM      5  H6  UNL     1      82.774 -12.982  63.658  1.00  0.00     0.194 HD
HETATM    6  O1  UNL     1      82.150 -14.944  63.611  1.00  0.00    -0.240 OA
ENDROOT
BRANCH   1   7
HETATM    7  C1  UNL     1      81.821 -17.361  64.149  1.00  0.00     0.296 C 
BRANCH   7   8
HETATM    8  N1  UNL     1      80.614 -17.263  63.355  1.00  0.00    -0.073 N 
ATOM      9  H13 UNL     1      80.315 -18.167  62.988  1.00  0.00     0.274 HD
ATOM     10  H12 UNL     1      79.790 -17.061  63.922  1.00  0.00     0.274 HD
ATOM     11  H11 UNL     1      80.758 -16.573  62.618  1.00  0.00     0.274 HD
ENDBRANCH   7   8
ENDBRANCH   1   7
BRANCH   3  12
HETATM   12  C5  UNL     1      84.376 -13.362  65.972  1.00  0.00     0.258 C 
HETATM   13  N2  UNL     1      83.791 -13.232  67.310  1.00  0.00    -0.099 NA
HETATM   14  N3  UNL     1      84.319 -12.038  67.773  1.00  0.00    -0.019 NA
HETATM   15  N4  UNL     1      84.759 -11.309  66.672  1.00  0.00    -0.019 NA
HETATM   16  N5  UNL     1      84.279 -11.970  65.529  1.00  0.00    -0.099 NA
ENDBRANCH   3  12
TORSDOF 3
ENDMDL
MODEL 4
REMARK VINA RESULT: -6.491632252      1.612      1.827
REMARK  3 active torsions:
REMARK  status: ('A' for Active; 'I' for Inactive)
REMARK    1  A    between atoms: N1_1  and  C1_5 
REMARK    2  A    between atoms: C1_5  and  C2_6 
REMARK    3  A    between atoms: C4_8  and  C5_9 
ROOT
HETATM    1  C2  UNL     1      82.035 -16.601  64.001  1.00  0.00     0.103 A 
HETATM    2  C3  UNL     1      82.583 -16.104  65.168  1.00  0.00     0.066 A 
HETATM    3  C4  UNL     1      82.948 -14.789  64.905  1.00  0.00     0.072 A 
HETATM    4  N6  UNL     1      82.603 -14.584  63.622  1.00  0.00    -0.262 N 
ATOM      5  H6  UNL     1      82.739 -13.708  63.118  1.00  0.00     0.194 HD
HETATM    6  O1  UNL     1      82.072 -15.657  63.113  1.00  0.00    -0.240 OA
ENDROOT
BRANCH   1   7
HETATM    7  C1  UNL     1      81.497 -17.988  63.802  1.00  0.00     0.296 C 
BRANCH   7   8
HETATM    8  N1  UNL     1      80.131 -17.897  63.330  1.00  0.00    -0.073 N 
ATOM      9  H13 UNL     1      79.802 -18.772  62.921  1.00  0.00     0.274 HD
ATOM     10  H12 UNL     1      79.458 -17.836  64.094  1.00  0.00     0.274 HD
ATOM     11  H11 UNL     1      80.056 -17.112  62.683  1.00  0.00     0.274 HD
ENDBRANCH   7   8
ENDBRANCH   1   7
BRANCH   3  12
HETATM   12  C5  UNL     1      83.580 -13.816  65.829  1.00  0.00     0.258 C 
HETATM   13  N2  UNL     1      83.271 -12.461  65.362  1.00  0.00    -0.099 NA
HETATM   14  N3  UNL     1      84.286 -11.697  65.912  1.00  0.00    -0.019 NA
HETATM   15  N4  UNL     1      85.334 -12.551  66.243  1.00  0.00    -0.019 NA
HETATM   16  N5  UNL     1      85.035 -13.800  65.674  1.00  0.00    -0.099 NA
ENDBRANCH   3  12
TORSDOF 3
ENDMDL
MODEL 5
REMARK VINA RESULT: -6.315507436      0.994      1.209
REMARK  3 active torsions:
REMARK  status: ('A' for Active; 'I' for Inactive)
REMARK    1  A    between atoms: N1_1  and  C1_5 
REMARK    2  A    between atoms: C1_5  and  C2_6 
REMARK    3  A    between atoms: C4_8  and  C5_9 
ROOT
HETATM    1  C2  UNL     1      81.973 -15.977  63.492  1.00  0.00     0.103 A 
HETATM    2  C3  UNL     1      82.568 -14.771  63.808  1.00  0.00     0.066 A 
HETATM    3  C4  UNL     1      82.914 -14.841  65.152  1.00  0.00     0.072 A 
HETATM    4  N6  UNL     1      82.512 -16.060  65.550  1.00  0.00    -0.262 N 
ATOM      5  H6  UNL     1      82.622 -16.427  66.495  1.00  0.00     0.194 HD
HETATM    6  O1  UNL     1      81.964 -16.707  64.564  1.00  0.00    -0.240 OA
ENDROOT
BRANCH   1   7
HETATM    7  C1  UNL     1      81.434 -16.367  62.147  1.00  0.00     0.296 C 
BRANCH   7   8
HETATM    8  N1  UNL     1      79.995 -16.206  62.154  1.00  0.00    -0.073 N 
ATOM      9  H13 UNL     1      79.526 -16.873  61.540  1.00  0.00     0.274 HD
ATOM     10  H12 UNL     1      79.574 -16.504  63.034  1.00  0.00     0.274 HD
ATOM     11  H11 UNL     1      79.769 -15.239  61.923  1.00  0.00     0.274 HD
ENDBRANCH   7   8
ENDBRANCH   1   7
BRANCH   3  12
HETATM   12  C5  UNL     1      83.580 -13.804  65.977  1.00  0.00     0.258 C 
HETATM   13  N2  UNL     1      83.259 -12.487  65.421  1.00  0.00    -0.099 NA
HETATM   14  N3  UNL     1      84.295 -11.688  65.876  1.00  0.00    -0.019 NA
HETATM   15  N4  UNL     1      85.351 -12.521  66.234  1.00  0.00    -0.019 NA
HETATM   16  N5  UNL     1      85.029 -13.807  65.772  1.00  0.00    -0.099 NA
ENDBRANCH   3  12
TORSDOF 3
ENDMDL
