MODEL 1
REMARK VINA RESULT: -7.416387075      0.000      0.000
REMARK  13 active torsions:
REMARK  status: ('A' for Active; 'I' for Inactive)
REMARK    1  A    between atoms: C2_2  and  C3_3 
REMARK    2  A    between atoms: C3_3  and  C4_4 
REMARK    3  A    between atoms: C4_4  and  C5_5 
REMARK    4  A    between atoms: C6_6  and  C7_7 
REMARK    5  A    between atoms: C6_6  and  C15_17 
REMARK    6  A    between atoms: C7_7  and  C8_8 
REMARK    7  A    between atoms: C8_8  and  S1_9 
REMARK    8  A    between atoms: S1_9  and  C9_10 
REMARK    9  A    between atoms: C9_10  and  C10_11 
REMARK   10  A    between atoms: C10_11  and  N1_12 
REMARK   11  A    between atoms: C15_17  and  O1_18 
REMARK   12  A    between atoms: O1_18  and  C16_19 
REMARK   13  A    between atoms: C16_19  and  C17_21 
ROOT
HETATM    1  C5  UNL     1      32.581  33.648  13.994  1.00  0.00    -0.022 C 
HETATM    2  C6  UNL     1      31.580  34.201  14.623  1.00  0.00    -0.059 C 
ENDROOT
BRANCH   2   3
HETATM    3  C7  UNL     1      30.473  33.457  15.298  1.00  0.00     0.046 C 
BRANCH   3   4
HETATM    4  C8  UNL     1      29.382  33.052  14.336  1.00  0.00     0.078 C 
BRANCH   4   5
HETATM    5  S1  UNL     1      28.884  31.331  14.733  1.00  0.00    -0.167 SA
BRANCH   5   6
HETATM    6  C9  UNL     1      29.962  30.795  16.113  1.00  0.00     0.104 C 
BRANCH   6   7
HETATM    7  C10 UNL     1      29.164  29.812  16.936  1.00  0.00     0.282 C 
BRANCH   7   8
HETATM    8  N1  UNL     1      29.868  28.592  17.185  1.00  0.00     0.089 N 
HETATM    9  C11 UNL     1      30.339  28.047  15.929  1.00  0.00     0.272 C 
HETATM   10  C12 UNL     1      29.183  27.224  15.452  1.00  0.00     0.032 C 
HETATM   11  C13 UNL     1      28.275  26.996  16.628  1.00  0.00     0.032 C 
HETATM   12  C14 UNL     1      29.084  27.556  17.779  1.00  0.00     0.272 C 
ENDBRANCH   7   8
ENDBRANCH   6   7
ENDBRANCH   5   6
ENDBRANCH   4   5
ENDBRANCH   3   4
ENDBRANCH   2   3
BRANCH   2  13
HETATM   13  C15 UNL     1      31.401  35.701  14.709  1.00  0.00     0.212 C 
BRANCH  13  14
HETATM   14  O1  UNL     1      32.517  36.473  14.467  1.00  0.00    -0.317 OA
BRANCH  14  15
HETATM   15  C16 UNL     1      32.554  37.382  13.423  1.00  0.00     0.263 C 
HETATM   16  O2  UNL     1      32.019  37.180  12.305  1.00  0.00    -0.265 OA
BRANCH  15  17
HETATM   17  C17 UNL     1      33.264  38.665  13.639  1.00  0.00     0.085 C 
HETATM   18  C18 UNL     1      32.376  39.764  14.189  1.00  0.00     0.014 C 
HETATM   19  C19 UNL     1      33.553  40.159  15.085  1.00  0.00     0.002 C 
HETATM   20  C20 UNL     1      33.998  38.695  14.986  1.00  0.00     0.014 C 
ENDBRANCH  15  17
ENDBRANCH  14  15
ENDBRANCH  13  14
ENDBRANCH   2  13
BRANCH   1  21
HETATM   21  C4  UNL     1      32.793  32.221  13.837  1.00  0.00     0.027 C 
BRANCH  21  22
HETATM   22  C3  UNL     1      33.723  31.880  12.683  1.00  0.00     0.003 C 
BRANCH  22  23
HETATM   23  C2  UNL     1      33.710  30.349  12.580  1.00  0.00    -0.004 C 
HETATM   24  C1  UNL     1      32.501  29.771  13.252  1.00  0.00     0.005 C 
ENDBRANCH  22  23
ENDBRANCH  21  22
ENDBRANCH   1  21
TORSDOF 13
ENDMDL
MODEL 2
REMARK VINA RESULT: -7.357192759      1.130      1.424
REMARK  13 active torsions:
REMARK  status: ('A' for Active; 'I' for Inactive)
REMARK    1  A    between atoms: C2_2  and  C3_3 
REMARK    2  A    between atoms: C3_3  and  C4_4 
REMARK    3  A    between atoms: C4_4  and  C5_5 
REMARK    4  A    between atoms: C6_6  and  C7_7 
REMARK    5  A    between atoms: C6_6  and  C15_17 
REMARK    6  A    between atoms: C7_7  and  C8_8 
REMARK    7  A    between atoms: C8_8  and  S1_9 
REMARK    8  A    between atoms: S1_9  and  C9_10 
REMARK    9  A    between atoms: C9_10  and  C10_11 
REMARK   10  A    between atoms: C10_11  and  N1_12 
REMARK   11  A    between atoms: C15_17  and  O1_18 
REMARK   12  A    between atoms: O1_18  and  C16_19 
REMARK   13  A    between atoms: C16_19  and  C17_21 
ROOT
HETATM    1  C5  UNL     1      32.961  33.224  13.080  1.00  0.00    -0.022 C 
HETATM    2  C6  UNL     1      32.043  33.795  13.810  1.00  0.00    -0.059 C 
ENDROOT
BRANCH   2   3
HETATM    3  C7  UNL     1      31.629  33.348  15.176  1.00  0.00     0.046 C 
BRANCH   3   4
HETATM    4  C8  UNL     1      30.289  32.654  15.172  1.00  0.00     0.078 C 
BRANCH   4   5
HETATM    5  S1  UNL     1      30.426  31.148  16.213  1.00  0.00    -0.167 SA
BRANCH   5   6
HETATM    6  C9  UNL     1      28.851  30.237  15.997  1.00  0.00     0.104 C 
BRANCH   6   7
HETATM    7  C10 UNL     1      29.204  28.879  15.440  1.00  0.00     0.282 C 
BRANCH   7   8
HETATM    8  N1  UNL     1      29.555  27.935  16.455  1.00  0.00     0.089 N 
HETATM    9  C11 UNL     1      30.299  26.845  15.859  1.00  0.00     0.272 C 
HETATM   10  C12 UNL     1      29.229  25.896  15.415  1.00  0.00     0.032 C 
HETATM   11  C13 UNL     1      27.964  26.272  16.135  1.00  0.00     0.032 C 
HETATM   12  C14 UNL     1      28.446  27.321  17.115  1.00  0.00     0.272 C 
ENDBRANCH   7   8
ENDBRANCH   6   7
ENDBRANCH   5   6
ENDBRANCH   4   5
ENDBRANCH   3   4
ENDBRANCH   2   3
BRANCH   2  13
HETATM   13  C15 UNL     1      31.243  34.986  13.328  1.00  0.00     0.212 C 
BRANCH  13  14
HETATM   14  O1  UNL     1      31.909  36.190  13.255  1.00  0.00    -0.317 OA
BRANCH  14  15
HETATM   15  C16 UNL     1      32.044  37.010  14.364  1.00  0.00     0.263 C 
HETATM   16  O2  UNL     1      31.359  36.885  15.408  1.00  0.00    -0.265 OA
BRANCH  15  17
HETATM   17  C17 UNL     1      33.056  38.091  14.313  1.00  0.00     0.085 C 
HETATM   18  C18 UNL     1      32.912  39.000  13.108  1.00  0.00     0.014 C 
HETATM   19  C19 UNL     1      33.230  40.166  14.047  1.00  0.00     0.002 C 
HETATM   20  C20 UNL     1      32.651  39.298  15.170  1.00  0.00     0.014 C 
ENDBRANCH  15  17
ENDBRANCH  14  15
ENDBRANCH  13  14
ENDBRANCH   2  13
BRANCH   1  21
HETATM   21  C4  UNL     1      33.736  32.058  13.462  1.00  0.00     0.027 C 
BRANCH  21  22
HETATM   22  C3  UNL     1      33.464  30.847  12.583  1.00  0.00     0.003 C 
BRANCH  22  23
HETATM   23  C2  UNL     1      32.296  30.106  13.248  1.00  0.00    -0.004 C 
HETATM   24  C1  UNL     1      32.716  28.747  13.720  1.00  0.00     0.005 C 
ENDBRANCH  22  23
ENDBRANCH  21  22
ENDBRANCH   1  21
TORSDOF 13
ENDMDL
MODEL 3
REMARK VINA RESULT: -7.293976577      1.219      1.388
REMARK  13 active torsions:
REMARK  status: ('A' for Active; 'I' for Inactive)
REMARK    1  A    between atoms: C2_2  and  C3_3 
REMARK    2  A    between atoms: C3_3  and  C4_4 
REMARK    3  A    between atoms: C4_4  and  C5_5 
REMARK    4  A    between atoms: C6_6  and  C7_7 
REMARK    5  A    between atoms: C6_6  and  C15_17 
REMARK    6  A    between atoms: C7_7  and  C8_8 
REMARK    7  A    between atoms: C8_8  and  S1_9 
REMARK    8  A    between atoms: S1_9  and  C9_10 
REMARK    9  A    between atoms: C9_10  and  C10_11 
REMARK   10  A    between atoms: C10_11  and  N1_12 
REMARK   11  A    between atoms: C15_17  and  O1_18 
REMARK   12  A    between atoms: O1_18  and  C16_19 
REMARK   13  A    between atoms: C16_19  and  C17_21 
ROOT
HETATM    1  C5  UNL     1      32.372  34.604  13.273  1.00  0.00    -0.022 C 
HETATM    2  C6  UNL     1      31.845  34.842  14.443  1.00  0.00    -0.059 C 
ENDROOT
BRANCH   2   3
HETATM    3  C7  UNL     1      31.364  33.798  15.398  1.00  0.00     0.046 C 
BRANCH   3   4
HETATM    4  C8  UNL     1      30.109  33.113  14.917  1.00  0.00     0.078 C 
BRANCH   4   5
HETATM    5  S1  UNL     1      30.052  31.438  15.665  1.00  0.00    -0.167 SA
BRANCH   5   6
HETATM    6  C9  UNL     1      29.004  30.422  14.558  1.00  0.00     0.104 C 
BRANCH   6   7
HETATM    7  C10 UNL     1      29.014  29.019  15.113  1.00  0.00     0.282 C 
BRANCH   7   8
HETATM    8  N1  UNL     1      30.258  28.345  14.905  1.00  0.00     0.089 N 
HETATM    9  C11 UNL     1      30.052  27.220  14.018  1.00  0.00     0.272 C 
HETATM   10  C12 UNL     1      29.664  26.112  14.948  1.00  0.00     0.032 C 
HETATM   11  C13 UNL     1      30.066  26.525  16.336  1.00  0.00     0.032 C 
HETATM   12  C14 UNL     1      30.849  27.796  16.084  1.00  0.00     0.272 C 
ENDBRANCH   7   8
ENDBRANCH   6   7
ENDBRANCH   5   6
ENDBRANCH   4   5
ENDBRANCH   3   4
ENDBRANCH   2   3
BRANCH   2  13
HETATM   13  C15 UNL     1      31.621  36.246  14.964  1.00  0.00     0.212 C 
BRANCH  13  14
HETATM   14  O1  UNL     1      32.646  37.147  14.777  1.00  0.00    -0.317 OA
BRANCH  14  15
HETATM   15  C16 UNL     1      32.556  38.158  13.835  1.00  0.00     0.263 C 
HETATM   16  O2  UNL     1      32.197  37.972  12.646  1.00  0.00    -0.265 OA
BRANCH  15  17
HETATM   17  C17 UNL     1      32.901  39.537  14.256  1.00  0.00     0.085 C 
HETATM   18  C18 UNL     1      31.960  40.105  15.301  1.00  0.00     0.014 C 
HETATM   19  C19 UNL     1      33.197  40.704  15.976  1.00  0.00     0.002 C 
HETATM   20  C20 UNL     1      33.985  39.552  15.342  1.00  0.00     0.014 C 
ENDBRANCH  15  17
ENDBRANCH  14  15
ENDBRANCH  13  14
ENDBRANCH   2  13
BRANCH   1  21
HETATM   21  C4  UNL     1      32.578  33.289  12.694  1.00  0.00     0.027 C 
BRANCH  21  22
HETATM   22  C3  UNL     1      33.678  32.500  13.387  1.00  0.00     0.003 C 
BRANCH  22  23
HETATM   23  C2  UNL     1      33.735  31.147  12.664  1.00  0.00    -0.004 C 
HETATM   24  C1  UNL     1      32.656  30.227  13.151  1.00  0.00     0.005 C 
ENDBRANCH  22  23
ENDBRANCH  21  22
ENDBRANCH   1  21
TORSDOF 13
ENDMDL
MODEL 4
REMARK VINA RESULT: -7.241515841      1.289      1.921
REMARK  13 active torsions:
REMARK  status: ('A' for Active; 'I' for Inactive)
REMARK    1  A    between atoms: C2_2  and  C3_3 
REMARK    2  A    between atoms: C3_3  and  C4_4 
REMARK    3  A    between atoms: C4_4  and  C5_5 
REMARK    4  A    between atoms: C6_6  and  C7_7 
REMARK    5  A    between atoms: C6_6  and  C15_17 
REMARK    6  A    between atoms: C7_7  and  C8_8 
REMARK    7  A    between atoms: C8_8  and  S1_9 
REMARK    8  A    between atoms: S1_9  and  C9_10 
REMARK    9  A    between atoms: C9_10  and  C10_11 
REMARK   10  A    between atoms: C10_11  and  N1_12 
REMARK   11  A    between atoms: C15_17  and  O1_18 
REMARK   12  A    between atoms: O1_18  and  C16_19 
REMARK   13  A    between atoms: C16_19  and  C17_21 
ROOT
HETATM    1  C5  UNL     1      33.031  33.006  12.831  1.00  0.00    -0.022 C 
HETATM    2  C6  UNL     1      32.194  33.655  13.594  1.00  0.00    -0.059 C 
ENDROOT
BRANCH   2   3
HETATM    3  C7  UNL     1      31.812  33.258  14.983  1.00  0.00     0.046 C 
BRANCH   3   4
HETATM    4  C8  UNL     1      30.337  33.441  15.249  1.00  0.00     0.078 C 
BRANCH   4   5
HETATM    5  S1  UNL     1      29.444  32.022  14.502  1.00  0.00    -0.167 SA
BRANCH   5   6
HETATM    6  C9  UNL     1      28.890  30.978  15.900  1.00  0.00     0.104 C 
BRANCH   6   7
HETATM    7  C10 UNL     1      30.134  30.525  16.627  1.00  0.00     0.282 C 
BRANCH   7   8
HETATM    8  N1  UNL     1      29.927  29.338  17.399  1.00  0.00     0.089 N 
HETATM    9  C11 UNL     1      30.601  29.473  18.673  1.00  0.00     0.272 C 
HETATM   10  C12 UNL     1      31.987  28.985  18.385  1.00  0.00     0.032 C 
HETATM   11  C13 UNL     1      31.936  28.212  17.096  1.00  0.00     0.032 C 
HETATM   12  C14 UNL     1      30.449  28.143  16.816  1.00  0.00     0.272 C 
ENDBRANCH   7   8
ENDBRANCH   6   7
ENDBRANCH   5   6
ENDBRANCH   4   5
ENDBRANCH   3   4
ENDBRANCH   2   3
BRANCH   2  13
HETATM   13  C15 UNL     1      31.466  34.898  13.130  1.00  0.00     0.212 C 
BRANCH  13  14
HETATM   14  O1  UNL     1      32.191  36.071  13.116  1.00  0.00    -0.317 OA
BRANCH  14  15
HETATM   15  C16 UNL     1      32.155  36.955  14.181  1.00  0.00     0.263 C 
HETATM   16  O2  UNL     1      31.335  36.871  15.128  1.00  0.00    -0.265 OA
BRANCH  15  17
HETATM   17  C17 UNL     1      33.141  38.061  14.203  1.00  0.00     0.085 C 
HETATM   18  C18 UNL     1      32.956  39.062  13.079  1.00  0.00     0.014 C 
HETATM   19  C19 UNL     1      33.265  40.155  14.106  1.00  0.00     0.002 C 
HETATM   20  C20 UNL     1      32.724  39.184  15.163  1.00  0.00     0.014 C 
ENDBRANCH  15  17
ENDBRANCH  14  15
ENDBRANCH  13  14
ENDBRANCH   2  13
BRANCH   1  21
HETATM   21  C4  UNL     1      33.732  31.789  13.195  1.00  0.00     0.027 C 
BRANCH  21  22
HETATM   22  C3  UNL     1      33.121  30.542  12.576  1.00  0.00     0.003 C 
BRANCH  22  23
HETATM   23  C2  UNL     1      32.469  29.779  13.736  1.00  0.00    -0.004 C 
HETATM   24  C1  UNL     1      31.199  29.111  13.300  1.00  0.00     0.005 C 
ENDBRANCH  22  23
ENDBRANCH  21  22
ENDBRANCH   1  21
TORSDOF 13
ENDMDL
MODEL 5
REMARK VINA RESULT: -7.227513377      2.667      4.113
REMARK  13 active torsions:
REMARK  status: ('A' for Active; 'I' for Inactive)
REMARK    1  A    between atoms: C2_2  and  C3_3 
REMARK    2  A    between atoms: C3_3  and  C4_4 
REMARK    3  A    between atoms: C4_4  and  C5_5 
REMARK    4  A    between atoms: C6_6  and  C7_7 
REMARK    5  A    between atoms: C6_6  and  C15_17 
REMARK    6  A    between atoms: C7_7  and  C8_8 
REMARK    7  A    between atoms: C8_8  and  S1_9 
REMARK    8  A    between atoms: S1_9  and  C9_10 
REMARK    9  A    between atoms: C9_10  and  C10_11 
REMARK   10  A    between atoms: C10_11  and  N1_12 
REMARK   11  A    between atoms: C15_17  and  O1_18 
REMARK   12  A    between atoms: O1_18  and  C16_19 
REMARK   13  A    between atoms: C16_19  and  C17_21 
ROOT
HETATM    1  C5  UNL     1      28.648  30.236  13.810  1.00  0.00    -0.022 C 
HETATM    2  C6  UNL     1      28.788  30.918  14.914  1.00  0.00    -0.059 C 
ENDROOT
BRANCH   2   3
HETATM    3  C7  UNL     1      28.743  30.342  16.293  1.00  0.00     0.046 C 
BRANCH   3   4
HETATM    4  C8  UNL     1      30.115  30.000  16.819  1.00  0.00     0.078 C 
BRANCH   4   5
HETATM    5  S1  UNL     1      29.975  29.704  18.625  1.00  0.00    -0.167 SA
BRANCH   5   6
HETATM    6  C9  UNL     1      28.952  28.197  18.814  1.00  0.00     0.104 C 
BRANCH   6   7
HETATM    7  C10 UNL     1      29.607  27.117  17.987  1.00  0.00     0.282 C 
BRANCH   7   8
HETATM    8  N1  UNL     1      28.913  25.868  18.052  1.00  0.00     0.089 N 
HETATM    9  C11 UNL     1      29.490  24.949  17.094  1.00  0.00     0.272 C 
HETATM   10  C12 UNL     1      28.738  25.245  15.833  1.00  0.00     0.032 C 
HETATM   11  C13 UNL     1      27.499  26.007  16.214  1.00  0.00     0.032 C 
HETATM   12  C14 UNL     1      27.523  25.934  17.726  1.00  0.00     0.272 C 
ENDBRANCH   7   8
ENDBRANCH   6   7
ENDBRANCH   5   6
ENDBRANCH   4   5
ENDBRANCH   3   4
ENDBRANCH   2   3
BRANCH   2  13
HETATM   13  C15 UNL     1      28.980  32.419  14.924  1.00  0.00     0.212 C 
BRANCH  13  14
HETATM   14  O1  UNL     1      30.013  32.917  14.159  1.00  0.00    -0.317 OA
BRANCH  14  15
HETATM   15  C16 UNL     1      31.204  33.329  14.733  1.00  0.00     0.263 C 
HETATM   16  O2  UNL     1      31.571  32.998  15.887  1.00  0.00    -0.265 OA
BRANCH  15  17
HETATM   17  C17 UNL     1      32.095  34.206  13.938  1.00  0.00     0.085 C 
HETATM   18  C18 UNL     1      31.467  34.701  12.649  1.00  0.00     0.014 C 
HETATM   19  C19 UNL     1      32.119  36.055  12.943  1.00  0.00     0.002 C 
HETATM   20  C20 UNL     1      32.050  35.661  14.423  1.00  0.00     0.014 C 
ENDBRANCH  15  17
ENDBRANCH  14  15
ENDBRANCH  13  14
ENDBRANCH   2  13
BRANCH   1  21
HETATM   21  C4  UNL     1      28.421  28.805  13.728  1.00  0.00     0.027 C 
BRANCH  21  22
HETATM   22  C3  UNL     1      29.518  28.070  12.973  1.00  0.00     0.003 C 
BRANCH  22  23
HETATM   23  C2  UNL     1      30.627  27.811  14.001  1.00  0.00    -0.004 C 
HETATM   24  C1  UNL     1      31.807  28.704  13.762  1.00  0.00     0.005 C 
ENDBRANCH  22  23
ENDBRANCH  21  22
ENDBRANCH   1  21
TORSDOF 13
ENDMDL
