MODEL 1
REMARK VINA RESULT: -6.336221982      0.000      0.000
REMARK  22 active torsions:
REMARK  status: ('A' for Active; 'I' for Inactive)
REMARK    1  A    between atoms: C2_2  and  C3_3 
REMARK    2  A    between atoms: C3_3  and  C4_4 
REMARK    3  A    between atoms: C4_4  and  C5_5 
REMARK    4  A    between atoms: C5_5  and  C6_6 
REMARK    5  A    between atoms: C6_6  and  C7_7 
REMARK    6  A    between atoms: C7_7  and  C8_8 
REMARK    7  A    between atoms: C8_8  and  C9_9 
REMARK    8  A    between atoms: C9_9  and  C10_10 
REMARK    9  A    between atoms: C10_10  and  N1_11 
REMARK   10  A    between atoms: N1_11  and  C11_13 
REMARK   11  A    between atoms: C12_16  and  N3_17 
REMARK   12  A    between atoms: C14_19  and  O1_20 
REMARK   13  A    between atoms: C15_22  and  O2_23 
REMARK   14  A    between atoms: C16_25  and  C17_26 
REMARK   15  A    between atoms: C17_26  and  O3_27 
REMARK   16  A    between atoms: C19_30  and  N4_31 
REMARK   17  A    between atoms: N4_31  and  C20_33 
REMARK   18  A    between atoms: C20_33  and  C21_34 
REMARK   19  A    between atoms: C20_33  and  C24_41 
REMARK   20  A    between atoms: C21_34  and  C22_35 
REMARK   21  A    between atoms: C22_35  and  C23_36 
REMARK   22  A    between atoms: C23_36  and  N5_37 
ROOT
HETATM    1  C11 UNL     1      56.287   2.903  40.017  1.00  0.00     0.684 A 
HETATM    2  N2  UNL     1      57.296   3.719  40.355  1.00  0.00    -0.176 N 
ATOM      3  H2  UNL     1      58.207   3.635  39.904  1.00  0.00     0.186 HD
HETATM    4  C12 UNL     1      57.080   4.649  41.297  1.00  0.00     0.123 A 
HETATM    5  C18 UNL     1      55.845   4.753  41.901  1.00  0.00     0.097 A 
HETATM    6  C19 UNL     1      54.795   3.924  41.570  1.00  0.00     0.121 A 
HETATM    7  N7  UNL     1      55.058   3.009  40.621  1.00  0.00    -0.177 N 
ATOM      8  H7  UNL     1      54.316   2.369  40.339  1.00  0.00     0.186 HD
ENDROOT
BRANCH   6   9
HETATM    9  N4  UNL     1      53.618   3.943  42.064  1.00  0.00    -0.363 N 
ATOM     10  H4  UNL     1      53.028   3.119  41.952  1.00  0.00     0.162 HD
BRANCH   9  11
HETATM   11  C20 UNL     1      53.092   5.072  42.768  1.00  0.00     0.172 C 
BRANCH  11  12
HETATM   12  C21 UNL     1      52.850   4.766  44.236  1.00  0.00     0.036 C 
BRANCH  12  13
HETATM   13  C22 UNL     1      53.363   5.904  45.076  1.00  0.00     0.030 C 
BRANCH  13  14
HETATM   14  C23 UNL     1      52.277   6.499  45.935  1.00  0.00     0.230 C 
BRANCH  14  15
HETATM   15  N5  UNL     1      51.339   7.310  45.237  1.00  0.00    -0.079 N 
ATOM     16  H53 UNL     1      51.740   7.638  44.359  1.00  0.00     0.274 HD
ATOM     17  H52 UNL     1      50.574   6.737  44.881  1.00  0.00     0.274 HD
ATOM     18  H51 UNL     1      50.971   8.096  45.772  1.00  0.00     0.274 HD
ENDBRANCH  14  15
ENDBRANCH  13  14
ENDBRANCH  12  13
ENDBRANCH  11  12
BRANCH  11  19
HETATM   19  C24 UNL     1      51.813   5.557  42.182  1.00  0.00     0.253 C 
HETATM   20  N6  UNL     1      50.562   5.273  42.790  1.00  0.00    -0.060 NA
HETATM   21  O4  UNL     1      51.828   6.236  41.126  1.00  0.00    -0.275 OA
ENDBRANCH  11  19
ENDBRANCH   9  11
ENDBRANCH   6   9
BRANCH   4  22
HETATM   22  N3  UNL     1      58.144   5.520  41.628  1.00  0.00    -0.355 N 
HETATM   23  C13 UNL     1      59.501   5.160  42.009  1.00  0.00     0.159 C 
HETATM   24  C14 UNL     1      60.354   6.358  41.694  1.00  0.00     0.166 C 
HETATM   25  C15 UNL     1      59.426   7.388  41.110  1.00  0.00     0.173 C 
HETATM   26  C16 UNL     1      58.073   6.958  41.651  1.00  0.00     0.140 C 
BRANCH  24  27
HETATM   27  O1  UNL     1      61.282   6.024  40.703  1.00  0.00    -0.391 OA
ATOM     28  H1  UNL     1      60.844   5.977  39.861  1.00  0.00     0.210 HD
ENDBRANCH  24  27
BRANCH  25  29
HETATM   29  O2  UNL     1      59.741   8.678  41.504  1.00  0.00    -0.391 OA
ATOM     30  H2  UNL     1      59.475   9.332  40.868  1.00  0.00     0.210 HD
ENDBRANCH  25  29
BRANCH  26  31
HETATM   31  C17 UNL     1      57.861   7.487  43.060  1.00  0.00     0.192 C 
BRANCH  31  32
HETATM   32  O3  UNL     1      56.730   8.268  43.161  1.00  0.00    -0.399 OA
ATOM     33  H3  UNL     1      56.651   8.678  44.014  1.00  0.00     0.209 HD
ENDBRANCH  31  32
ENDBRANCH  26  31
ENDBRANCH   4  22
BRANCH   1  34
HETATM   34  N1  UNL     1      56.427   2.020  39.145  1.00  0.00    -0.205 N 
ATOM     35  H1  UNL     1      55.987   2.306  38.271  1.00  0.00     0.183 HD
BRANCH  34  36
HETATM   36  C10 UNL     1      57.003   0.768  39.013  1.00  0.00     0.079 C 
BRANCH  36  37
HETATM   37  C9  UNL     1      56.174  -0.445  39.288  1.00  0.00     0.045 C 
BRANCH  37  38
HETATM   38  C8  UNL     1      55.644  -1.056  37.997  1.00  0.00     0.005 C 
BRANCH  38  39
HETATM   39  C7  UNL     1      54.158  -1.255  37.993  1.00  0.00     0.000 C 
BRANCH  39  40
HETATM   40  C6  UNL     1      53.456  -0.057  37.428  1.00  0.00     0.000 C 
BRANCH  40  41
HETATM   41  C5  UNL     1      54.388   0.712  36.519  1.00  0.00     0.000 C 
BRANCH  41  42
HETATM   42  C4  UNL     1      53.697   1.826  35.792  1.00  0.00     0.000 C 
BRANCH  42  43
HETATM   43  C3  UNL     1      52.206   1.823  35.910  1.00  0.00    -0.000 C 
BRANCH  43  44
HETATM   44  C2  UNL     1      51.682   2.484  34.621  1.00  0.00    -0.005 C 
HETATM   45  C1  UNL     1      50.186   2.216  34.559  1.00  0.00     0.005 C 
ENDBRANCH  43  44
ENDBRANCH  42  43
ENDBRANCH  41  42
ENDBRANCH  40  41
ENDBRANCH  39  40
ENDBRANCH  38  39
ENDBRANCH  37  38
ENDBRANCH  36  37
ENDBRANCH  34  36
ENDBRANCH   1  34
TORSDOF 22
ENDMDL
MODEL 2
REMARK VINA RESULT: -6.165923796      3.929      7.734
REMARK  22 active torsions:
REMARK  status: ('A' for Active; 'I' for Inactive)
REMARK    1  A    between atoms: C2_2  and  C3_3 
REMARK    2  A    between atoms: C3_3  and  C4_4 
REMARK    3  A    between atoms: C4_4  and  C5_5 
REMARK    4  A    between atoms: C5_5  and  C6_6 
REMARK    5  A    between atoms: C6_6  and  C7_7 
REMARK    6  A    between atoms: C7_7  and  C8_8 
REMARK    7  A    between atoms: C8_8  and  C9_9 
REMARK    8  A    between atoms: C9_9  and  C10_10 
REMARK    9  A    between atoms: C10_10  and  N1_11 
REMARK   10  A    between atoms: N1_11  and  C11_13 
REMARK   11  A    between atoms: C12_16  and  N3_17 
REMARK   12  A    between atoms: C14_19  and  O1_20 
REMARK   13  A    between atoms: C15_22  and  O2_23 
REMARK   14  A    between atoms: C16_25  and  C17_26 
REMARK   15  A    between atoms: C17_26  and  O3_27 
REMARK   16  A    between atoms: C19_30  and  N4_31 
REMARK   17  A    between atoms: N4_31  and  C20_33 
REMARK   18  A    between atoms: C20_33  and  C21_34 
REMARK   19  A    between atoms: C20_33  and  C24_41 
REMARK   20  A    between atoms: C21_34  and  C22_35 
REMARK   21  A    between atoms: C22_35  and  C23_36 
REMARK   22  A    between atoms: C23_36  and  N5_37 
ROOT
HETATM    1  C11 UNL     1      55.633   4.370  40.832  1.00  0.00     0.684 A 
HETATM    2  N2  UNL     1      55.714   3.472  41.823  1.00  0.00    -0.176 N 
ATOM      3  H2  UNL     1      55.999   3.755  42.761  1.00  0.00     0.186 HD
HETATM    4  C12 UNL     1      55.413   2.193  41.555  1.00  0.00     0.123 A 
HETATM    5  C18 UNL     1      55.032   1.820  40.283  1.00  0.00     0.097 A 
HETATM    6  C19 UNL     1      54.943   2.728  39.250  1.00  0.00     0.121 A 
HETATM    7  N7  UNL     1      55.253   3.996  39.566  1.00  0.00    -0.177 N 
ATOM      8  H7  UNL     1      55.204   4.709  38.837  1.00  0.00     0.186 HD
ENDROOT
BRANCH   6   9
HETATM    9  N4  UNL     1      54.595   2.485  38.045  1.00  0.00    -0.363 N 
ATOM     10  H4  UNL     1      54.689   3.227  37.352  1.00  0.00     0.162 HD
BRANCH   9  11
HETATM   11  C20 UNL     1      54.081   1.218  37.628  1.00  0.00     0.172 C 
BRANCH  11  12
HETATM   12  C21 UNL     1      55.167   0.319  37.062  1.00  0.00     0.036 C 
BRANCH  12  13
HETATM   13  C22 UNL     1      54.820  -1.119  37.337  1.00  0.00     0.030 C 
BRANCH  13  14
HETATM   14  C23 UNL     1      53.868  -1.253  38.497  1.00  0.00     0.230 C 
BRANCH  14  15
HETATM   15  N5  UNL     1      52.648  -1.920  38.196  1.00  0.00    -0.079 N 
ATOM     16  H53 UNL     1      51.873  -1.479  38.691  1.00  0.00     0.274 HD
ATOM     17  H52 UNL     1      52.372  -1.733  37.232  1.00  0.00     0.274 HD
ATOM     18  H51 UNL     1      52.653  -2.924  38.373  1.00  0.00     0.274 HD
ENDBRANCH  14  15
ENDBRANCH  13  14
ENDBRANCH  12  13
ENDBRANCH  11  12
BRANCH  11  19
HETATM   19  C24 UNL     1      53.014   1.353  36.599  1.00  0.00     0.253 C 
HETATM   20  N6  UNL     1      51.674   0.965  36.862  1.00  0.00    -0.060 NA
HETATM   21  O4  UNL     1      53.293   1.821  35.467  1.00  0.00    -0.275 OA
ENDBRANCH  11  19
ENDBRANCH   9  11
ENDBRANCH   6   9
BRANCH   4  22
HETATM   22  N3  UNL     1      55.480   1.257  42.614  1.00  0.00    -0.355 N 
HETATM   23  C13 UNL     1      54.819   1.332  43.908  1.00  0.00     0.159 C 
HETATM   24  C14 UNL     1      54.721  -0.083  44.407  1.00  0.00     0.166 C 
HETATM   25  C15 UNL     1      55.336  -0.946  43.339  1.00  0.00     0.173 C 
HETATM   26  C16 UNL     1      56.235   0.031  42.602  1.00  0.00     0.140 C 
BRANCH  24  27
HETATM   27  O1  UNL     1      53.376  -0.449  44.516  1.00  0.00    -0.391 OA
ATOM     28  H1  UNL     1      53.306  -1.396  44.549  1.00  0.00     0.210 HD
ENDBRANCH  24  27
BRANCH  25  29
HETATM   29  O2  UNL     1      56.059  -2.007  43.857  1.00  0.00    -0.391 OA
ATOM     30  H2  UNL     1      56.981  -1.966  43.637  1.00  0.00     0.210 HD
ENDBRANCH  25  29
BRANCH  26  31
HETATM   31  C17 UNL     1      57.566   0.186  43.319  1.00  0.00     0.192 C 
BRANCH  31  32
HETATM   32  O3  UNL     1      58.495  -0.744  42.904  1.00  0.00    -0.399 OA
ATOM     33  H3  UNL     1      58.822  -0.563  42.032  1.00  0.00     0.209 HD
ENDBRANCH  31  32
ENDBRANCH  26  31
ENDBRANCH   4  22
BRANCH   1  34
HETATM   34  N1  UNL     1      55.898   5.576  41.022  1.00  0.00    -0.205 N 
ATOM     35  H1  UNL     1      55.047   6.106  41.207  1.00  0.00     0.183 HD
BRANCH  34  36
HETATM   36  C10 UNL     1      57.006   6.406  41.055  1.00  0.00     0.079 C 
BRANCH  36  37
HETATM   37  C9  UNL     1      58.314   5.853  41.519  1.00  0.00     0.045 C 
BRANCH  37  38
HETATM   38  C8  UNL     1      59.478   6.708  41.034  1.00  0.00     0.005 C 
BRANCH  38  39
HETATM   39  C7  UNL     1      60.791   5.983  41.019  1.00  0.00     0.000 C 
BRANCH  39  40
HETATM   40  C6  UNL     1      60.596   4.513  41.243  1.00  0.00     0.000 C 
BRANCH  40  41
HETATM   41  C5  UNL     1      61.096   3.733  40.048  1.00  0.00     0.000 C 
BRANCH  41  42
HETATM   42  C4  UNL     1      60.294   2.493  39.791  1.00  0.00     0.000 C 
BRANCH  42  43
HETATM   43  C3  UNL     1      58.824   2.719  39.630  1.00  0.00    -0.000 C 
BRANCH  43  44
HETATM   44  C2  UNL     1      58.377   1.773  38.499  1.00  0.00    -0.005 C 
HETATM   45  C1  UNL     1      58.293   0.376  39.095  1.00  0.00     0.005 C 
ENDBRANCH  43  44
ENDBRANCH  42  43
ENDBRANCH  41  42
ENDBRANCH  40  41
ENDBRANCH  39  40
ENDBRANCH  38  39
ENDBRANCH  37  38
ENDBRANCH  36  37
ENDBRANCH  34  36
ENDBRANCH   1  34
TORSDOF 22
ENDMDL
MODEL 3
REMARK VINA RESULT: -6.133781555      1.921      2.857
REMARK  22 active torsions:
REMARK  status: ('A' for Active; 'I' for Inactive)
REMARK    1  A    between atoms: C2_2  and  C3_3 
REMARK    2  A    between atoms: C3_3  and  C4_4 
REMARK    3  A    between atoms: C4_4  and  C5_5 
REMARK    4  A    between atoms: C5_5  and  C6_6 
REMARK    5  A    between atoms: C6_6  and  C7_7 
REMARK    6  A    between atoms: C7_7  and  C8_8 
REMARK    7  A    between atoms: C8_8  and  C9_9 
REMARK    8  A    between atoms: C9_9  and  C10_10 
REMARK    9  A    between atoms: C10_10  and  N1_11 
REMARK   10  A    between atoms: N1_11  and  C11_13 
REMARK   11  A    between atoms: C12_16  and  N3_17 
REMARK   12  A    between atoms: C14_19  and  O1_20 
REMARK   13  A    between atoms: C15_22  and  O2_23 
REMARK   14  A    between atoms: C16_25  and  C17_26 
REMARK   15  A    between atoms: C17_26  and  O3_27 
REMARK   16  A    between atoms: C19_30  and  N4_31 
REMARK   17  A    between atoms: N4_31  and  C20_33 
REMARK   18  A    between atoms: C20_33  and  C21_34 
REMARK   19  A    between atoms: C20_33  and  C24_41 
REMARK   20  A    between atoms: C21_34  and  C22_35 
REMARK   21  A    between atoms: C22_35  and  C23_36 
REMARK   22  A    between atoms: C23_36  and  N5_37 
ROOT
HETATM    1  C11 UNL     1      57.892   3.942  40.445  1.00  0.00     0.684 A 
HETATM    2  N2  UNL     1      58.659   4.863  41.045  1.00  0.00    -0.176 N 
ATOM      3  H2  UNL     1      59.676   4.813  40.987  1.00  0.00     0.186 HD
HETATM    4  C12 UNL     1      58.059   5.852  41.723  1.00  0.00     0.123 A 
HETATM    5  C18 UNL     1      56.683   5.910  41.798  1.00  0.00     0.097 A 
HETATM    6  C19 UNL     1      55.877   4.972  41.189  1.00  0.00     0.121 A 
HETATM    7  N7  UNL     1      56.522   4.001  40.521  1.00  0.00    -0.177 N 
ATOM      8  H7  UNL     1      55.973   3.280  40.052  1.00  0.00     0.186 HD
ENDROOT
BRANCH   6   9
HETATM    9  N4  UNL     1      54.601   4.941  41.194  1.00  0.00    -0.363 N 
ATOM     10  H4  UNL     1      54.107   5.009  40.303  1.00  0.00     0.162 HD
BRANCH   9  11
HETATM   11  C20 UNL     1      53.833   4.814  42.394  1.00  0.00     0.172 C 
BRANCH  11  12
HETATM   12  C21 UNL     1      53.832   3.390  42.923  1.00  0.00     0.036 C 
BRANCH  12  13
HETATM   13  C22 UNL     1      54.571   3.343  44.233  1.00  0.00     0.030 C 
BRANCH  13  14
HETATM   14  C23 UNL     1      55.939   2.726  44.082  1.00  0.00     0.230 C 
BRANCH  14  15
HETATM   15  N5  UNL     1      57.022   3.582  44.424  1.00  0.00    -0.079 N 
ATOM     16  H53 UNL     1      56.722   4.557  44.404  1.00  0.00     0.274 HD
ATOM     17  H52 UNL     1      57.247   3.486  45.415  1.00  0.00     0.274 HD
ATOM     18  H51 UNL     1      57.861   3.459  43.859  1.00  0.00     0.274 HD
ENDBRANCH  14  15
ENDBRANCH  13  14
ENDBRANCH  12  13
ENDBRANCH  11  12
BRANCH  11  19
HETATM   19  C24 UNL     1      52.418   5.236  42.207  1.00  0.00     0.253 C 
HETATM   20  N6  UNL     1      51.390   4.800  43.084  1.00  0.00    -0.060 NA
HETATM   21  O4  UNL     1      52.113   5.996  41.254  1.00  0.00    -0.275 OA
ENDBRANCH  11  19
ENDBRANCH   9  11
ENDBRANCH   6   9
BRANCH   4  22
HETATM   22  N3  UNL     1      58.876   6.833  42.333  1.00  0.00    -0.355 N 
HETATM   23  C13 UNL     1      59.898   7.654  41.702  1.00  0.00     0.159 C 
HETATM   24  C14 UNL     1      60.049   8.872  42.572  1.00  0.00     0.166 C 
HETATM   25  C15 UNL     1      59.063   8.705  43.697  1.00  0.00     0.173 C 
HETATM   26  C16 UNL     1      58.844   7.202  43.724  1.00  0.00     0.140 C 
BRANCH  24  27
HETATM   27  O1  UNL     1      59.671  10.009  41.852  1.00  0.00    -0.391 OA
ATOM     28  H1  UNL     1      59.870  10.788  42.359  1.00  0.00     0.210 HD
ENDBRANCH  24  27
BRANCH  25  29
HETATM   29  O2  UNL     1      59.549   9.169  44.908  1.00  0.00    -0.391 OA
ATOM     30  H2  UNL     1      60.301   9.740  44.807  1.00  0.00     0.210 HD
ENDBRANCH  25  29
BRANCH  26  31
HETATM   31  C17 UNL     1      59.944   6.511  44.513  1.00  0.00     0.192 C 
BRANCH  31  32
HETATM   32  O3  UNL     1      59.552   5.277  44.986  1.00  0.00    -0.399 OA
ATOM     33  H3  UNL     1      59.689   4.587  44.349  1.00  0.00     0.209 HD
ENDBRANCH  31  32
ENDBRANCH  26  31
ENDBRANCH   4  22
BRANCH   1  34
HETATM   34  N1  UNL     1      58.394   2.998  39.797  1.00  0.00    -0.205 N 
ATOM     35  H1  UNL     1      58.717   3.322  38.885  1.00  0.00     0.183 HD
BRANCH  34  36
HETATM   36  C10 UNL     1      58.641   1.645  39.950  1.00  0.00     0.079 C 
BRANCH  36  37
HETATM   37  C9  UNL     1      58.478   0.740  38.772  1.00  0.00     0.045 C 
BRANCH  37  38
HETATM   38  C8  UNL     1      57.631  -0.476  39.123  1.00  0.00     0.005 C 
BRANCH  38  39
HETATM   39  C7  UNL     1      56.458  -0.158  40.002  1.00  0.00     0.000 C 
BRANCH  39  40
HETATM   40  C6  UNL     1      55.169  -0.535  39.337  1.00  0.00     0.000 C 
BRANCH  40  41
HETATM   41  C5  UNL     1      55.439  -1.099  37.960  1.00  0.00     0.000 C 
BRANCH  41  42
HETATM   42  C4  UNL     1      54.791  -0.298  36.871  1.00  0.00     0.000 C 
BRANCH  42  43
HETATM   43  C3  UNL     1      55.231   1.129  36.795  1.00  0.00    -0.000 C 
BRANCH  43  44
HETATM   44  C2  UNL     1      54.227   1.827  35.858  1.00  0.00    -0.005 C 
HETATM   45  C1  UNL     1      52.836   1.549  36.410  1.00  0.00     0.005 C 
ENDBRANCH  43  44
ENDBRANCH  42  43
ENDBRANCH  41  42
ENDBRANCH  40  41
ENDBRANCH  39  40
ENDBRANCH  38  39
ENDBRANCH  37  38
ENDBRANCH  36  37
ENDBRANCH  34  36
ENDBRANCH   1  34
TORSDOF 22
ENDMDL
MODEL 4
REMARK VINA RESULT: -6.129081059      3.598      6.788
REMARK  22 active torsions:
REMARK  status: ('A' for Active; 'I' for Inactive)
REMARK    1  A    between atoms: C2_2  and  C3_3 
REMARK    2  A    between atoms: C3_3  and  C4_4 
REMARK    3  A    between atoms: C4_4  and  C5_5 
REMARK    4  A    between atoms: C5_5  and  C6_6 
REMARK    5  A    between atoms: C6_6  and  C7_7 
REMARK    6  A    between atoms: C7_7  and  C8_8 
REMARK    7  A    between atoms: C8_8  and  C9_9 
REMARK    8  A    between atoms: C9_9  and  C10_10 
REMARK    9  A    between atoms: C10_10  and  N1_11 
REMARK   10  A    between atoms: N1_11  and  C11_13 
REMARK   11  A    between atoms: C12_16  and  N3_17 
REMARK   12  A    between atoms: C14_19  and  O1_20 
REMARK   13  A    between atoms: C15_22  and  O2_23 
REMARK   14  A    between atoms: C16_25  and  C17_26 
REMARK   15  A    between atoms: C17_26  and  O3_27 
REMARK   16  A    between atoms: C19_30  and  N4_31 
REMARK   17  A    between atoms: N4_31  and  C20_33 
REMARK   18  A    between atoms: C20_33  and  C21_34 
REMARK   19  A    between atoms: C20_33  and  C24_41 
REMARK   20  A    between atoms: C21_34  and  C22_35 
REMARK   21  A    between atoms: C22_35  and  C23_36 
REMARK   22  A    between atoms: C23_36  and  N5_37 
ROOT
HETATM    1  C11 UNL     1      58.311   0.176  39.873  1.00  0.00     0.684 A 
HETATM    2  N2  UNL     1      58.333   1.323  40.567  1.00  0.00    -0.176 N 
ATOM      3  H2  UNL     1      58.928   1.423  41.390  1.00  0.00     0.186 HD
HETATM    4  C12 UNL     1      57.556   2.335  40.155  1.00  0.00     0.123 A 
HETATM    5  C18 UNL     1      56.754   2.189  39.043  1.00  0.00     0.097 A 
HETATM    6  C19 UNL     1      56.716   1.018  38.317  1.00  0.00     0.121 A 
HETATM    7  N7  UNL     1      57.511   0.033  38.766  1.00  0.00    -0.177 N 
ATOM      8  H7  UNL     1      57.520  -0.856  38.265  1.00  0.00     0.186 HD
ENDROOT
BRANCH   6   9
HETATM    9  N4  UNL     1      56.015   0.786  37.275  1.00  0.00    -0.363 N 
ATOM     10  H4  UNL     1      56.477   0.791  36.365  1.00  0.00     0.162 HD
BRANCH   9  11
HETATM   11  C20 UNL     1      54.611   0.519  37.329  1.00  0.00     0.172 C 
BRANCH  11  12
HETATM   12  C21 UNL     1      54.303  -0.955  37.128  1.00  0.00     0.036 C 
BRANCH  12  13
HETATM   13  C22 UNL     1      53.803  -1.543  38.420  1.00  0.00     0.030 C 
BRANCH  13  14
HETATM   14  C23 UNL     1      53.469  -0.473  39.428  1.00  0.00     0.230 C 
BRANCH  14  15
HETATM   15  N5  UNL     1      54.255  -0.500  40.613  1.00  0.00    -0.079 N 
ATOM     16  H53 UNL     1      53.861  -1.161  41.283  1.00  0.00     0.274 HD
ATOM     17  H52 UNL     1      55.154  -0.947  40.430  1.00  0.00     0.274 HD
ATOM     18  H51 UNL     1      54.396   0.407  41.055  1.00  0.00     0.274 HD
ENDBRANCH  14  15
ENDBRANCH  13  14
ENDBRANCH  12  13
ENDBRANCH  11  12
BRANCH  11  19
HETATM   19  C24 UNL     1      53.850   1.290  36.310  1.00  0.00     0.253 C 
HETATM   20  N6  UNL     1      52.439   1.429  36.384  1.00  0.00    -0.060 NA
HETATM   21  O4  UNL     1      54.459   1.837  35.357  1.00  0.00    -0.275 OA
ENDBRANCH  11  19
ENDBRANCH   9  11
ENDBRANCH   6   9
BRANCH   4  22
HETATM   22  N3  UNL     1      57.605   3.549  40.880  1.00  0.00    -0.355 N 
HETATM   23  C13 UNL     1      58.550   3.925  41.921  1.00  0.00     0.159 C 
HETATM   24  C14 UNL     1      58.561   5.428  41.950  1.00  0.00     0.166 C 
HETATM   25  C15 UNL     1      57.601   5.873  40.879  1.00  0.00     0.173 C 
HETATM   26  C16 UNL     1      56.703   4.659  40.716  1.00  0.00     0.140 C 
BRANCH  24  27
HETATM   27  O1  UNL     1      59.829   5.894  41.592  1.00  0.00    -0.391 OA
ATOM     28  H1  UNL     1      59.867   6.836  41.708  1.00  0.00     0.210 HD
ENDBRANCH  24  27
BRANCH  25  29
HETATM   29  O2  UNL     1      56.876   6.995  41.242  1.00  0.00    -0.391 OA
ATOM     30  H2  UNL     1      56.048   6.780  41.655  1.00  0.00     0.210 HD
ENDBRANCH  25  29
BRANCH  26  31
HETATM   31  C17 UNL     1      55.608   4.652  41.770  1.00  0.00     0.192 C 
BRANCH  31  32
HETATM   32  O3  UNL     1      54.454   5.263  41.329  1.00  0.00    -0.399 OA
ATOM     33  H3  UNL     1      54.350   6.138  41.684  1.00  0.00     0.209 HD
ENDBRANCH  31  32
ENDBRANCH  26  31
ENDBRANCH   4  22
BRANCH   1  34
HETATM   34  N1  UNL     1      59.015  -0.801  40.207  1.00  0.00    -0.205 N 
ATOM     35  H1  UNL     1      58.828  -1.063  41.175  1.00  0.00     0.183 HD
BRANCH  34  36
HETATM   36  C10 UNL     1      59.971  -1.634  39.653  1.00  0.00     0.079 C 
BRANCH  36  37
HETATM   37  C9  UNL     1      61.268  -1.048  39.198  1.00  0.00     0.045 C 
BRANCH  37  38
HETATM   38  C8  UNL     1      61.377  -1.059  37.678  1.00  0.00     0.005 C 
BRANCH  38  39
HETATM   39  C7  UNL     1      62.308  -0.017  37.135  1.00  0.00     0.000 C 
BRANCH  39  40
HETATM   40  C6  UNL     1      61.565   0.995  36.316  1.00  0.00     0.000 C 
BRANCH  40  41
HETATM   41  C5  UNL     1      60.826   1.956  37.221  1.00  0.00     0.000 C 
BRANCH  41  42
HETATM   42  C4  UNL     1      61.733   2.644  38.196  1.00  0.00     0.000 C 
BRANCH  42  43
HETATM   43  C3  UNL     1      62.518   3.783  37.628  1.00  0.00    -0.000 C 
BRANCH  43  44
HETATM   44  C2  UNL     1      63.992   3.336  37.667  1.00  0.00    -0.005 C 
HETATM   45  C1  UNL     1      64.473   3.262  36.225  1.00  0.00     0.005 C 
ENDBRANCH  43  44
ENDBRANCH  42  43
ENDBRANCH  41  42
ENDBRANCH  40  41
ENDBRANCH  39  40
ENDBRANCH  38  39
ENDBRANCH  37  38
ENDBRANCH  36  37
ENDBRANCH  34  36
ENDBRANCH   1  34
TORSDOF 22
ENDMDL
MODEL 5
REMARK VINA RESULT: -6.089778396      1.189      1.524
REMARK  22 active torsions:
REMARK  status: ('A' for Active; 'I' for Inactive)
REMARK    1  A    between atoms: C2_2  and  C3_3 
REMARK    2  A    between atoms: C3_3  and  C4_4 
REMARK    3  A    between atoms: C4_4  and  C5_5 
REMARK    4  A    between atoms: C5_5  and  C6_6 
REMARK    5  A    between atoms: C6_6  and  C7_7 
REMARK    6  A    between atoms: C7_7  and  C8_8 
REMARK    7  A    between atoms: C8_8  and  C9_9 
REMARK    8  A    between atoms: C9_9  and  C10_10 
REMARK    9  A    between atoms: C10_10  and  N1_11 
REMARK   10  A    between atoms: N1_11  and  C11_13 
REMARK   11  A    between atoms: C12_16  and  N3_17 
REMARK   12  A    between atoms: C14_19  and  O1_20 
REMARK   13  A    between atoms: C15_22  and  O2_23 
REMARK   14  A    between atoms: C16_25  and  C17_26 
REMARK   15  A    between atoms: C17_26  and  O3_27 
REMARK   16  A    between atoms: C19_30  and  N4_31 
REMARK   17  A    between atoms: N4_31  and  C20_33 
REMARK   18  A    between atoms: C20_33  and  C21_34 
REMARK   19  A    between atoms: C20_33  and  C24_41 
REMARK   20  A    between atoms: C21_34  and  C22_35 
REMARK   21  A    between atoms: C22_35  and  C23_36 
REMARK   22  A    between atoms: C23_36  and  N5_37 
ROOT
HETATM    1  C11 UNL     1      55.924   2.641  40.758  1.00  0.00     0.684 A 
HETATM    2  N2  UNL     1      56.960   3.472  40.941  1.00  0.00    -0.176 N 
ATOM      3  H2  UNL     1      57.830   3.342  40.425  1.00  0.00     0.186 HD
HETATM    4  C12 UNL     1      56.826   4.479  41.817  1.00  0.00     0.123 A 
HETATM    5  C18 UNL     1      55.646   4.645  42.511  1.00  0.00     0.097 A 
HETATM    6  C19 UNL     1      54.570   3.801  42.338  1.00  0.00     0.121 A 
HETATM    7  N7  UNL     1      54.750   2.808  41.451  1.00  0.00    -0.177 N 
ATOM      8  H7  UNL     1      53.985   2.153  41.286  1.00  0.00     0.186 HD
ENDROOT
BRANCH   6   9
HETATM    9  N4  UNL     1      53.439   3.873  42.925  1.00  0.00    -0.363 N 
ATOM     10  H4  UNL     1      52.935   3.008  43.122  1.00  0.00     0.162 HD
BRANCH   9  11
HETATM   11  C20 UNL     1      52.847   5.114  43.317  1.00  0.00     0.172 C 
BRANCH  11  12
HETATM   12  C21 UNL     1      52.431   5.112  44.779  1.00  0.00     0.036 C 
BRANCH  12  13
HETATM   13  C22 UNL     1      53.313   6.056  45.551  1.00  0.00     0.030 C 
BRANCH  13  14
HETATM   14  C23 UNL     1      53.083   7.490  45.151  1.00  0.00     0.230 C 
BRANCH  14  15
HETATM   15  N5  UNL     1      54.245   8.183  44.713  1.00  0.00    -0.079 N 
ATOM     16  H53 UNL     1      55.019   8.015  45.355  1.00  0.00     0.274 HD
ATOM     17  H52 UNL     1      54.617   7.749  43.868  1.00  0.00     0.274 HD
ATOM     18  H51 UNL     1      54.118   9.185  44.569  1.00  0.00     0.274 HD
ENDBRANCH  14  15
ENDBRANCH  13  14
ENDBRANCH  12  13
ENDBRANCH  11  12
BRANCH  11  19
HETATM   19  C24 UNL     1      51.650   5.453  42.500  1.00  0.00     0.253 C 
HETATM   20  N6  UNL     1      51.760   6.186  41.289  1.00  0.00    -0.060 NA
HETATM   21  O4  UNL     1      50.510   5.087  42.880  1.00  0.00    -0.275 OA
ENDBRANCH  11  19
ENDBRANCH   9  11
ENDBRANCH   6   9
BRANCH   4  22
HETATM   22  N3  UNL     1      57.916   5.365  41.984  1.00  0.00    -0.355 N 
HETATM   23  C13 UNL     1      59.303   5.024  42.260  1.00  0.00     0.159 C 
HETATM   24  C14 UNL     1      60.122   6.192  41.782  1.00  0.00     0.166 C 
HETATM   25  C15 UNL     1      59.142   7.184  41.217  1.00  0.00     0.173 C 
HETATM   26  C16 UNL     1      57.846   6.801  41.911  1.00  0.00     0.140 C 
BRANCH  24  27
HETATM   27  O1  UNL     1      60.952   5.783  40.734  1.00  0.00    -0.391 OA
ATOM     28  H1  UNL     1      61.144   6.525  40.173  1.00  0.00     0.210 HD
ENDBRANCH  24  27
BRANCH  25  29
HETATM   29  O2  UNL     1      59.493   8.496  41.487  1.00  0.00    -0.391 OA
ATOM     30  H2  UNL     1      59.927   8.919  40.756  1.00  0.00     0.210 HD
ENDBRANCH  25  29
BRANCH  26  31
HETATM   31  C17 UNL     1      57.769   7.429  43.294  1.00  0.00     0.192 C 
BRANCH  31  32
HETATM   32  O3  UNL     1      56.866   8.469  43.345  1.00  0.00    -0.399 OA
ATOM     33  H3  UNL     1      55.973   8.179  43.203  1.00  0.00     0.209 HD
ENDBRANCH  31  32
ENDBRANCH  26  31
ENDBRANCH   4  22
BRANCH   1  34
HETATM   34  N1  UNL     1      55.989   1.686  39.955  1.00  0.00    -0.205 N 
ATOM     35  H1  UNL     1      55.706   1.984  39.021  1.00  0.00     0.183 HD
BRANCH  34  36
HETATM   36  C10 UNL     1      56.331   0.345  39.956  1.00  0.00     0.079 C 
BRANCH  36  37
HETATM   37  C9  UNL     1      56.786  -0.289  38.682  1.00  0.00     0.045 C 
BRANCH  37  38
HETATM   38  C8  UNL     1      55.713  -1.204  38.105  1.00  0.00     0.005 C 
BRANCH  38  39
HETATM   39  C7  UNL     1      54.400  -1.116  38.825  1.00  0.00     0.000 C 
BRANCH  39  40
HETATM   40  C6  UNL     1      53.280  -1.617  37.964  1.00  0.00     0.000 C 
BRANCH  40  41
HETATM   41  C5  UNL     1      52.352  -0.480  37.602  1.00  0.00     0.000 C 
BRANCH  41  42
HETATM   42  C4  UNL     1      53.070   0.828  37.453  1.00  0.00     0.000 C 
BRANCH  42  43
HETATM   43  C3  UNL     1      52.670   1.632  36.258  1.00  0.00    -0.000 C 
BRANCH  43  44
HETATM   44  C2  UNL     1      53.964   1.864  35.457  1.00  0.00    -0.005 C 
HETATM   45  C1  UNL     1      55.098   1.972  36.466  1.00  0.00     0.005 C 
ENDBRANCH  43  44
ENDBRANCH  42  43
ENDBRANCH  41  42
ENDBRANCH  40  41
ENDBRANCH  39  40
ENDBRANCH  38  39
ENDBRANCH  37  38
ENDBRANCH  36  37
ENDBRANCH  34  36
ENDBRANCH   1  34
TORSDOF 22
ENDMDL
