MODEL 1
REMARK VINA RESULT: -2.854508823      0.000      0.000
REMARK  1 active torsions:
REMARK  status: ('A' for Active; 'I' for Inactive)
REMARK    1  A    between atoms: N3_8  and  C3_9 
ROOT
HETATM    1  N1  UNL     1      33.943  18.016  10.068  1.00  0.00    -0.371 N 
ATOM      2  H11 UNL     1      33.675  18.250  11.024  1.00  0.00     0.159 HD
ATOM      3  H12 UNL     1      33.013  18.255   9.725  1.00  0.00     0.159 HD
HETATM    4  C1  UNL     1      35.011  17.591   9.498  1.00  0.00     0.179 C 
HETATM    5  N2  UNL     1      35.384  17.266   8.170  1.00  0.00    -0.345 N 
ATOM      6  H2  UNL     1      34.892  17.122   7.289  1.00  0.00     0.164 HD
HETATM    7  C2  UNL     1      36.760  17.227   8.600  1.00  0.00     0.259 C 
HETATM    8  N3  UNL     1      36.302  17.260   9.974  1.00  0.00    -0.287 N 
ENDROOT
BRANCH   8   9
HETATM    9  C3  UNL     1      36.923  17.042  11.235  1.00  0.00     0.127 A 
HETATM   10  N4  UNL     1      37.453  17.502  12.319  1.00  0.00    -0.347 N 
HETATM   11  C4  UNL     1      37.453  16.147  12.299  1.00  0.00     0.138 A 
ATOM     12  H4  UNL     1      37.706  18.338  12.846  1.00  0.00     0.167 HD
ENDBRANCH   8   9
TORSDOF 1
ENDMDL
MODEL 2
REMARK VINA RESULT: -2.659007610      1.443      3.612
REMARK  1 active torsions:
REMARK  status: ('A' for Active; 'I' for Inactive)
REMARK    1  A    between atoms: N3_8  and  C3_9 
ROOT
HETATM    1  N1  UNL     1      34.361  18.045   9.928  1.00  0.00    -0.371 N 
ATOM      2  H11 UNL     1      33.693  18.335   9.214  1.00  0.00     0.159 HD
ATOM      3  H12 UNL     1      33.689  18.246  10.669  1.00  0.00     0.159 HD
HETATM    4  C1  UNL     1      35.565  17.602   9.927  1.00  0.00     0.179 C 
HETATM    5  N2  UNL     1      36.492  17.198  10.919  1.00  0.00    -0.345 N 
ATOM      6  H2  UNL     1      36.554  17.274  11.934  1.00  0.00     0.164 HD
HETATM    7  C2  UNL     1      37.313  16.631   9.877  1.00  0.00     0.259 C 
HETATM    8  N3  UNL     1      36.497  17.322   8.899  1.00  0.00    -0.287 N 
ENDROOT
BRANCH   8   9
HETATM    9  C3  UNL     1      36.622  17.584   7.506  1.00  0.00     0.127 A 
HETATM   10  N4  UNL     1      36.115  17.607   6.319  1.00  0.00    -0.347 N 
HETATM   11  C4  UNL     1      37.402  18.027   6.319  1.00  0.00     0.138 A 
ATOM     12  H4  UNL     1      35.286  17.426   5.752  1.00  0.00     0.167 HD
ENDBRANCH   8   9
TORSDOF 1
ENDMDL
MODEL 3
REMARK VINA RESULT: -2.636693510      8.897     10.266
REMARK  1 active torsions:
REMARK  status: ('A' for Active; 'I' for Inactive)
REMARK    1  A    between atoms: N3_8  and  C3_9 
ROOT
HETATM    1  N1  UNL     1      37.393  20.824  17.852  1.00  0.00    -0.371 N 
ATOM      2  H11 UNL     1      37.111  21.779  17.633  1.00  0.00     0.159 HD
ATOM      3  H12 UNL     1      38.078  20.829  17.096  1.00  0.00     0.159 HD
HETATM    4  C1  UNL     1      37.046  19.945  18.720  1.00  0.00     0.179 C 
HETATM    5  N2  UNL     1      37.438  18.618  19.025  1.00  0.00    -0.345 N 
ATOM      6  H2  UNL     1      37.998  17.900  18.566  1.00  0.00     0.164 HD
HETATM    7  C2  UNL     1      36.706  18.719  20.263  1.00  0.00     0.259 C 
HETATM    8  N3  UNL     1      36.096  19.937  19.769  1.00  0.00    -0.287 N 
ENDROOT
BRANCH   8   9
HETATM    9  C3  UNL     1      35.005  20.746  20.193  1.00  0.00     0.127 A 
HETATM   10  N4  UNL     1      33.776  20.864  20.568  1.00  0.00    -0.347 N 
HETATM   11  C4  UNL     1      34.404  22.063  20.536  1.00  0.00     0.138 A 
ATOM     12  H4  UNL     1      32.902  20.374  20.763  1.00  0.00     0.167 HD
ENDBRANCH   8   9
TORSDOF 1
ENDMDL
MODEL 4
REMARK VINA RESULT: -2.545060629      1.646      3.685
REMARK  1 active torsions:
REMARK  status: ('A' for Active; 'I' for Inactive)
REMARK    1  A    between atoms: N3_8  and  C3_9 
ROOT
HETATM    1  N1  UNL     1      34.080  18.017  10.067  1.00  0.00    -0.371 N 
ATOM      2  H11 UNL     1      33.276  18.145   9.453  1.00  0.00     0.159 HD
ATOM      3  H12 UNL     1      33.614  18.524  10.819  1.00  0.00     0.159 HD
HETATM    4  C1  UNL     1      35.228  17.451   9.964  1.00  0.00     0.179 C 
HETATM    5  N2  UNL     1      36.344  17.273  10.817  1.00  0.00    -0.345 N 
ATOM      6  H2  UNL     1      36.649  17.661  11.710  1.00  0.00     0.164 HD
HETATM    7  C2  UNL     1      36.866  16.308   9.882  1.00  0.00     0.259 C 
HETATM    8  N3  UNL     1      35.874  16.746   8.921  1.00  0.00    -0.287 N 
ENDROOT
BRANCH   8   9
HETATM    9  C3  UNL     1      35.675  16.533   7.528  1.00  0.00     0.127 A 
HETATM   10  N4  UNL     1      36.125  16.531   6.319  1.00  0.00    -0.347 N 
HETATM   11  C4  UNL     1      34.824  16.155   6.367  1.00  0.00     0.138 A 
ATOM     12  H4  UNL     1      36.932  16.701   5.718  1.00  0.00     0.167 HD
ENDBRANCH   8   9
TORSDOF 1
ENDMDL
MODEL 5
REMARK VINA RESULT: -2.180162173      0.896      1.892
REMARK  1 active torsions:
REMARK  status: ('A' for Active; 'I' for Inactive)
REMARK    1  A    between atoms: N3_8  and  C3_9 
ROOT
HETATM    1  N1  UNL     1      37.453  16.183   8.029  1.00  0.00    -0.371 N 
ATOM      2  H11 UNL     1      38.320  15.768   8.371  1.00  0.00     0.159 HD
ATOM      3  H12 UNL     1      37.709  15.975   7.064  1.00  0.00     0.159 HD
HETATM    4  C1  UNL     1      36.435  16.746   8.569  1.00  0.00     0.179 C 
HETATM    5  N2  UNL     1      35.231  17.322   8.094  1.00  0.00    -0.345 N 
ATOM      6  H2  UNL     1      34.868  17.606   7.185  1.00  0.00     0.164 HD
HETATM    7  C2  UNL     1      34.739  17.335   9.450  1.00  0.00     0.259 C 
HETATM    8  N3  UNL     1      36.080  17.034   9.909  1.00  0.00    -0.287 N 
ENDROOT
BRANCH   8   9
HETATM    9  C3  UNL     1      36.722  17.041  11.178  1.00  0.00     0.127 A 
HETATM   10  N4  UNL     1      37.103  17.669  12.240  1.00  0.00    -0.347 N 
HETATM   11  C4  UNL     1      37.453  16.361  12.282  1.00  0.00     0.138 A 
ATOM     12  H4  UNL     1      37.126  18.565  12.727  1.00  0.00     0.167 HD
ENDBRANCH   8   9
TORSDOF 1
ENDMDL
