MODEL 1
REMARK VINA RESULT: -2.079075204      0.000      0.000
REMARK  1 active torsions:
REMARK  status: ('A' for Active; 'I' for Inactive)
REMARK    1  A    between atoms: C4_8  and  N3_9 
ROOT
HETATM    1  C1  UNL     1      37.182  18.016   8.574  1.00  0.00     0.279 C 
HETATM    2  N1  UNL     1      36.227  16.967   8.850  1.00  0.00     0.003 N 
HETATM    3  C2  UNL     1      36.029  16.141   7.701  1.00  0.00     0.279 C 
HETATM    4  C3  UNL     1      36.496  16.206  10.069  1.00  0.00     0.476 C 
HETATM    5  N2  UNL     1      35.033  16.141  10.229  1.00  0.00     0.003 N 
ATOM      6  H21 UNL     1      34.596  16.033  11.144  1.00  0.00     0.283 HD
ATOM      7  H22 UNL     1      34.493  15.333   9.919  1.00  0.00     0.283 HD
HETATM    8  C4  UNL     1      35.002  17.421   9.500  1.00  0.00     0.585 C 
ENDROOT
BRANCH   8   9
HETATM    9  N3  UNL     1      35.206  18.485  10.443  1.00  0.00    -0.025 N 
ATOM     10  H33 UNL     1      35.850  18.194  11.179  1.00  0.00     0.278 HD
ATOM     11  H32 UNL     1      35.752  19.238  10.024  1.00  0.00     0.278 HD
ATOM     12  H31 UNL     1      34.343  18.850  10.846  1.00  0.00     0.278 HD
ENDBRANCH   8   9
TORSDOF 1
ENDMDL
MODEL 2
REMARK VINA RESULT: -2.001750090      1.330      1.549
REMARK  1 active torsions:
REMARK  status: ('A' for Active; 'I' for Inactive)
REMARK    1  A    between atoms: C4_8  and  N3_9 
ROOT
HETATM    1  C1  UNL     1      37.453  16.141   8.897  1.00  0.00     0.279 C 
HETATM    2  N1  UNL     1      36.289  16.989   8.784  1.00  0.00     0.003 N 
HETATM    3  C2  UNL     1      36.252  17.640   7.514  1.00  0.00     0.279 C 
HETATM    4  C3  UNL     1      35.027  16.339   9.138  1.00  0.00     0.476 C 
HETATM    5  N2  UNL     1      34.628  17.644   9.693  1.00  0.00     0.003 N 
ATOM      6  H21 UNL     1      33.941  17.722  10.442  1.00  0.00     0.283 HD
ATOM      7  H22 UNL     1      34.065  18.306   9.159  1.00  0.00     0.283 HD
HETATM    8  C4  UNL     1      36.066  17.863   9.931  1.00  0.00     0.585 C 
ENDROOT
BRANCH   8   9
HETATM    9  N3  UNL     1      36.412  17.268  11.192  1.00  0.00    -0.025 N 
ATOM     10  H33 UNL     1      37.124  16.548  11.065  1.00  0.00     0.278 HD
ATOM     11  H32 UNL     1      36.936  17.927  11.768  1.00  0.00     0.278 HD
ATOM     12  H31 UNL     1      35.614  16.897  11.706  1.00  0.00     0.278 HD
ENDBRANCH   8   9
TORSDOF 1
ENDMDL
MODEL 3
REMARK VINA RESULT: -1.977859214      1.154      2.033
REMARK  1 active torsions:
REMARK  status: ('A' for Active; 'I' for Inactive)
REMARK    1  A    between atoms: C4_8  and  N3_9 
ROOT
HETATM    1  C1  UNL     1      35.895  16.141  10.946  1.00  0.00     0.279 C 
HETATM    2  N1  UNL     1      36.072  16.718   9.633  1.00  0.00     0.003 N 
HETATM    3  C2  UNL     1      37.453  16.750   9.270  1.00  0.00     0.279 C 
HETATM    4  C3  UNL     1      35.216  16.142   8.596  1.00  0.00     0.476 C 
HETATM    5  N2  UNL     1      35.153  17.503   8.036  1.00  0.00     0.003 N 
ATOM      6  H21 UNL     1      34.364  17.815   7.471  1.00  0.00     0.283 HD
ATOM      7  H22 UNL     1      35.765  17.801   7.276  1.00  0.00     0.283 HD
HETATM    8  C4  UNL     1      35.351  17.967   9.420  1.00  0.00     0.585 C 
ENDROOT
BRANCH   8   9
HETATM    9  N3  UNL     1      34.070  18.017  10.069  1.00  0.00    -0.025 N 
ATOM     10  H33 UNL     1      33.409  18.564   9.517  1.00  0.00     0.278 HD
ATOM     11  H32 UNL     1      33.612  17.106  10.031  1.00  0.00     0.278 HD
ATOM     12  H31 UNL     1      34.106  18.360  11.028  1.00  0.00     0.278 HD
ENDBRANCH   8   9
TORSDOF 1
ENDMDL
MODEL 4
REMARK VINA RESULT: -1.799645351      1.125      2.091
REMARK  1 active torsions:
REMARK  status: ('A' for Active; 'I' for Inactive)
REMARK    1  A    between atoms: C4_8  and  N3_9 
ROOT
HETATM    1  C1  UNL     1      37.451  17.659   8.347  1.00  0.00     0.279 C 
HETATM    2  N1  UNL     1      36.643  17.175   9.443  1.00  0.00     0.003 N 
HETATM    3  C2  UNL     1      37.453  16.866  10.578  1.00  0.00     0.279 C 
HETATM    4  C3  UNL     1      35.491  18.015   9.767  1.00  0.00     0.476 C 
HETATM    5  N2  UNL     1      34.787  16.757  10.068  1.00  0.00     0.003 N 
ATOM      6  H21 UNL     1      33.772  16.679  10.000  1.00  0.00     0.283 HD
ATOM      7  H22 UNL     1      34.711  16.397  11.020  1.00  0.00     0.283 HD
HETATM    8  C4  UNL     1      35.682  16.141   9.073  1.00  0.00     0.585 C 
ENDROOT
BRANCH   8   9
HETATM    9  N3  UNL     1      35.105  16.323   7.770  1.00  0.00    -0.025 N 
ATOM     10  H33 UNL     1      34.470  17.122   7.767  1.00  0.00     0.278 HD
ATOM     11  H32 UNL     1      35.807  16.660   7.111  1.00  0.00     0.278 HD
ATOM     12  H31 UNL     1      34.640  15.493   7.405  1.00  0.00     0.278 HD
ENDBRANCH   8   9
TORSDOF 1
ENDMDL
MODEL 5
REMARK VINA RESULT: -1.737015791      1.268      2.639
REMARK  1 active torsions:
REMARK  status: ('A' for Active; 'I' for Inactive)
REMARK    1  A    between atoms: C4_8  and  N3_9 
ROOT
HETATM    1  C1  UNL     1      34.857  16.165   7.798  1.00  0.00     0.279 C 
HETATM    2  N1  UNL     1      35.622  16.927   8.759  1.00  0.00     0.003 N 
HETATM    3  C2  UNL     1      34.763  17.709   9.590  1.00  0.00     0.279 C 
HETATM    4  C3  UNL     1      36.600  16.144   9.514  1.00  0.00     0.476 C 
HETATM    5  N2  UNL     1      37.452  17.344   9.456  1.00  0.00     0.003 N 
ATOM      6  H21 UNL     1      38.469  17.285   9.509  1.00  0.00     0.283 HD
ATOM      7  H22 UNL     1      37.490  18.015  10.224  1.00  0.00     0.283 HD
HETATM    8  C4  UNL     1      36.756  17.648   8.194  1.00  0.00     0.585 C 
ENDROOT
BRANCH   8   9
HETATM    9  N3  UNL     1      37.420  16.946   7.130  1.00  0.00    -0.025 N 
ATOM     10  H33 UNL     1      37.177  15.955   7.148  1.00  0.00     0.278 HD
ATOM     11  H32 UNL     1      37.023  17.204   6.227  1.00  0.00     0.278 HD
ATOM     12  H31 UNL     1      38.432  17.068   7.124  1.00  0.00     0.278 HD
ENDBRANCH   8   9
TORSDOF 1
ENDMDL
