MODEL 1
REMARK VINA RESULT: -2.304472920      0.000      0.000
REMARK  0 active torsions:
REMARK  status: ('A' for Active; 'I' for Inactive)
ROOT
HETATM    1  N1  UNL     1      29.173  20.642   7.812  1.00  0.00    -0.056 NA
HETATM    2  C1  UNL     1      28.146  19.864   7.170  1.00  0.00     0.227 C 
HETATM    3  N2  UNL     1      26.894  20.117   7.362  1.00  0.00    -0.359 N 
ATOM      4  H2  UNL     1      26.661  20.890   7.986  1.00  0.00     0.162 HD
HETATM    5  C2  UNL     1      25.810  19.398   6.769  1.00  0.00     0.125 C 
HETATM    6  C3  UNL     1      26.140  18.018   6.319  1.00  0.00     0.046 C 
HETATM    7  C4  UNL     1      27.591  17.676   6.334  1.00  0.00     0.180 C 
HETATM    8  O1  UNL     1      28.442  18.809   6.320  1.00  0.00    -0.325 OA
ENDROOT
TORSDOF 0
ENDMDL
MODEL 2
REMARK VINA RESULT: -2.286244713      8.235      9.067
REMARK  0 active torsions:
REMARK  status: ('A' for Active; 'I' for Inactive)
ROOT
HETATM    1  N1  UNL     1      34.210  17.480   9.739  1.00  0.00    -0.056 NA
HETATM    2  C1  UNL     1      35.129  17.271   8.651  1.00  0.00     0.227 C 
HETATM    3  N2  UNL     1      34.878  16.415   7.717  1.00  0.00    -0.359 N 
ATOM      4  H2  UNL     1      34.004  15.892   7.780  1.00  0.00     0.162 HD
HETATM    5  C2  UNL     1      35.732  16.142   6.602  1.00  0.00     0.125 C 
HETATM    6  C3  UNL     1      37.163  16.497   6.803  1.00  0.00     0.046 C 
HETATM    7  C4  UNL     1      37.453  17.293   8.029  1.00  0.00     0.180 C 
HETATM    8  O1  UNL     1      36.322  17.970   8.548  1.00  0.00    -0.325 OA
ENDROOT
TORSDOF 0
ENDMDL
MODEL 3
REMARK VINA RESULT: -2.203578031      8.814      9.729
REMARK  0 active torsions:
REMARK  status: ('A' for Active; 'I' for Inactive)
ROOT
HETATM    1  N1  UNL     1      36.745  18.228   6.684  1.00  0.00    -0.056 NA
HETATM    2  C1  UNL     1      36.613  17.650   7.995  1.00  0.00     0.227 C 
HETATM    3  N2  UNL     1      37.452  16.767   8.426  1.00  0.00    -0.359 N 
ATOM      4  H2  UNL     1      38.212  16.496   7.801  1.00  0.00     0.162 HD
HETATM    5  C2  UNL     1      37.398  16.141   9.710  1.00  0.00     0.125 C 
HETATM    6  C3  UNL     1      36.059  16.146  10.358  1.00  0.00     0.046 C 
HETATM    7  C4  UNL     1      35.035  17.000   9.692  1.00  0.00     0.180 C 
HETATM    8  O1  UNL     1      35.587  18.004   8.858  1.00  0.00    -0.325 OA
ENDROOT
TORSDOF 0
ENDMDL
MODEL 4
REMARK VINA RESULT: -2.196173571     14.499     15.371
REMARK  0 active torsions:
REMARK  status: ('A' for Active; 'I' for Inactive)
ROOT
HETATM    1  N1  UNL     1      37.071  20.263  16.506  1.00  0.00    -0.056 NA
HETATM    2  C1  UNL     1      36.962  19.971  17.911  1.00  0.00     0.227 C 
HETATM    3  N2  UNL     1      37.453  18.886  18.411  1.00  0.00    -0.359 N 
ATOM      4  H2  UNL     1      37.922  18.244  17.771  1.00  0.00     0.162 HD
HETATM    5  C2  UNL     1      37.391  18.515  19.790  1.00  0.00     0.125 C 
HETATM    6  C3  UNL     1      36.299  19.161  20.567  1.00  0.00     0.046 C 
HETATM    7  C4  UNL     1      35.587  20.265  19.864  1.00  0.00     0.180 C 
HETATM    8  O1  UNL     1      36.327  20.830  18.796  1.00  0.00    -0.325 OA
ENDROOT
TORSDOF 0
ENDMDL
MODEL 5
REMARK VINA RESULT: -2.167214090      8.834      9.601
REMARK  0 active torsions:
REMARK  status: ('A' for Active; 'I' for Inactive)
ROOT
HETATM    1  N1  UNL     1      37.452  17.265  11.851  1.00  0.00    -0.056 NA
HETATM    2  C1  UNL     1      36.795  17.250  10.570  1.00  0.00     0.227 C 
HETATM    3  N2  UNL     1      35.560  17.609  10.446  1.00  0.00    -0.359 N 
ATOM      4  H2  UNL     1      35.068  17.903  11.290  1.00  0.00     0.162 HD
HETATM    5  C2  UNL     1      34.830  17.626   9.217  1.00  0.00     0.125 C 
HETATM    6  C3  UNL     1      35.366  16.734   8.153  1.00  0.00     0.046 C 
HETATM    7  C4  UNL     1      36.703  16.141   8.436  1.00  0.00     0.180 C 
HETATM    8  O1  UNL     1      37.445  16.853   9.411  1.00  0.00    -0.325 OA
ENDROOT
TORSDOF 0
ENDMDL
