MODEL 1
REMARK VINA RESULT: -8.720406248      0.000      0.000
REMARK  20 active torsions:
REMARK  status: ('A' for Active; 'I' for Inactive)
REMARK    1  A    between atoms: C2_2  and  N1_3 
REMARK    2  A    between atoms: C2_2  and  C20_53 
REMARK    3  A    between atoms: N1_3  and  C3_5 
REMARK    4  A    between atoms: C3_5  and  O1_6 
REMARK    5  A    between atoms: C3_5  and  C4_8 
REMARK    6  A    between atoms: C4_8  and  O2_12 
REMARK    7  A    between atoms: O2_12  and  C5_13 
REMARK    8  A    between atoms: N4_17  and  O4_18 
REMARK    9  A    between atoms: C6_20  and  S1_21 
REMARK   10  A    between atoms: S1_21  and  C7_22 
REMARK   11  A    between atoms: C7_22  and  O5_23 
REMARK   12  A    between atoms: C7_22  and  C8_25 
REMARK   13  A    between atoms: C7_22  and  C14_40 
REMARK   14  A    between atoms: C8_25  and  O6_26 
REMARK   15  A    between atoms: C8_25  and  N5_28 
REMARK   16  A    between atoms: N5_28  and  C9_30 
REMARK   17  A    between atoms: N6_33  and  S2_34 
REMARK   18  A    between atoms: C16_42  and  O10_43 
REMARK   19  A    between atoms: C17_45  and  O11_46 
REMARK   20  A    between atoms: C18_48  and  N7_49 
ROOT
HETATM    1  C7  UNL     1      17.224  20.449   1.906  1.00  0.00     0.205 C 
ENDROOT
BRANCH   1   2
HETATM    2  S1  UNL     1      16.081  19.252   2.399  1.00  0.00    -0.051 SA
BRANCH   2   3
HETATM    3  C6  UNL     1      14.429  19.193   1.919  1.00  0.00     0.183 A 
HETATM    4  C5  UNL     1      13.657  20.390   1.822  1.00  0.00     0.210 A 
HETATM    5  N3  UNL     1      12.403  19.897   1.481  1.00  0.00    -0.214 N 
HETATM    6  O3  UNL     1      12.438  18.673   1.390  1.00  0.00    -0.125 OA
ATOM      7  H3  UNL     1      11.573  20.470   1.329  1.00  0.00     0.199 HD
HETATM    8  N4  UNL     1      13.638  18.169   1.641  1.00  0.00    -0.091 N 
BRANCH   4   9
HETATM    9  O2  UNL     1      14.100  21.645   2.029  1.00  0.00    -0.272 OA
BRANCH   9  10
HETATM   10  C4  UNL     1      13.522  22.494   2.915  1.00  0.00     0.168 C 
HETATM   11  N2  UNL     1      12.794  23.519   2.597  1.00  0.00    -0.380 N 
ATOM     12  H22 UNL     1      12.360  24.157   3.264  1.00  0.00     0.158 HD
ATOM     13  H21 UNL     1      12.657  23.676   1.599  1.00  0.00     0.158 HD
BRANCH  10  14
HETATM   14  C3  UNL     1      13.727  22.260   4.410  1.00  0.00     0.290 C 
BRANCH  14  15
HETATM   15  N1  UNL     1      13.130  23.285   5.195  1.00  0.00    -0.377 N 
ATOM     16  H1  UNL     1      13.308  24.274   5.021  1.00  0.00     0.157 HD
BRANCH  15  17
HETATM   17  C2  UNL     1      12.274  22.845   6.233  1.00  0.00     0.176 C 
HETATM   18  C1  UNL     1      11.408  21.719   5.619  1.00  0.00     0.043 C 
BRANCH  17  19
HETATM   19  C20 UNL     1      12.877  22.348   7.468  1.00  0.00     0.196 C 
HETATM   20  O14 UNL     1      14.103  22.318   7.689  1.00  0.00    -0.646 OA
HETATM   21  O15 UNL     1      12.018  21.883   8.452  1.00  0.00    -0.646 OA
ENDBRANCH  17  19
ENDBRANCH  15  17
ENDBRANCH  14  15
BRANCH  14  22
HETATM   22  O1  UNL     1      15.055  22.105   4.649  1.00  0.00    -0.369 OA
ATOM     23  H1  UNL     1      15.592  22.760   4.220  1.00  0.00     0.212 HD
ENDBRANCH  14  22
ENDBRANCH  10  14
ENDBRANCH   9  10
ENDBRANCH   4   9
BRANCH   8  24
HETATM   24  O4  UNL     1      13.871  16.844   1.564  1.00  0.00    -0.260 OA
ATOM     25  H4  UNL     1      13.794  16.284   2.328  1.00  0.00     0.247 HD
ENDBRANCH   8  24
ENDBRANCH   2   3
ENDBRANCH   1   2
BRANCH   1  26
HETATM   26  O5  UNL     1      16.952  21.696   2.571  1.00  0.00    -0.368 OA
ATOM     27  H5  UNL     1      17.724  22.251   2.553  1.00  0.00     0.212 HD
ENDBRANCH   1  26
BRANCH   1  28
HETATM   28  C8  UNL     1      17.406  20.750   0.519  1.00  0.00     0.164 C 
BRANCH  28  29
HETATM   29  O6  UNL     1      16.823  21.906   0.191  1.00  0.00    -0.346 OA
ATOM     30  H6  UNL     1      17.385  22.646   0.390  1.00  0.00     0.219 HD
ENDBRANCH  28  29
BRANCH  28  31
HETATM   31  N5  UNL     1      18.008  20.194  -0.601  1.00  0.00    -0.357 N 
ATOM     32  H5  UNL     1      18.325  20.803  -1.355  1.00  0.00     0.162 HD
BRANCH  31  33
HETATM   33  C9  UNL     1      18.194  18.750  -0.718  1.00  0.00     0.178 C 
HETATM   34  C10 UNL     1      19.620  18.310  -0.810  1.00  0.00     0.056 C 
HETATM   35  C11 UNL     1      19.389  16.854  -1.286  1.00  0.00     0.147 C 
HETATM   36  N6  UNL     1      18.467  17.208  -2.403  1.00  0.00    -0.244 N 
HETATM   37  C13 UNL     1      17.519  18.114  -1.870  1.00  0.00     0.256 C 
HETATM   38  O9  UNL     1      16.381  18.353  -2.258  1.00  0.00    -0.270 OA
BRANCH  36  39
HETATM   39  S2  UNL     1      18.559  16.631  -4.003  1.00  0.00     0.231 S 
HETATM   40  C12 UNL     1      17.360  15.329  -4.258  1.00  0.00     0.186 C 
HETATM   41  O7  UNL     1      19.924  16.092  -4.324  1.00  0.00    -0.206 OA
HETATM   42  O8  UNL     1      18.281  17.704  -5.012  1.00  0.00    -0.206 OA
ENDBRANCH  36  39
ENDBRANCH  31  33
ENDBRANCH  28  31
ENDBRANCH   1  28
BRANCH   1  43
HETATM   43  C14 UNL     1      18.576  20.024   2.498  1.00  0.00     0.000 A 
HETATM   44  C15 UNL     1      18.791  18.712   2.744  1.00  0.00     0.051 A 
HETATM   45  C16 UNL     1      20.048  18.297   3.258  1.00  0.00     0.102 A 
HETATM   46  C17 UNL     1      21.028  19.237   3.491  1.00  0.00     0.132 A 
HETATM   47  C18 UNL     1      20.770  20.590   3.224  1.00  0.00     0.139 A 
HETATM   48  C19 UNL     1      19.522  20.944   2.730  1.00  0.00     0.050 A 
BRANCH  45  49
HETATM   49  O10 UNL     1      20.298  16.968   3.527  1.00  0.00    -0.358 OA
ATOM     50  H10 UNL     1      21.111  16.699   3.940  1.00  0.00     0.217 HD
ENDBRANCH  45  49
BRANCH  46  51
HETATM   51  O11 UNL     1      22.275  18.970   3.967  1.00  0.00    -0.356 OA
ATOM     52  H11 UNL     1      23.071  19.409   3.694  1.00  0.00     0.218 HD
ENDBRANCH  46  51
BRANCH  47  53
HETATM   53  N7  UNL     1      21.713  21.600   3.496  1.00  0.00    -0.113 N 
HETATM   54  O12 UNL     1      22.213  21.798   4.600  1.00  0.00    -0.532 OA
HETATM   55  O13 UNL     1      22.100  22.404   2.449  1.00  0.00    -0.532 OA
ENDBRANCH  47  53
ENDBRANCH   1  43
TORSDOF 20
ENDMDL
MODEL 2
REMARK VINA RESULT: -8.666728815      1.530      1.877
REMARK  20 active torsions:
REMARK  status: ('A' for Active; 'I' for Inactive)
REMARK    1  A    between atoms: C2_2  and  N1_3 
REMARK    2  A    between atoms: C2_2  and  C20_53 
REMARK    3  A    between atoms: N1_3  and  C3_5 
REMARK    4  A    between atoms: C3_5  and  O1_6 
REMARK    5  A    between atoms: C3_5  and  C4_8 
REMARK    6  A    between atoms: C4_8  and  O2_12 
REMARK    7  A    between atoms: O2_12  and  C5_13 
REMARK    8  A    between atoms: N4_17  and  O4_18 
REMARK    9  A    between atoms: C6_20  and  S1_21 
REMARK   10  A    between atoms: S1_21  and  C7_22 
REMARK   11  A    between atoms: C7_22  and  O5_23 
REMARK   12  A    between atoms: C7_22  and  C8_25 
REMARK   13  A    between atoms: C7_22  and  C14_40 
REMARK   14  A    between atoms: C8_25  and  O6_26 
REMARK   15  A    between atoms: C8_25  and  N5_28 
REMARK   16  A    between atoms: N5_28  and  C9_30 
REMARK   17  A    between atoms: N6_33  and  S2_34 
REMARK   18  A    between atoms: C16_42  and  O10_43 
REMARK   19  A    between atoms: C17_45  and  O11_46 
REMARK   20  A    between atoms: C18_48  and  N7_49 
ROOT
HETATM    1  C7  UNL     1      17.822  19.962   2.467  1.00  0.00     0.205 C 
ENDROOT
BRANCH   1   2
HETATM    2  S1  UNL     1      16.596  18.800   2.827  1.00  0.00    -0.051 SA
BRANCH   2   3
HETATM    3  C6  UNL     1      15.037  18.736   2.098  1.00  0.00     0.183 A 
HETATM    4  C5  UNL     1      14.436  19.915   1.563  1.00  0.00     0.210 A 
HETATM    5  N3  UNL     1      13.197  19.444   1.147  1.00  0.00    -0.214 N 
HETATM    6  O3  UNL     1      13.099  18.242   1.382  1.00  0.00    -0.125 OA
ATOM      7  H3  UNL     1      12.473  20.014   0.711  1.00  0.00     0.199 HD
HETATM    8  N4  UNL     1      14.180  17.738   1.959  1.00  0.00    -0.091 N 
BRANCH   4   9
HETATM    9  O2  UNL     1      14.989  21.143   1.515  1.00  0.00    -0.272 OA
BRANCH   9  10
HETATM   10  C4  UNL     1      14.431  22.227   2.109  1.00  0.00     0.168 C 
HETATM   11  N2  UNL     1      13.917  23.238   1.480  1.00  0.00    -0.380 N 
ATOM     12  H22 UNL     1      13.498  24.053   1.926  1.00  0.00     0.158 HD
ATOM     13  H21 UNL     1      13.942  23.188   0.461  1.00  0.00     0.158 HD
BRANCH  10  14
HETATM   14  C3  UNL     1      14.393  22.302   3.633  1.00  0.00     0.290 C 
BRANCH  14  15
HETATM   15  N1  UNL     1      13.118  22.710   4.114  1.00  0.00    -0.377 N 
ATOM     16  H1  UNL     1      12.886  23.690   4.272  1.00  0.00     0.157 HD
BRANCH  15  17
HETATM   17  C2  UNL     1      12.191  21.668   4.358  1.00  0.00     0.176 C 
HETATM   18  C1  UNL     1      11.610  21.939   5.768  1.00  0.00     0.043 C 
BRANCH  17  19
HETATM   19  C20 UNL     1      11.081  21.491   3.424  1.00  0.00     0.196 C 
HETATM   20  O14 UNL     1      11.162  21.677   2.194  1.00  0.00    -0.646 OA
HETATM   21  O15 UNL     1       9.864  21.087   3.952  1.00  0.00    -0.646 OA
ENDBRANCH  17  19
ENDBRANCH  15  17
ENDBRANCH  14  15
BRANCH  14  22
HETATM   22  O1  UNL     1      15.406  23.101   4.057  1.00  0.00    -0.369 OA
ATOM     23  H1  UNL     1      16.214  22.628   4.220  1.00  0.00     0.212 HD
ENDBRANCH  14  22
ENDBRANCH  10  14
ENDBRANCH   9  10
ENDBRANCH   4   9
BRANCH   8  24
HETATM   24  O4  UNL     1      14.263  16.428   2.267  1.00  0.00    -0.260 OA
ATOM     25  H4  UNL     1      14.696  16.134   3.060  1.00  0.00     0.247 HD
ENDBRANCH   8  24
ENDBRANCH   2   3
ENDBRANCH   1   2
BRANCH   1  26
HETATM   26  O5  UNL     1      17.647  21.135   3.283  1.00  0.00    -0.368 OA
ATOM     27  H5  UNL     1      18.139  21.047   4.091  1.00  0.00     0.212 HD
ENDBRANCH   1  26
BRANCH   1  28
HETATM   28  C8  UNL     1      18.018  20.417   1.124  1.00  0.00     0.164 C 
BRANCH  28  29
HETATM   29  O6  UNL     1      17.750  21.720   1.008  1.00  0.00    -0.346 OA
ATOM     30  H6  UNL     1      17.806  22.006   0.103  1.00  0.00     0.219 HD
ENDBRANCH  28  29
BRANCH  28  31
HETATM   31  N5  UNL     1      18.402  19.905  -0.107  1.00  0.00    -0.357 N 
ATOM     32  H5  UNL     1      19.367  20.016  -0.417  1.00  0.00     0.162 HD
BRANCH  31  33
HETATM   33  C9  UNL     1      17.446  19.209  -0.965  1.00  0.00     0.178 C 
HETATM   34  C10 UNL     1      17.164  17.796  -0.568  1.00  0.00     0.056 C 
HETATM   35  C11 UNL     1      16.461  17.321  -1.863  1.00  0.00     0.147 C 
HETATM   36  N6  UNL     1      17.515  17.816  -2.794  1.00  0.00    -0.244 N 
HETATM   37  C13 UNL     1      17.812  19.142  -2.397  1.00  0.00     0.256 C 
HETATM   38  O9  UNL     1      18.280  20.058  -3.063  1.00  0.00    -0.270 OA
BRANCH  36  39
HETATM   39  S2  UNL     1      18.218  16.939  -4.074  1.00  0.00     0.231 S 
HETATM   40  C12 UNL     1      17.202  15.526  -4.484  1.00  0.00     0.186 C 
HETATM   41  O7  UNL     1      19.596  16.450  -3.725  1.00  0.00    -0.206 OA
HETATM   42  O8  UNL     1      18.367  17.765  -5.316  1.00  0.00    -0.206 OA
ENDBRANCH  36  39
ENDBRANCH  31  33
ENDBRANCH  28  31
ENDBRANCH   1  28
BRANCH   1  43
HETATM   43  C14 UNL     1      19.142  19.370   2.984  1.00  0.00     0.000 A 
HETATM   44  C15 UNL     1      19.334  18.035   2.886  1.00  0.00     0.051 A 
HETATM   45  C16 UNL     1      20.562  17.475   3.325  1.00  0.00     0.102 A 
HETATM   46  C17 UNL     1      21.539  18.302   3.837  1.00  0.00     0.132 A 
HETATM   47  C18 UNL     1      21.305  19.682   3.924  1.00  0.00     0.139 A 
HETATM   48  C19 UNL     1      20.084  20.179   3.487  1.00  0.00     0.050 A 
BRANCH  45  49
HETATM   49  O10 UNL     1      20.789  16.117   3.247  1.00  0.00    -0.358 OA
ATOM     50  H10 UNL     1      20.973  15.701   2.413  1.00  0.00     0.217 HD
ENDBRANCH  45  49
BRANCH  46  51
HETATM   51  O11 UNL     1      22.760  17.895   4.279  1.00  0.00    -0.356 OA
ATOM     52  H11 UNL     1      23.248  18.296   4.989  1.00  0.00     0.218 HD
ENDBRANCH  46  51
BRANCH  47  53
HETATM   53  N7  UNL     1      22.242  20.568   4.490  1.00  0.00    -0.113 N 
HETATM   54  O12 UNL     1      22.929  20.308   5.475  1.00  0.00    -0.532 OA
HETATM   55  O13 UNL     1      22.400  21.795   3.888  1.00  0.00    -0.532 OA
ENDBRANCH  47  53
ENDBRANCH   1  43
TORSDOF 20
ENDMDL
MODEL 3
REMARK VINA RESULT: -8.652979494      1.195      1.549
REMARK  20 active torsions:
REMARK  status: ('A' for Active; 'I' for Inactive)
REMARK    1  A    between atoms: C2_2  and  N1_3 
REMARK    2  A    between atoms: C2_2  and  C20_53 
REMARK    3  A    between atoms: N1_3  and  C3_5 
REMARK    4  A    between atoms: C3_5  and  O1_6 
REMARK    5  A    between atoms: C3_5  and  C4_8 
REMARK    6  A    between atoms: C4_8  and  O2_12 
REMARK    7  A    between atoms: O2_12  and  C5_13 
REMARK    8  A    between atoms: N4_17  and  O4_18 
REMARK    9  A    between atoms: C6_20  and  S1_21 
REMARK   10  A    between atoms: S1_21  and  C7_22 
REMARK   11  A    between atoms: C7_22  and  O5_23 
REMARK   12  A    between atoms: C7_22  and  C8_25 
REMARK   13  A    between atoms: C7_22  and  C14_40 
REMARK   14  A    between atoms: C8_25  and  O6_26 
REMARK   15  A    between atoms: C8_25  and  N5_28 
REMARK   16  A    between atoms: N5_28  and  C9_30 
REMARK   17  A    between atoms: N6_33  and  S2_34 
REMARK   18  A    between atoms: C16_42  and  O10_43 
REMARK   19  A    between atoms: C17_45  and  O11_46 
REMARK   20  A    between atoms: C18_48  and  N7_49 
ROOT
HETATM    1  C7  UNL     1      17.511  20.290   1.719  1.00  0.00     0.205 C 
ENDROOT
BRANCH   1   2
HETATM    2  S1  UNL     1      16.297  19.197   2.279  1.00  0.00    -0.051 SA
BRANCH   2   3
HETATM    3  C6  UNL     1      14.695  19.081   1.658  1.00  0.00     0.183 A 
HETATM    4  C5  UNL     1      14.015  20.242   1.184  1.00  0.00     0.210 A 
HETATM    5  N3  UNL     1      12.768  19.728   0.847  1.00  0.00    -0.214 N 
HETATM    6  O3  UNL     1      12.733  18.520   1.069  1.00  0.00    -0.125 OA
ATOM      7  H3  UNL     1      11.994  20.274   0.470  1.00  0.00     0.199 HD
HETATM    8  N4  UNL     1      13.870  18.051   1.564  1.00  0.00    -0.091 N 
BRANCH   4   9
HETATM    9  O2  UNL     1      14.516  21.491   1.116  1.00  0.00    -0.272 OA
BRANCH   9  10
HETATM   10  C4  UNL     1      14.078  22.505   1.903  1.00  0.00     0.168 C 
HETATM   11  N2  UNL     1      13.547  23.606   1.470  1.00  0.00    -0.380 N 
ATOM     12  H22 UNL     1      13.218  24.369   2.062  1.00  0.00     0.158 HD
ATOM     13  H21 UNL     1      13.458  23.691   0.458  1.00  0.00     0.158 HD
BRANCH  10  14
HETATM   14  C3  UNL     1      14.210  22.379   3.418  1.00  0.00     0.290 C 
BRANCH  14  15
HETATM   15  N1  UNL     1      12.996  22.701   4.087  1.00  0.00    -0.377 N 
ATOM     16  H1  UNL     1      12.770  23.655   4.370  1.00  0.00     0.157 HD
BRANCH  15  17
HETATM   17  C2  UNL     1      12.122  21.616   4.332  1.00  0.00     0.176 C 
HETATM   18  C1  UNL     1      11.650  21.775   5.798  1.00  0.00     0.043 C 
BRANCH  17  19
HETATM   19  C20 UNL     1      10.947  21.462   3.478  1.00  0.00     0.196 C 
HETATM   20  O14 UNL     1      10.927  21.716   2.258  1.00  0.00    -0.646 OA
HETATM   21  O15 UNL     1       9.784  20.999   4.075  1.00  0.00    -0.646 OA
ENDBRANCH  17  19
ENDBRANCH  15  17
ENDBRANCH  14  15
BRANCH  14  22
HETATM   22  O1  UNL     1      15.264  23.131   3.829  1.00  0.00    -0.369 OA
ATOM     23  H1  UNL     1      15.578  23.731   3.163  1.00  0.00     0.212 HD
ENDBRANCH  14  22
ENDBRANCH  10  14
ENDBRANCH   9  10
ENDBRANCH   4   9
BRANCH   8  24
HETATM   24  O4  UNL     1      14.023  16.743   1.846  1.00  0.00    -0.260 OA
ATOM     25  H4  UNL     1      14.722  16.439   2.413  1.00  0.00     0.247 HD
ENDBRANCH   8  24
ENDBRANCH   2   3
ENDBRANCH   1   2
BRANCH   1  26
HETATM   26  O5  UNL     1      17.274  21.607   2.250  1.00  0.00    -0.368 OA
ATOM     27  H5  UNL     1      17.682  22.261   1.695  1.00  0.00     0.212 HD
ENDBRANCH   1  26
BRANCH   1  28
HETATM   28  C8  UNL     1      17.755  20.447   0.317  1.00  0.00     0.164 C 
BRANCH  28  29
HETATM   29  O6  UNL     1      17.064  21.472  -0.186  1.00  0.00    -0.346 OA
ATOM     30  H6  UNL     1      16.161  21.460   0.110  1.00  0.00     0.219 HD
ENDBRANCH  28  29
BRANCH  28  31
HETATM   31  N5  UNL     1      18.498  19.843  -0.687  1.00  0.00    -0.357 N 
ATOM     32  H5  UNL     1      19.023  20.425  -1.341  1.00  0.00     0.162 HD
BRANCH  31  33
HETATM   33  C9  UNL     1      18.542  18.390  -0.823  1.00  0.00     0.178 C 
HETATM   34  C10 UNL     1      19.918  17.807  -0.855  1.00  0.00     0.056 C 
HETATM   35  C11 UNL     1      19.565  16.390  -1.371  1.00  0.00     0.147 C 
HETATM   36  N6  UNL     1      18.742  16.854  -2.524  1.00  0.00    -0.244 N 
HETATM   37  C13 UNL     1      17.865  17.844  -2.020  1.00  0.00     0.256 C 
HETATM   38  O9  UNL     1      16.779  18.205  -2.459  1.00  0.00    -0.270 OA
BRANCH  36  39
HETATM   39  S2  UNL     1      18.855  16.295  -4.129  1.00  0.00     0.231 S 
HETATM   40  C12 UNL     1      17.734  14.926  -4.386  1.00  0.00     0.186 C 
HETATM   41  O7  UNL     1      20.248  15.839  -4.464  1.00  0.00    -0.206 OA
HETATM   42  O8  UNL     1      18.508  17.356  -5.128  1.00  0.00    -0.206 OA
ENDBRANCH  36  39
ENDBRANCH  31  33
ENDBRANCH  28  31
ENDBRANCH   1  28
BRANCH   1  43
HETATM   43  C14 UNL     1      18.820  19.867   2.402  1.00  0.00     0.000 A 
HETATM   44  C15 UNL     1      19.026  18.554   2.651  1.00  0.00     0.051 A 
HETATM   45  C16 UNL     1      20.245  18.142   3.249  1.00  0.00     0.102 A 
HETATM   46  C17 UNL     1      21.200  19.086   3.560  1.00  0.00     0.132 A 
HETATM   47  C18 UNL     1      20.953  20.440   3.287  1.00  0.00     0.139 A 
HETATM   48  C19 UNL     1      19.741  20.791   2.709  1.00  0.00     0.050 A 
BRANCH  45  49
HETATM   49  O10 UNL     1      20.485  16.812   3.524  1.00  0.00    -0.358 OA
ATOM     50  H10 UNL     1      21.371  16.493   3.650  1.00  0.00     0.217 HD
ENDBRANCH  45  49
BRANCH  46  51
HETATM   51  O11 UNL     1      22.412  18.822   4.121  1.00  0.00    -0.356 OA
ATOM     52  H11 UNL     1      23.253  18.988   3.712  1.00  0.00     0.218 HD
ENDBRANCH  46  51
BRANCH  47  53
HETATM   53  N7  UNL     1      21.867  21.454   3.635  1.00  0.00    -0.113 N 
HETATM   54  O12 UNL     1      22.342  21.598   4.759  1.00  0.00    -0.532 OA
HETATM   55  O13 UNL     1      22.255  22.324   2.643  1.00  0.00    -0.532 OA
ENDBRANCH  47  53
ENDBRANCH   1  43
TORSDOF 20
ENDMDL
MODEL 4
REMARK VINA RESULT: -8.621487869      1.570      2.041
REMARK  20 active torsions:
REMARK  status: ('A' for Active; 'I' for Inactive)
REMARK    1  A    between atoms: C2_2  and  N1_3 
REMARK    2  A    between atoms: C2_2  and  C20_53 
REMARK    3  A    between atoms: N1_3  and  C3_5 
REMARK    4  A    between atoms: C3_5  and  O1_6 
REMARK    5  A    between atoms: C3_5  and  C4_8 
REMARK    6  A    between atoms: C4_8  and  O2_12 
REMARK    7  A    between atoms: O2_12  and  C5_13 
REMARK    8  A    between atoms: N4_17  and  O4_18 
REMARK    9  A    between atoms: C6_20  and  S1_21 
REMARK   10  A    between atoms: S1_21  and  C7_22 
REMARK   11  A    between atoms: C7_22  and  O5_23 
REMARK   12  A    between atoms: C7_22  and  C8_25 
REMARK   13  A    between atoms: C7_22  and  C14_40 
REMARK   14  A    between atoms: C8_25  and  O6_26 
REMARK   15  A    between atoms: C8_25  and  N5_28 
REMARK   16  A    between atoms: N5_28  and  C9_30 
REMARK   17  A    between atoms: N6_33  and  S2_34 
REMARK   18  A    between atoms: C16_42  and  O10_43 
REMARK   19  A    between atoms: C17_45  and  O11_46 
REMARK   20  A    between atoms: C18_48  and  N7_49 
ROOT
HETATM    1  C7  UNL     1      17.294  20.427   1.975  1.00  0.00     0.205 C 
ENDROOT
BRANCH   1   2
HETATM    2  S1  UNL     1      16.156  19.221   2.459  1.00  0.00    -0.051 SA
BRANCH   2   3
HETATM    3  C6  UNL     1      14.511  19.143   1.956  1.00  0.00     0.183 A 
HETATM    4  C5  UNL     1      13.728  20.332   1.848  1.00  0.00     0.210 A 
HETATM    5  N3  UNL     1      12.484  19.825   1.490  1.00  0.00    -0.214 N 
HETATM    6  O3  UNL     1      12.534  18.602   1.399  1.00  0.00    -0.125 OA
ATOM      7  H3  UNL     1      11.650  20.389   1.326  1.00  0.00     0.199 HD
HETATM    8  N4  UNL     1      13.736  18.111   1.667  1.00  0.00    -0.091 N 
BRANCH   4   9
HETATM    9  O2  UNL     1      14.154  21.592   2.061  1.00  0.00    -0.272 OA
BRANCH   9  10
HETATM   10  C4  UNL     1      13.544  22.440   2.926  1.00  0.00     0.168 C 
HETATM   11  N2  UNL     1      12.790  23.438   2.583  1.00  0.00    -0.380 N 
ATOM     12  H22 UNL     1      12.332  24.076   3.233  1.00  0.00     0.158 HD
ATOM     13  H21 UNL     1      12.658  23.572   1.580  1.00  0.00     0.158 HD
BRANCH  10  14
HETATM   14  C3  UNL     1      13.742  22.239   4.427  1.00  0.00     0.290 C 
BRANCH  14  15
HETATM   15  N1  UNL     1      13.132  23.276   5.187  1.00  0.00    -0.377 N 
ATOM     16  H1  UNL     1      13.306  24.263   4.995  1.00  0.00     0.157 HD
BRANCH  15  17
HETATM   17  C2  UNL     1      12.269  22.851   6.225  1.00  0.00     0.176 C 
HETATM   18  C1  UNL     1      11.406  21.716   5.620  1.00  0.00     0.043 C 
BRANCH  17  19
HETATM   19  C20 UNL     1      12.862  22.373   7.471  1.00  0.00     0.196 C 
HETATM   20  O14 UNL     1      14.087  22.331   7.695  1.00  0.00    -0.646 OA
HETATM   21  O15 UNL     1      11.995  21.941   8.463  1.00  0.00    -0.646 OA
ENDBRANCH  17  19
ENDBRANCH  15  17
ENDBRANCH  14  15
BRANCH  14  22
HETATM   22  O1  UNL     1      15.069  22.100   4.677  1.00  0.00    -0.369 OA
ATOM     23  H1  UNL     1      15.467  21.380   4.202  1.00  0.00     0.212 HD
ENDBRANCH  14  22
ENDBRANCH  10  14
ENDBRANCH   9  10
ENDBRANCH   4   9
BRANCH   8  24
HETATM   24  O4  UNL     1      13.985  16.789   1.594  1.00  0.00    -0.260 OA
ATOM     25  H4  UNL     1      14.460  16.416   0.861  1.00  0.00     0.247 HD
ENDBRANCH   8  24
ENDBRANCH   2   3
ENDBRANCH   1   2
BRANCH   1  26
HETATM   26  O5  UNL     1      17.020  21.666   2.653  1.00  0.00    -0.368 OA
ATOM     27  H5  UNL     1      16.703  22.314   2.034  1.00  0.00     0.212 HD
ENDBRANCH   1  26
BRANCH   1  28
HETATM   28  C8  UNL     1      17.473  20.742   0.591  1.00  0.00     0.164 C 
BRANCH  28  29
HETATM   29  O6  UNL     1      16.749  21.806   0.237  1.00  0.00    -0.346 OA
ATOM     30  H6  UNL     1      17.063  22.185  -0.576  1.00  0.00     0.219 HD
ENDBRANCH  28  29
BRANCH  28  31
HETATM   31  N5  UNL     1      18.176  20.266  -0.507  1.00  0.00    -0.357 N 
ATOM     32  H5  UNL     1      18.907  20.843  -0.923  1.00  0.00     0.162 HD
BRANCH  31  33
HETATM   33  C9  UNL     1      17.886  18.952  -1.076  1.00  0.00     0.178 C 
HETATM   34  C10 UNL     1      16.456  18.529  -0.972  1.00  0.00     0.056 C 
HETATM   35  C11 UNL     1      16.628  17.027  -1.308  1.00  0.00     0.147 C 
HETATM   36  N6  UNL     1      17.728  16.782  -0.332  1.00  0.00    -0.244 N 
HETATM   37  C13 UNL     1      18.663  17.829  -0.508  1.00  0.00     0.256 C 
HETATM   38  O9  UNL     1      19.861  17.843  -0.249  1.00  0.00    -0.270 OA
BRANCH  36  39
HETATM   39  S2  UNL     1      17.818  15.492   0.777  1.00  0.00     0.231 S 
HETATM   40  C12 UNL     1      17.506  13.940  -0.056  1.00  0.00     0.186 C 
HETATM   41  O7  UNL     1      16.822  15.643   1.892  1.00  0.00    -0.206 OA
HETATM   42  O8  UNL     1      19.165  15.392   1.427  1.00  0.00    -0.206 OA
ENDBRANCH  36  39
ENDBRANCH  31  33
ENDBRANCH  28  31
ENDBRANCH   1  28
BRANCH   1  43
HETATM   43  C14 UNL     1      18.649  20.000   2.561  1.00  0.00     0.000 A 
HETATM   44  C15 UNL     1      18.862  18.688   2.812  1.00  0.00     0.051 A 
HETATM   45  C16 UNL     1      20.120  18.272   3.319  1.00  0.00     0.102 A 
HETATM   46  C17 UNL     1      21.105  19.211   3.542  1.00  0.00     0.132 A 
HETATM   47  C18 UNL     1      20.849  20.563   3.271  1.00  0.00     0.139 A 
HETATM   48  C19 UNL     1      19.599  20.919   2.783  1.00  0.00     0.050 A 
BRANCH  45  49
HETATM   49  O10 UNL     1      20.369  16.944   3.593  1.00  0.00    -0.358 OA
ATOM     50  H10 UNL     1      20.002  16.528   4.364  1.00  0.00     0.217 HD
ENDBRANCH  45  49
BRANCH  46  51
HETATM   51  O11 UNL     1      22.353  18.942   4.012  1.00  0.00    -0.356 OA
ATOM     52  H11 UNL     1      23.092  18.672   3.480  1.00  0.00     0.218 HD
ENDBRANCH  46  51
BRANCH  47  53
HETATM   53  N7  UNL     1      21.796  21.572   3.533  1.00  0.00    -0.113 N 
HETATM   54  O12 UNL     1      22.348  21.735   4.618  1.00  0.00    -0.532 OA
HETATM   55  O13 UNL     1      22.125  22.416   2.498  1.00  0.00    -0.532 OA
ENDBRANCH  47  53
ENDBRANCH   1  43
TORSDOF 20
ENDMDL
MODEL 5
REMARK VINA RESULT: -8.546304788      2.116      2.676
REMARK  20 active torsions:
REMARK  status: ('A' for Active; 'I' for Inactive)
REMARK    1  A    between atoms: C2_2  and  N1_3 
REMARK    2  A    between atoms: C2_2  and  C20_53 
REMARK    3  A    between atoms: N1_3  and  C3_5 
REMARK    4  A    between atoms: C3_5  and  O1_6 
REMARK    5  A    between atoms: C3_5  and  C4_8 
REMARK    6  A    between atoms: C4_8  and  O2_12 
REMARK    7  A    between atoms: O2_12  and  C5_13 
REMARK    8  A    between atoms: N4_17  and  O4_18 
REMARK    9  A    between atoms: C6_20  and  S1_21 
REMARK   10  A    between atoms: S1_21  and  C7_22 
REMARK   11  A    between atoms: C7_22  and  O5_23 
REMARK   12  A    between atoms: C7_22  and  C8_25 
REMARK   13  A    between atoms: C7_22  and  C14_40 
REMARK   14  A    between atoms: C8_25  and  O6_26 
REMARK   15  A    between atoms: C8_25  and  N5_28 
REMARK   16  A    between atoms: N5_28  and  C9_30 
REMARK   17  A    between atoms: N6_33  and  S2_34 
REMARK   18  A    between atoms: C16_42  and  O10_43 
REMARK   19  A    between atoms: C17_45  and  O11_46 
REMARK   20  A    between atoms: C18_48  and  N7_49 
ROOT
HETATM    1  C7  UNL     1      18.138  20.328   1.463  1.00  0.00     0.205 C 
ENDROOT
BRANCH   1   2
HETATM    2  S1  UNL     1      16.999  19.515   2.476  1.00  0.00    -0.051 SA
BRANCH   2   3
HETATM    3  C6  UNL     1      15.398  19.073   2.024  1.00  0.00     0.183 A 
HETATM    4  C5  UNL     1      14.510  20.038   1.459  1.00  0.00     0.210 A 
HETATM    5  N3  UNL     1      13.342  19.301   1.309  1.00  0.00    -0.214 N 
HETATM    6  O3  UNL     1      13.514  18.148   1.694  1.00  0.00    -0.125 OA
ATOM      7  H3  UNL     1      12.467  19.665   0.932  1.00  0.00     0.199 HD
HETATM    8  N4  UNL     1      14.743  17.930   2.144  1.00  0.00    -0.091 N 
BRANCH   4   9
HETATM    9  O2  UNL     1      14.800  21.323   1.178  1.00  0.00    -0.272 OA
BRANCH   9  10
HETATM   10  C4  UNL     1      14.334  22.363   1.915  1.00  0.00     0.168 C 
HETATM   11  N2  UNL     1      13.818  23.447   1.427  1.00  0.00    -0.380 N 
ATOM     12  H22 UNL     1      13.467  24.229   1.981  1.00  0.00     0.158 HD
ATOM     13  H21 UNL     1      13.764  23.498   0.410  1.00  0.00     0.158 HD
BRANCH  10  14
HETATM   14  C3  UNL     1      14.413  22.288   3.438  1.00  0.00     0.290 C 
BRANCH  14  15
HETATM   15  N1  UNL     1      13.175  22.624   4.051  1.00  0.00    -0.377 N 
ATOM     16  H1  UNL     1      12.949  23.579   4.330  1.00  0.00     0.157 HD
BRANCH  15  17
HETATM   17  C2  UNL     1      12.275  21.550   4.250  1.00  0.00     0.176 C 
HETATM   18  C1  UNL     1      11.758  21.692   5.702  1.00  0.00     0.043 C 
BRANCH  17  19
HETATM   19  C20 UNL     1      11.125  21.431   3.356  1.00  0.00     0.196 C 
HETATM   20  O14 UNL     1      11.178  21.581   2.120  1.00  0.00    -0.646 OA
HETATM   21  O15 UNL     1       9.900  21.129   3.933  1.00  0.00    -0.646 OA
ENDBRANCH  17  19
ENDBRANCH  15  17
ENDBRANCH  14  15
BRANCH  14  22
HETATM   22  O1  UNL     1      15.448  23.060   3.859  1.00  0.00    -0.369 OA
ATOM     23  H1  UNL     1      15.890  23.514   3.151  1.00  0.00     0.212 HD
ENDBRANCH  14  22
ENDBRANCH  10  14
ENDBRANCH   9  10
ENDBRANCH   4   9
BRANCH   8  24
HETATM   24  O4  UNL     1      15.121  16.715   2.585  1.00  0.00    -0.260 OA
ATOM     25  H4  UNL     1      15.463  16.593   3.463  1.00  0.00     0.247 HD
ENDBRANCH   8  24
ENDBRANCH   2   3
ENDBRANCH   1   2
BRANCH   1  26
HETATM   26  O5  UNL     1      17.646  21.635   1.116  1.00  0.00    -0.368 OA
ATOM     27  H5  UNL     1      17.467  21.680   0.184  1.00  0.00     0.212 HD
ENDBRANCH   1  26
BRANCH   1  28
HETATM   28  C8  UNL     1      18.591  19.719   0.249  1.00  0.00     0.164 C 
BRANCH  28  29
HETATM   29  O6  UNL     1      17.962  20.226  -0.814  1.00  0.00    -0.346 OA
ATOM     30  H6  UNL     1      17.315  19.619  -1.155  1.00  0.00     0.219 HD
ENDBRANCH  28  29
BRANCH  28  31
HETATM   31  N5  UNL     1      19.495  18.748  -0.158  1.00  0.00    -0.357 N 
ATOM     32  H5  UNL     1      20.490  18.882   0.021  1.00  0.00     0.162 HD
BRANCH  31  33
HETATM   33  C9  UNL     1      19.044  17.537  -0.838  1.00  0.00     0.178 C 
HETATM   34  C10 UNL     1      18.668  17.729  -2.272  1.00  0.00     0.056 C 
HETATM   35  C11 UNL     1      17.923  16.392  -2.505  1.00  0.00     0.147 C 
HETATM   36  N6  UNL     1      17.043  16.503  -1.306  1.00  0.00    -0.244 N 
HETATM   37  C13 UNL     1      17.881  16.859  -0.223  1.00  0.00     0.256 C 
HETATM   38  O9  UNL     1      17.710  16.672   0.976  1.00  0.00    -0.270 OA
BRANCH  36  39
HETATM   39  S2  UNL     1      15.358  16.254  -1.270  1.00  0.00     0.231 S 
HETATM   40  C12 UNL     1      14.829  15.404  -2.752  1.00  0.00     0.186 C 
HETATM   41  O7  UNL     1      14.605  17.550  -1.169  1.00  0.00    -0.206 OA
HETATM   42  O8  UNL     1      14.930  15.425  -0.097  1.00  0.00    -0.206 OA
ENDBRANCH  36  39
ENDBRANCH  31  33
ENDBRANCH  28  31
ENDBRANCH   1  28
BRANCH   1  43
HETATM   43  C14 UNL     1      19.357  20.635   2.345  1.00  0.00     0.000 A 
HETATM   44  C15 UNL     1      19.709  19.742   3.298  1.00  0.00     0.051 A 
HETATM   45  C16 UNL     1      20.854  19.993   4.098  1.00  0.00     0.102 A 
HETATM   46  C17 UNL     1      21.591  21.138   3.886  1.00  0.00     0.132 A 
HETATM   47  C18 UNL     1      21.197  22.042   2.888  1.00  0.00     0.139 A 
HETATM   48  C19 UNL     1      20.065  21.754   2.139  1.00  0.00     0.050 A 
BRANCH  45  49
HETATM   49  O10 UNL     1      21.236  19.107   5.084  1.00  0.00    -0.358 OA
ATOM     50  H10 UNL     1      21.930  19.327   5.694  1.00  0.00     0.217 HD
ENDBRANCH  45  49
BRANCH  46  51
HETATM   51  O11 UNL     1      22.713  21.487   4.573  1.00  0.00    -0.356 OA
ATOM     52  H11 UNL     1      23.519  21.802   4.181  1.00  0.00     0.218 HD
ENDBRANCH  46  51
BRANCH  47  53
HETATM   53  N7  UNL     1      21.878  23.255   2.665  1.00  0.00    -0.113 N 
HETATM   54  O12 UNL     1      21.326  24.348   2.568  1.00  0.00    -0.532 OA
HETATM   55  O13 UNL     1      23.249  23.202   2.562  1.00  0.00    -0.532 OA
ENDBRANCH  47  53
ENDBRANCH   1  43
TORSDOF 20
ENDMDL
