MODEL 1
REMARK VINA RESULT: -8.713388819      0.000      0.000
REMARK  14 active torsions:
REMARK  status: ('A' for Active; 'I' for Inactive)
REMARK    1  A    between atoms: O1_2  and  N1_3 
REMARK    2  A    between atoms: N1_3  and  C2_5 
REMARK    3  A    between atoms: C2_5  and  C3_6 
REMARK    4  A    between atoms: C2_5  and  C13_32 
REMARK       I    between atoms: C3_6  and  N2_8 
REMARK    5  A    between atoms: C6_13  and  N4_14 
REMARK    6  A    between atoms: N6_21  and  C8_22 
REMARK    7  A    between atoms: C8_22  and  O4_23 
REMARK    8  A    between atoms: C9_25  and  O5_26 
REMARK    9  A    between atoms: C11_28  and  C12_29 
REMARK   10  A    between atoms: C14_35  and  O8_36 
REMARK   11  A    between atoms: O8_36  and  S1_37 
REMARK   12  A    between atoms: N8_41  and  C15_42 
REMARK   13  A    between atoms: C18_45  and  S2_46 
REMARK   14  A    between atoms: S2_46  and  N9_47 
ROOT
HETATM    1  C2  UNL     1      -0.478   5.236  37.014  1.00  0.00     0.168 C 
ENDROOT
BRANCH   1   2
HETATM    2  N1  UNL     1      -1.497   4.585  36.648  1.00  0.00    -0.258 N 
ATOM      3  H1  UNL     1      -2.403   4.912  36.982  1.00  0.00     0.194 HD
BRANCH   2   4
HETATM    4  O1  UNL     1      -1.490   3.487  35.851  1.00  0.00    -0.285 OA
HETATM    5  C1  UNL     1      -2.635   2.778  35.458  1.00  0.00     0.237 C 
ENDBRANCH   2   4
ENDBRANCH   1   2
BRANCH   1   6
HETATM    6  C3  UNL     1      -0.324   5.902  38.271  1.00  0.00     0.281 C 
HETATM    7  O2  UNL     1       0.842   5.959  38.819  1.00  0.00    -0.265 OA
HETATM    8  N2  UNL     1      -1.403   6.527  39.000  1.00  0.00    -0.285 N 
HETATM    9  C4  UNL     1      -1.354   6.563  40.420  1.00  0.00     0.152 A 
HETATM   10  C11 UNL     1      -2.431   7.188  38.272  1.00  0.00     0.243 C 
HETATM   11  C5  UNL     1      -1.878   7.648  41.089  1.00  0.00     0.155 A 
HETATM   12  C7  UNL     1      -0.753   5.556  41.157  1.00  0.00     0.290 A 
HETATM   13  N3  UNL     1      -1.815   7.755  42.421  1.00  0.00    -0.174 N 
HETATM   14  N6  UNL     1      -2.578   8.624  40.283  1.00  0.00    -0.314 N 
HETATM   15  C6  UNL     1      -1.223   6.765  43.102  1.00  0.00     0.680 A 
ATOM     16  H3  UNL     1      -2.205   8.566  42.903  1.00  0.00     0.186 HD
HETATM   17  N5  UNL     1      -0.703   5.689  42.492  1.00  0.00    -0.154 N 
ATOM     18  H5  UNL     1      -0.262   4.960  43.052  1.00  0.00     0.187 HD
HETATM   19  C9  UNL     1      -3.248   8.157  39.105  1.00  0.00     0.259 C 
HETATM   20  O3  UNL     1      -0.267   4.544  40.641  1.00  0.00    -0.265 OA
BRANCH  15  21
HETATM   21  N4  UNL     1      -1.152   6.854  44.392  1.00  0.00    -0.234 N 
ATOM     22  H42 UNL     1      -1.988   6.674  44.949  1.00  0.00     0.174 HD
ATOM     23  H41 UNL     1      -0.259   7.102  44.817  1.00  0.00     0.174 HD
ENDBRANCH  15  21
BRANCH  14  24
HETATM   24  C8  UNL     1      -2.593   9.989  40.686  1.00  0.00     0.294 C 
BRANCH  24  25
HETATM   25  O4  UNL     1      -1.297  10.362  41.113  1.00  0.00    -0.382 OA
ATOM     26  H4  UNL     1      -1.349  10.727  41.989  1.00  0.00     0.211 HD
ENDBRANCH  24  25
ENDBRANCH  14  24
BRANCH  19  27
HETATM   27  O5  UNL     1      -4.479   7.590  39.458  1.00  0.00    -0.369 OA
HETATM   28  C10 UNL     1      -5.069   6.901  38.399  1.00  0.00     0.204 C 
ENDBRANCH  19  27
BRANCH  10  29
HETATM   29  C12 UNL     1      -1.812   8.079  37.210  1.00  0.00     0.201 C 
HETATM   30  O6  UNL     1      -2.049   7.848  35.999  1.00  0.00    -0.646 OA
HETATM   31  O7  UNL     1      -0.991   9.147  37.519  1.00  0.00    -0.646 OA
ENDBRANCH  10  29
ENDBRANCH   1   6
BRANCH   1  32
HETATM   32  C13 UNL     1       0.654   5.317  36.055  1.00  0.00     0.158 A 
HETATM   33  N7  UNL     1       1.951   5.571  36.340  1.00  0.00    -0.302 N 
HETATM   34  C14 UNL     1       2.691   5.566  35.217  1.00  0.00     0.266 A 
ATOM     35  H7  UNL     1       2.317   5.743  37.277  1.00  0.00     0.171 HD
HETATM   36  N8  UNL     1       1.830   5.303  34.217  1.00  0.00    -0.217 N 
HETATM   37  N10 UNL     1       0.614   5.154  34.721  1.00  0.00    -0.273 N 
ATOM     38  H10 UNL     1      -0.225   4.948  34.179  1.00  0.00     0.189 HD
BRANCH  34  39
HETATM   39  O8  UNL     1       4.063   5.785  35.088  1.00  0.00    -0.177 OA
BRANCH  39  40
HETATM   40  S1  UNL     1       4.632   7.378  35.260  1.00  0.00     0.259 S 
HETATM   41  O9  UNL     1       3.487   8.309  35.605  1.00  0.00    -0.572 OA
HETATM   42  O10 UNL     1       5.289   7.854  34.019  1.00  0.00    -0.572 OA
HETATM   43  O11 UNL     1       5.682   7.390  36.583  1.00  0.00    -0.572 OA
ENDBRANCH  39  40
ENDBRANCH  34  39
BRANCH  36  44
HETATM   44  C15 UNL     1       2.244   5.215  32.859  1.00  0.00     0.060 A 
HETATM   45  C16 UNL     1       2.284   3.994  32.219  1.00  0.00     0.033 A 
HETATM   46  C17 UNL     1       2.688   3.888  30.887  1.00  0.00     0.027 A 
HETATM   47  C18 UNL     1       3.060   5.002  30.168  1.00  0.00     0.079 A 
HETATM   48  C19 UNL     1       3.024   6.223  30.799  1.00  0.00     0.027 A 
HETATM   49  C20 UNL     1       2.623   6.312  32.114  1.00  0.00     0.033 A 
BRANCH  47  50
HETATM   50  S2  UNL     1       3.559   4.819  28.501  1.00  0.00     0.256 S 
HETATM   51  O12 UNL     1       3.691   6.181  27.859  1.00  0.00    -0.201 OA
HETATM   52  O13 UNL     1       2.494   4.014  27.807  1.00  0.00    -0.201 OA
BRANCH  50  53
HETATM   53  N9  UNL     1       5.056   3.965  28.385  1.00  0.00    -0.324 N 
ATOM     54  H92 UNL     1       5.683   3.816  29.176  1.00  0.00     0.169 HD
ATOM     55  H91 UNL     1       5.223   3.638  27.433  1.00  0.00     0.169 HD
ENDBRANCH  50  53
ENDBRANCH  47  50
ENDBRANCH  36  44
ENDBRANCH   1  32
TORSDOF 14
ENDMDL
MODEL 2
REMARK VINA RESULT: -8.690895551      5.971      9.828
REMARK  14 active torsions:
REMARK  status: ('A' for Active; 'I' for Inactive)
REMARK    1  A    between atoms: O1_2  and  N1_3 
REMARK    2  A    between atoms: N1_3  and  C2_5 
REMARK    3  A    between atoms: C2_5  and  C3_6 
REMARK    4  A    between atoms: C2_5  and  C13_32 
REMARK       I    between atoms: C3_6  and  N2_8 
REMARK    5  A    between atoms: C6_13  and  N4_14 
REMARK    6  A    between atoms: N6_21  and  C8_22 
REMARK    7  A    between atoms: C8_22  and  O4_23 
REMARK    8  A    between atoms: C9_25  and  O5_26 
REMARK    9  A    between atoms: C11_28  and  C12_29 
REMARK   10  A    between atoms: C14_35  and  O8_36 
REMARK   11  A    between atoms: O8_36  and  S1_37 
REMARK   12  A    between atoms: N8_41  and  C15_42 
REMARK   13  A    between atoms: C18_45  and  S2_46 
REMARK   14  A    between atoms: S2_46  and  N9_47 
ROOT
HETATM    1  C2  UNL     1       5.735   4.934  29.484  1.00  0.00     0.168 C 
ENDROOT
BRANCH   1   2
HETATM    2  N1  UNL     1       6.575   4.216  28.872  1.00  0.00    -0.258 N 
ATOM      3  H1  UNL     1       6.217   3.398  28.379  1.00  0.00     0.194 HD
BRANCH   2   4
HETATM    4  O1  UNL     1       7.912   4.439  28.811  1.00  0.00    -0.285 OA
HETATM    5  C1  UNL     1       8.791   3.790  27.930  1.00  0.00     0.237 C 
ENDBRANCH   2   4
ENDBRANCH   1   2
BRANCH   1   6
HETATM    6  C3  UNL     1       4.944   4.518  30.601  1.00  0.00     0.281 C 
HETATM    7  O2  UNL     1       4.633   3.273  30.729  1.00  0.00    -0.265 OA
HETATM    8  N2  UNL     1       4.444   5.409  31.623  1.00  0.00    -0.285 N 
HETATM    9  C4  UNL     1       3.213   5.110  32.265  1.00  0.00     0.152 A 
HETATM   10  C11 UNL     1       5.255   6.502  32.037  1.00  0.00     0.243 C 
HETATM   11  C5  UNL     1       3.043   5.434  33.593  1.00  0.00     0.155 A 
HETATM   12  C7  UNL     1       2.183   4.457  31.605  1.00  0.00     0.290 A 
HETATM   13  N3  UNL     1       1.923   5.132  34.259  1.00  0.00    -0.174 N 
HETATM   14  N6  UNL     1       4.107   6.199  34.208  1.00  0.00    -0.314 N 
HETATM   15  C6  UNL     1       0.951   4.498  33.591  1.00  0.00     0.680 A 
ATOM     16  H3  UNL     1       1.813   5.376  35.243  1.00  0.00     0.186 HD
HETATM   17  N5  UNL     1       1.070   4.165  32.297  1.00  0.00    -0.154 N 
ATOM     18  H5  UNL     1       0.303   3.682  31.830  1.00  0.00     0.187 HD
HETATM   19  C9  UNL     1       4.852   7.094  33.373  1.00  0.00     0.259 C 
HETATM   20  O3  UNL     1       2.245   4.137  30.414  1.00  0.00    -0.265 OA
BRANCH  15  21
HETATM   21  N4  UNL     1      -0.141   4.196  34.221  1.00  0.00    -0.234 N 
ATOM     22  H42 UNL     1      -0.079   3.780  35.150  1.00  0.00     0.174 HD
ATOM     23  H41 UNL     1      -1.035   4.385  33.769  1.00  0.00     0.174 HD
ENDBRANCH  15  21
BRANCH  14  24
HETATM   24  C8  UNL     1       4.364   6.051  35.600  1.00  0.00     0.294 C 
BRANCH  24  25
HETATM   25  O4  UNL     1       5.762   6.037  35.817  1.00  0.00    -0.382 OA
ATOM     26  H4  UNL     1       6.025   6.859  36.216  1.00  0.00     0.211 HD
ENDBRANCH  24  25
ENDBRANCH  14  24
BRANCH  19  27
HETATM   27  O5  UNL     1       4.128   8.279  33.192  1.00  0.00    -0.369 OA
HETATM   28  C10 UNL     1       4.507   8.960  32.036  1.00  0.00     0.204 C 
ENDBRANCH  19  27
BRANCH  10  29
HETATM   29  C12 UNL     1       6.674   6.021  32.284  1.00  0.00     0.201 C 
HETATM   30  O6  UNL     1       6.869   5.066  33.076  1.00  0.00    -0.646 OA
HETATM   31  O7  UNL     1       7.772   6.589  31.668  1.00  0.00    -0.646 OA
ENDBRANCH  10  29
ENDBRANCH   1   6
BRANCH   1  32
HETATM   32  C13 UNL     1       5.557   6.328  29.001  1.00  0.00     0.158 A 
HETATM   33  N7  UNL     1       4.449   6.864  28.442  1.00  0.00    -0.302 N 
HETATM   34  C14 UNL     1       4.656   8.155  28.128  1.00  0.00     0.266 A 
ATOM     35  H7  UNL     1       3.577   6.359  28.280  1.00  0.00     0.171 HD
HETATM   36  N8  UNL     1       5.921   8.421  28.502  1.00  0.00    -0.217 N 
HETATM   37  N10 UNL     1       6.457   7.327  29.024  1.00  0.00    -0.273 N 
ATOM     38  H10 UNL     1       7.406   7.253  29.387  1.00  0.00     0.189 HD
BRANCH  34  39
HETATM   39  O8  UNL     1       3.765   9.053  27.538  1.00  0.00    -0.177 OA
BRANCH  39  40
HETATM   40  S1  UNL     1       3.487   8.912  25.866  1.00  0.00     0.259 S 
HETATM   41  O9  UNL     1       2.363   7.929  25.603  1.00  0.00    -0.572 OA
HETATM   42  O10 UNL     1       4.705   8.459  25.153  1.00  0.00    -0.572 OA
HETATM   43  O11 UNL     1       2.951  10.419  25.323  1.00  0.00    -0.572 OA
ENDBRANCH  39  40
ENDBRANCH  34  39
BRANCH  36  44
HETATM   44  C15 UNL     1       6.513   9.702  28.329  1.00  0.00     0.060 A 
HETATM   45  C16 UNL     1       6.536  10.607  29.369  1.00  0.00     0.033 A 
HETATM   46  C17 UNL     1       7.113  11.869  29.219  1.00  0.00     0.027 A 
HETATM   47  C18 UNL     1       7.679  12.252  28.023  1.00  0.00     0.079 A 
HETATM   48  C19 UNL     1       7.660  11.356  26.980  1.00  0.00     0.027 A 
HETATM   49  C20 UNL     1       7.087  10.114  27.145  1.00  0.00     0.033 A 
BRANCH  47  50
HETATM   50  S2  UNL     1       8.389  13.845  27.882  1.00  0.00     0.256 S 
HETATM   51  O12 UNL     1       7.529  14.705  26.986  1.00  0.00    -0.201 OA
HETATM   52  O13 UNL     1       9.757  13.668  27.282  1.00  0.00    -0.201 OA
BRANCH  50  53
HETATM   53  N9  UNL     1       8.560  14.594  29.429  1.00  0.00    -0.324 N 
ATOM     54  H92 UNL     1       9.272  14.326  30.109  1.00  0.00     0.169 HD
ATOM     55  H91 UNL     1       7.864  15.326  29.566  1.00  0.00     0.169 HD
ENDBRANCH  50  53
ENDBRANCH  47  50
ENDBRANCH  36  44
ENDBRANCH   1  32
TORSDOF 14
ENDMDL
MODEL 3
REMARK VINA RESULT: -8.579730629      3.184     10.326
REMARK  14 active torsions:
REMARK  status: ('A' for Active; 'I' for Inactive)
REMARK    1  A    between atoms: O1_2  and  N1_3 
REMARK    2  A    between atoms: N1_3  and  C2_5 
REMARK    3  A    between atoms: C2_5  and  C3_6 
REMARK    4  A    between atoms: C2_5  and  C13_32 
REMARK       I    between atoms: C3_6  and  N2_8 
REMARK    5  A    between atoms: C6_13  and  N4_14 
REMARK    6  A    between atoms: N6_21  and  C8_22 
REMARK    7  A    between atoms: C8_22  and  O4_23 
REMARK    8  A    between atoms: C9_25  and  O5_26 
REMARK    9  A    between atoms: C11_28  and  C12_29 
REMARK   10  A    between atoms: C14_35  and  O8_36 
REMARK   11  A    between atoms: O8_36  and  S1_37 
REMARK   12  A    between atoms: N8_41  and  C15_42 
REMARK   13  A    between atoms: C18_45  and  S2_46 
REMARK   14  A    between atoms: S2_46  and  N9_47 
ROOT
HETATM    1  C2  UNL     1       1.900   4.224  31.303  1.00  0.00     0.168 C 
ENDROOT
BRANCH   1   2
HETATM    2  N1  UNL     1       1.208   3.572  30.472  1.00  0.00    -0.258 N 
ATOM      3  H1  UNL     1       1.680   3.237  29.633  1.00  0.00     0.194 HD
BRANCH   2   4
HETATM    4  O1  UNL     1      -0.112   3.279  30.599  1.00  0.00    -0.285 OA
HETATM    5  C1  UNL     1      -0.778   2.272  29.884  1.00  0.00     0.237 C 
ENDBRANCH   2   4
ENDBRANCH   1   2
BRANCH   1   6
HETATM    6  C3  UNL     1       3.324   4.361  31.272  1.00  0.00     0.281 C 
HETATM    7  O2  UNL     1       4.050   3.614  32.032  1.00  0.00    -0.265 OA
HETATM    8  N2  UNL     1       4.034   5.304  30.437  1.00  0.00    -0.285 N 
HETATM    9  C4  UNL     1       5.267   5.843  30.892  1.00  0.00     0.152 A 
HETATM   10  C11 UNL     1       3.532   5.581  29.135  1.00  0.00     0.243 C 
HETATM   11  C5  UNL     1       6.261   6.125  29.980  1.00  0.00     0.155 A 
HETATM   12  C7  UNL     1       5.522   6.056  32.237  1.00  0.00     0.290 A 
HETATM   13  N3  UNL     1       7.458   6.588  30.358  1.00  0.00    -0.174 N 
HETATM   14  N6  UNL     1       5.913   5.976  28.583  1.00  0.00    -0.314 N 
HETATM   15  C6  UNL     1       7.671   6.778  31.666  1.00  0.00     0.680 A 
ATOM     16  H3  UNL     1       8.185   6.789  29.671  1.00  0.00     0.186 HD
HETATM   17  N5  UNL     1       6.731   6.521  32.589  1.00  0.00    -0.154 N 
ATOM     18  H5  UNL     1       6.939   6.681  33.574  1.00  0.00     0.187 HD
HETATM   19  C9  UNL     1       4.550   6.216  28.208  1.00  0.00     0.259 C 
HETATM   20  O3  UNL     1       4.687   5.840  33.121  1.00  0.00    -0.265 OA
BRANCH  15  21
HETATM   21  N4  UNL     1       8.825   7.225  32.049  1.00  0.00    -0.234 N 
ATOM     22  H42 UNL     1       9.610   6.577  32.120  1.00  0.00     0.174 HD
ATOM     23  H41 UNL     1       8.917   8.216  32.270  1.00  0.00     0.174 HD
ENDBRANCH  15  21
BRANCH  14  24
HETATM   24  C8  UNL     1       6.918   5.619  27.642  1.00  0.00     0.294 C 
BRANCH  24  25
HETATM   25  O4  UNL     1       7.113   6.691  26.739  1.00  0.00    -0.382 OA
ATOM     26  H4  UNL     1       7.226   7.497  27.229  1.00  0.00     0.211 HD
ENDBRANCH  24  25
ENDBRANCH  14  24
BRANCH  19  27
HETATM   27  O5  UNL     1       4.329   7.594  28.100  1.00  0.00    -0.369 OA
HETATM   28  C10 UNL     1       3.289   7.897  27.221  1.00  0.00     0.204 C 
ENDBRANCH  19  27
BRANCH  10  29
HETATM   29  C12 UNL     1       3.189   4.279  28.434  1.00  0.00     0.201 C 
HETATM   30  O6  UNL     1       2.228   4.251  27.625  1.00  0.00    -0.646 OA
HETATM   31  O7  UNL     1       3.894   3.109  28.645  1.00  0.00    -0.646 OA
ENDBRANCH  10  29
ENDBRANCH   1   6
BRANCH   1  32
HETATM   32  C13 UNL     1       1.172   4.903  32.406  1.00  0.00     0.158 A 
HETATM   33  N7  UNL     1       0.596   6.126  32.374  1.00  0.00    -0.302 N 
HETATM   34  C14 UNL     1       0.028   6.411  33.560  1.00  0.00     0.266 A 
ATOM     35  H7  UNL     1       0.592   6.746  31.564  1.00  0.00     0.171 HD
HETATM   36  N8  UNL     1       0.261   5.340  34.340  1.00  0.00    -0.217 N 
HETATM   37  N10 UNL     1       0.944   4.440  33.648  1.00  0.00    -0.273 N 
ATOM     38  H10 UNL     1       1.251   3.535  34.002  1.00  0.00     0.189 HD
BRANCH  34  39
HETATM   39  O8  UNL     1      -0.662   7.566  33.929  1.00  0.00    -0.177 OA
BRANCH  39  40
HETATM   40  S1  UNL     1       0.249   8.962  34.264  1.00  0.00     0.259 S 
HETATM   41  O9  UNL     1       0.236   9.253  35.751  1.00  0.00    -0.572 OA
HETATM   42  O10 UNL     1      -0.278  10.139  33.534  1.00  0.00    -0.572 OA
HETATM   43  O11 UNL     1       1.851   8.619  33.851  1.00  0.00    -0.572 OA
ENDBRANCH  39  40
ENDBRANCH  34  39
BRANCH  36  44
HETATM   44  C15 UNL     1      -0.192   5.266  35.686  1.00  0.00     0.060 A 
HETATM   45  C16 UNL     1       0.637   5.644  36.722  1.00  0.00     0.033 A 
HETATM   46  C17 UNL     1       0.211   5.578  38.050  1.00  0.00     0.027 A 
HETATM   47  C18 UNL     1      -1.053   5.133  38.368  1.00  0.00     0.079 A 
HETATM   48  C19 UNL     1      -1.885   4.754  37.342  1.00  0.00     0.027 A 
HETATM   49  C20 UNL     1      -1.450   4.825  36.036  1.00  0.00     0.033 A 
BRANCH  47  50
HETATM   50  S2  UNL     1      -1.540   5.069  40.048  1.00  0.00     0.256 S 
HETATM   51  O12 UNL     1      -1.860   6.464  40.536  1.00  0.00    -0.201 OA
HETATM   52  O13 UNL     1      -0.385   4.496  40.822  1.00  0.00    -0.201 OA
BRANCH  50  53
HETATM   53  N9  UNL     1      -2.911   4.041  40.264  1.00  0.00    -0.324 N 
ATOM     54  H92 UNL     1      -3.222   3.363  39.568  1.00  0.00     0.169 HD
ATOM     55  H91 UNL     1      -3.357   4.203  41.167  1.00  0.00     0.169 HD
ENDBRANCH  50  53
ENDBRANCH  47  50
ENDBRANCH  36  44
ENDBRANCH   1  32
TORSDOF 14
ENDMDL
MODEL 4
REMARK VINA RESULT: -8.563744736      4.746     11.481
REMARK  14 active torsions:
REMARK  status: ('A' for Active; 'I' for Inactive)
REMARK    1  A    between atoms: O1_2  and  N1_3 
REMARK    2  A    between atoms: N1_3  and  C2_5 
REMARK    3  A    between atoms: C2_5  and  C3_6 
REMARK    4  A    between atoms: C2_5  and  C13_32 
REMARK       I    between atoms: C3_6  and  N2_8 
REMARK    5  A    between atoms: C6_13  and  N4_14 
REMARK    6  A    between atoms: N6_21  and  C8_22 
REMARK    7  A    between atoms: C8_22  and  O4_23 
REMARK    8  A    between atoms: C9_25  and  O5_26 
REMARK    9  A    between atoms: C11_28  and  C12_29 
REMARK   10  A    between atoms: C14_35  and  O8_36 
REMARK   11  A    between atoms: O8_36  and  S1_37 
REMARK   12  A    between atoms: N8_41  and  C15_42 
REMARK   13  A    between atoms: C18_45  and  S2_46 
REMARK   14  A    between atoms: S2_46  and  N9_47 
ROOT
HETATM    1  C2  UNL     1       6.447   7.595  29.576  1.00  0.00     0.168 C 
ENDROOT
BRANCH   1   2
HETATM    2  N1  UNL     1       7.517   6.981  29.308  1.00  0.00    -0.258 N 
ATOM      3  H1  UNL     1       8.248   7.506  28.828  1.00  0.00     0.194 HD
BRANCH   2   4
HETATM    4  O1  UNL     1       7.780   5.683  29.603  1.00  0.00    -0.285 OA
HETATM    5  C1  UNL     1       7.885   4.654  28.654  1.00  0.00     0.237 C 
ENDBRANCH   2   4
ENDBRANCH   1   2
BRANCH   1   6
HETATM    6  C3  UNL     1       6.192   8.977  29.306  1.00  0.00     0.281 C 
HETATM    7  O2  UNL     1       6.896   9.879  29.900  1.00  0.00    -0.265 OA
HETATM    8  N2  UNL     1       5.172   9.457  28.401  1.00  0.00    -0.285 N 
HETATM    9  C4  UNL     1       4.545  10.705  28.659  1.00  0.00     0.152 A 
HETATM   10  C11 UNL     1       4.904   8.716  27.216  1.00  0.00     0.243 C 
HETATM   11  C5  UNL     1       4.159  11.501  27.602  1.00  0.00     0.155 A 
HETATM   12  C7  UNL     1       4.348  11.173  29.948  1.00  0.00     0.290 A 
HETATM   13  N3  UNL     1       3.609  12.706  27.787  1.00  0.00    -0.174 N 
HETATM   14  N6  UNL     1       4.299  10.927  26.281  1.00  0.00    -0.314 N 
HETATM   15  C6  UNL     1       3.436  13.128  29.046  1.00  0.00     0.680 A 
ATOM     16  H3  UNL     1       3.331  13.285  26.995  1.00  0.00     0.186 HD
HETATM   17  N5  UNL     1       3.794  12.386  30.106  1.00  0.00    -0.154 N 
ATOM     18  H5  UNL     1       3.643  12.749  31.046  1.00  0.00     0.187 HD
HETATM   19  C9  UNL     1       4.163   9.506  26.155  1.00  0.00     0.259 C 
HETATM   20  O3  UNL     1       4.654  10.523  30.953  1.00  0.00    -0.265 OA
BRANCH  15  21
HETATM   21  N4  UNL     1       2.906  14.294  29.244  1.00  0.00    -0.234 N 
ATOM     22  H42 UNL     1       3.241  15.090  28.701  1.00  0.00     0.174 HD
ATOM     23  H41 UNL     1       2.166  14.383  29.939  1.00  0.00     0.174 HD
ENDBRANCH  15  21
BRANCH  14  24
HETATM   24  C8  UNL     1       4.547  11.778  25.168  1.00  0.00     0.294 C 
BRANCH  24  25
HETATM   25  O4  UNL     1       3.336  12.392  24.771  1.00  0.00    -0.382 OA
ATOM     26  H4  UNL     1       3.126  12.124  23.883  1.00  0.00     0.211 HD
ENDBRANCH  24  25
ENDBRANCH  14  24
BRANCH  19  27
HETATM   27  O5  UNL     1       2.805   9.164  26.142  1.00  0.00    -0.369 OA
HETATM   28  C10 UNL     1       2.531   8.048  26.932  1.00  0.00     0.204 C 
ENDBRANCH  19  27
BRANCH  10  29
HETATM   29  C12 UNL     1       6.211   8.357  26.533  1.00  0.00     0.201 C 
HETATM   30  O6  UNL     1       6.507   7.147  26.370  1.00  0.00    -0.646 OA
HETATM   31  O7  UNL     1       7.099   9.310  26.073  1.00  0.00    -0.646 OA
ENDBRANCH  10  29
ENDBRANCH   1   6
BRANCH   1  32
HETATM   32  C13 UNL     1       5.363   6.814  30.226  1.00  0.00     0.158 A 
HETATM   33  N7  UNL     1       4.455   6.015  29.621  1.00  0.00    -0.302 N 
HETATM   34  C14 UNL     1       3.627   5.470  30.530  1.00  0.00     0.266 A 
ATOM     35  H7  UNL     1       4.406   5.848  28.616  1.00  0.00     0.171 HD
HETATM   36  N8  UNL     1       4.033   5.945  31.722  1.00  0.00    -0.217 N 
HETATM   37  N10 UNL     1       5.070   6.748  31.537  1.00  0.00    -0.273 N 
ATOM     38  H10 UNL     1       5.571   7.241  32.276  1.00  0.00     0.189 HD
BRANCH  34  39
HETATM   39  O8  UNL     1       2.562   4.595  30.311  1.00  0.00    -0.177 OA
BRANCH  39  40
HETATM   40  S1  UNL     1       2.689   3.502  29.014  1.00  0.00     0.259 S 
HETATM   41  O9  UNL     1       1.526   2.530  29.032  1.00  0.00    -0.572 OA
HETATM   42  O10 UNL     1       3.959   2.741  29.071  1.00  0.00    -0.572 OA
HETATM   43  O11 UNL     1       2.546   4.403  27.591  1.00  0.00    -0.572 OA
ENDBRANCH  39  40
ENDBRANCH  34  39
BRANCH  36  44
HETATM   44  C15 UNL     1       3.392   5.591  32.941  1.00  0.00     0.060 A 
HETATM   45  C16 UNL     1       3.720   6.237  34.115  1.00  0.00     0.033 A 
HETATM   46  C17 UNL     1       3.102   5.905  35.321  1.00  0.00     0.027 A 
HETATM   47  C18 UNL     1       2.143   4.917  35.378  1.00  0.00     0.079 A 
HETATM   48  C19 UNL     1       1.811   4.268  34.213  1.00  0.00     0.027 A 
HETATM   49  C20 UNL     1       2.430   4.608  33.030  1.00  0.00     0.033 A 
BRANCH  47  50
HETATM   50  S2  UNL     1       1.398   4.535  36.915  1.00  0.00     0.256 S 
HETATM   51  O12 UNL     1       2.177   3.432  37.595  1.00  0.00    -0.201 OA
HETATM   52  O13 UNL     1      -0.006   4.080  36.624  1.00  0.00    -0.201 OA
BRANCH  50  53
HETATM   53  N9  UNL     1       1.325   5.923  37.939  1.00  0.00    -0.324 N 
ATOM     54  H92 UNL     1       2.017   6.673  37.922  1.00  0.00     0.169 HD
ATOM     55  H91 UNL     1       0.510   5.890  38.552  1.00  0.00     0.169 HD
ENDBRANCH  50  53
ENDBRANCH  47  50
ENDBRANCH  36  44
ENDBRANCH   1  32
TORSDOF 14
ENDMDL
MODEL 5
REMARK VINA RESULT: -8.537455555      4.566     11.395
REMARK  14 active torsions:
REMARK  status: ('A' for Active; 'I' for Inactive)
REMARK    1  A    between atoms: O1_2  and  N1_3 
REMARK    2  A    between atoms: N1_3  and  C2_5 
REMARK    3  A    between atoms: C2_5  and  C3_6 
REMARK    4  A    between atoms: C2_5  and  C13_32 
REMARK       I    between atoms: C3_6  and  N2_8 
REMARK    5  A    between atoms: C6_13  and  N4_14 
REMARK    6  A    between atoms: N6_21  and  C8_22 
REMARK    7  A    between atoms: C8_22  and  O4_23 
REMARK    8  A    between atoms: C9_25  and  O5_26 
REMARK    9  A    between atoms: C11_28  and  C12_29 
REMARK   10  A    between atoms: C14_35  and  O8_36 
REMARK   11  A    between atoms: O8_36  and  S1_37 
REMARK   12  A    between atoms: N8_41  and  C15_42 
REMARK   13  A    between atoms: C18_45  and  S2_46 
REMARK   14  A    between atoms: S2_46  and  N9_47 
ROOT
HETATM    1  C2  UNL     1       6.294   6.788  30.328  1.00  0.00     0.168 C 
ENDROOT
BRANCH   1   2
HETATM    2  N1  UNL     1       7.310   6.041  30.407  1.00  0.00    -0.258 N 
ATOM      3  H1  UNL     1       8.162   6.452  30.789  1.00  0.00     0.194 HD
BRANCH   2   4
HETATM    4  O1  UNL     1       7.366   4.739  30.028  1.00  0.00    -0.285 OA
HETATM    5  C1  UNL     1       8.210   4.235  29.026  1.00  0.00     0.237 C 
ENDBRANCH   2   4
ENDBRANCH   1   2
BRANCH   1   6
HETATM    6  C3  UNL     1       6.299   8.155  29.908  1.00  0.00     0.281 C 
HETATM    7  O2  UNL     1       7.075   8.998  30.500  1.00  0.00    -0.265 OA
HETATM    8  N2  UNL     1       5.474   8.685  28.847  1.00  0.00    -0.285 N 
HETATM    9  C4  UNL     1       5.036  10.035  28.914  1.00  0.00     0.152 A 
HETATM   10  C11 UNL     1       5.214   7.872  27.708  1.00  0.00     0.243 C 
HETATM   11  C5  UNL     1       4.899  10.762  27.751  1.00  0.00     0.155 A 
HETATM   12  C7  UNL     1       4.782  10.662  30.123  1.00  0.00     0.290 A 
HETATM   13  N3  UNL     1       4.538  12.050  27.761  1.00  0.00    -0.174 N 
HETATM   14  N6  UNL     1       5.082  10.036  26.514  1.00  0.00    -0.314 N 
HETATM   15  C6  UNL     1       4.304  12.626  28.947  1.00  0.00     0.680 A 
ATOM     16  H3  UNL     1       4.443  12.577  26.892  1.00  0.00     0.186 HD
HETATM   17  N5  UNL     1       4.421  11.956  30.104  1.00  0.00    -0.154 N 
ATOM     18  H5  UNL     1       4.233  12.437  30.983  1.00  0.00     0.187 HD
HETATM   19  C9  UNL     1       4.729   8.647  26.499  1.00  0.00     0.259 C 
HETATM   20  O3  UNL     1       4.870  10.085  31.211  1.00  0.00    -0.265 OA
BRANCH  15  21
HETATM   21  N4  UNL     1       3.954  13.873  28.974  1.00  0.00    -0.234 N 
ATOM     22  H42 UNL     1       3.422  14.257  28.193  1.00  0.00     0.174 HD
ATOM     23  H41 UNL     1       4.221  14.438  29.780  1.00  0.00     0.174 HD
ENDBRANCH  15  21
BRANCH  14  24
HETATM   24  C8  UNL     1       5.583  10.714  25.367  1.00  0.00     0.294 C 
BRANCH  24  25
HETATM   25  O4  UNL     1       6.529   9.890  24.714  1.00  0.00    -0.382 OA
ATOM     26  H4  UNL     1       7.339  10.374  24.598  1.00  0.00     0.211 HD
ENDBRANCH  24  25
ENDBRANCH  14  24
BRANCH  19  27
HETATM   27  O5  UNL     1       3.343   8.516  26.351  1.00  0.00    -0.369 OA
HETATM   28  C10 UNL     1       2.796   7.609  27.258  1.00  0.00     0.204 C 
ENDBRANCH  19  27
BRANCH  10  29
HETATM   29  C12 UNL     1       6.510   7.246  27.223  1.00  0.00     0.201 C 
HETATM   30  O6  UNL     1       6.589   5.997  27.121  1.00  0.00    -0.646 OA
HETATM   31  O7  UNL     1       7.619   7.996  26.883  1.00  0.00    -0.646 OA
ENDBRANCH  10  29
ENDBRANCH   1   6
BRANCH   1  32
HETATM   32  C13 UNL     1       4.986   6.193  30.705  1.00  0.00     0.158 A 
HETATM   33  N7  UNL     1       4.195   5.407  29.940  1.00  0.00    -0.302 N 
HETATM   34  C14 UNL     1       3.085   5.056  30.615  1.00  0.00     0.266 A 
ATOM     35  H7  UNL     1       4.409   5.120  28.985  1.00  0.00     0.171 HD
HETATM   36  N8  UNL     1       3.195   5.639  31.822  1.00  0.00    -0.217 N 
HETATM   37  N10 UNL     1       4.332   6.317  31.873  1.00  0.00    -0.273 N 
ATOM     38  H10 UNL     1       4.662   6.852  32.676  1.00  0.00     0.189 HD
BRANCH  34  39
HETATM   39  O8  UNL     1       2.027   4.257  30.178  1.00  0.00    -0.177 OA
BRANCH  39  40
HETATM   40  S1  UNL     1       2.279   3.291  28.801  1.00  0.00     0.259 S 
HETATM   41  O9  UNL     1       2.445   4.163  27.572  1.00  0.00    -0.572 OA
HETATM   42  O10 UNL     1       1.150   2.355  28.584  1.00  0.00    -0.572 OA
HETATM   43  O11 UNL     1       3.746   2.483  29.024  1.00  0.00    -0.572 OA
ENDBRANCH  39  40
ENDBRANCH  34  39
BRANCH  36  44
HETATM   44  C15 UNL     1       2.201   5.498  32.829  1.00  0.00     0.060 A 
HETATM   45  C16 UNL     1       2.216   4.410  33.677  1.00  0.00     0.033 A 
HETATM   46  C17 UNL     1       1.249   4.254  34.672  1.00  0.00     0.027 A 
HETATM   47  C18 UNL     1       0.246   5.184  34.837  1.00  0.00     0.079 A 
HETATM   48  C19 UNL     1       0.224   6.271  33.996  1.00  0.00     0.027 A 
HETATM   49  C20 UNL     1       1.186   6.411  33.019  1.00  0.00     0.033 A 
BRANCH  47  50
HETATM   50  S2  UNL     1      -0.944   4.945  36.098  1.00  0.00     0.256 S 
HETATM   51  O12 UNL     1      -0.286   5.097  37.450  1.00  0.00    -0.201 OA
HETATM   52  O13 UNL     1      -1.487   3.552  35.935  1.00  0.00    -0.201 OA
BRANCH  50  53
HETATM   53  N9  UNL     1      -2.250   6.065  35.949  1.00  0.00    -0.324 N 
ATOM     54  H92 UNL     1      -3.210   5.787  35.744  1.00  0.00     0.169 HD
ATOM     55  H91 UNL     1      -1.933   7.024  36.091  1.00  0.00     0.169 HD
ENDBRANCH  50  53
ENDBRANCH  47  50
ENDBRANCH  36  44
ENDBRANCH   1  32
TORSDOF 14
ENDMDL
