MODEL 1
REMARK VINA RESULT: -7.717575695      0.000      0.000
REMARK  20 active torsions:
REMARK  status: ('A' for Active; 'I' for Inactive)
REMARK    1  A    between atoms: C2_2  and  C3_3 
REMARK    2  A    between atoms: C3_3  and  O1_4 
REMARK    3  A    between atoms: C4_7  and  O3_8 
REMARK    4  A    between atoms: O3_8  and  C5_9 
REMARK    5  A    between atoms: C7_13  and  O6_14 
REMARK    6  A    between atoms: C8_16  and  O7_17 
REMARK    7  A    between atoms: C8_16  and  C11_22 
REMARK    8  A    between atoms: O7_17  and  C9_18 
REMARK    9  A    between atoms: C9_18  and  C10_19 
REMARK   10  A    between atoms: C11_22  and  O11_24 
REMARK   11  A    between atoms: C13_26  and  C14_27 
REMARK   12  A    between atoms: C16_31  and  O14_32 
REMARK   13  A    between atoms: C17_34  and  C18_35 
REMARK   14  A    between atoms: C18_35  and  O16_37 
REMARK   15  A    between atoms: C20_39  and  O17_40 
REMARK   16  A    between atoms: O17_40  and  C21_41 
REMARK   17  A    between atoms: C21_41  and  C22_43 
REMARK   18  A    between atoms: C22_43  and  C23_44 
REMARK   19  A    between atoms: C23_44  and  C24_45 
REMARK   20  A    between atoms: C25_48  and  O21_49 
ROOT
HETATM    1  C3  UNL     1       5.943  10.100  29.839  1.00  0.00     0.206 C 
HETATM    2  O2  UNL     1       6.477  11.404  29.805  1.00  0.00    -0.296 OA
HETATM    3  C4  UNL     1       6.779  11.949  28.619  1.00  0.00     0.427 C 
HETATM    4  O5  UNL     1       6.046  11.493  27.528  1.00  0.00    -0.296 OA
HETATM    5  C7  UNL     1       4.899  10.957  27.945  1.00  0.00     0.233 C 
HETATM    6  C8  UNL     1       3.794  10.691  27.061  1.00  0.00     0.241 C 
HETATM    7  C13 UNL     1       3.175   9.481  27.710  1.00  0.00     0.075 C 
HETATM    8  C15 UNL     1       3.952   8.964  28.612  1.00  0.00    -0.007 C 
HETATM    9  C16 UNL     1       3.762   7.788  29.481  1.00  0.00     0.191 C 
HETATM   10  C17 UNL     1       5.070   7.029  29.572  1.00  0.00     0.082 C 
HETATM   11  C20 UNL     1       6.100   7.427  28.856  1.00  0.00     0.102 C 
HETATM   12  C25 UNL     1       6.068   8.635  27.915  1.00  0.00     0.200 C 
HETATM   13  C26 UNL     1       5.227   9.651  28.665  1.00  0.00     0.139 C 
ENDROOT
BRANCH   6  14
HETATM   14  O7  UNL     1       2.728  11.615  27.181  1.00  0.00    -0.350 OA
BRANCH  14  15
HETATM   15  C9  UNL     1       2.858  12.857  26.741  1.00  0.00     0.283 C 
BRANCH  15  16
HETATM   16  C10 UNL     1       1.910  13.730  27.547  1.00  0.00     0.197 C 
HETATM   17  O8  UNL     1       2.154  13.845  28.766  1.00  0.00    -0.646 OA
HETATM   18  O9  UNL     1       0.847  14.351  26.931  1.00  0.00    -0.646 OA
ENDBRANCH  15  16
ENDBRANCH  14  15
ENDBRANCH   6  14
BRANCH   6  19
HETATM   19  C11 UNL     1       4.089  10.506  25.629  1.00  0.00     0.304 C 
HETATM   20  O10 UNL     1       3.141  10.550  24.748  1.00  0.00    -0.261 OA
BRANCH  19  21
HETATM   21  O11 UNL     1       5.326  10.281  25.081  1.00  0.00    -0.324 OA
HETATM   22  C12 UNL     1       5.535   9.505  23.903  1.00  0.00     0.213 C 
ENDBRANCH  19  21
ENDBRANCH   6  19
BRANCH   5  23
HETATM   23  O6  UNL     1       4.333  11.778  28.971  1.00  0.00    -0.361 OA
ATOM     24  H6  UNL     1       4.271  11.280  29.778  1.00  0.00     0.213 HD
ENDBRANCH   5  23
BRANCH   7  25
HETATM   25  C14 UNL     1       1.833   9.043  27.277  1.00  0.00     0.209 C 
HETATM   26  O12 UNL     1       0.818   9.551  27.770  1.00  0.00    -0.644 OA
HETATM   27  O13 UNL     1       1.700   8.063  26.322  1.00  0.00    -0.644 OA
ENDBRANCH   7  25
BRANCH   3  28
HETATM   28  O3  UNL     1       8.185  11.991  28.359  1.00  0.00    -0.265 OA
BRANCH  28  29
HETATM   29  C5  UNL     1       8.754  12.882  27.484  1.00  0.00     0.258 C 
HETATM   30  C6  UNL     1       9.487  14.065  28.003  1.00  0.00     0.126 C 
HETATM   31  O4  UNL     1       8.641  12.679  26.253  1.00  0.00    -0.266 OA
ENDBRANCH  28  29
ENDBRANCH   3  28
BRANCH   1  32
HETATM   32  C2  UNL     1       5.416   9.989  31.206  1.00  0.00     0.032 C 
HETATM   33  C1  UNL     1       6.017   9.466  32.264  1.00  0.00     0.012 C 
ENDBRANCH   1  32
BRANCH   1  34
HETATM   34  O1  UNL     1       7.202   9.371  29.906  1.00  0.00    -0.361 OA
ATOM     35  H1  UNL     1       7.504   9.376  29.005  1.00  0.00     0.213 HD
ENDBRANCH   1  34
BRANCH  12  36
HETATM   36  O21 UNL     1       7.319   8.944  27.585  1.00  0.00    -0.387 OA
ATOM     37  H21 UNL     1       7.295   9.636  26.935  1.00  0.00     0.210 HD
ENDBRANCH  12  36
BRANCH   9  38
HETATM   38  O14 UNL     1       3.130   8.024  30.644  1.00  0.00    -0.386 OA
ATOM     39  H14 UNL     1       3.339   7.425  31.352  1.00  0.00     0.210 HD
ENDBRANCH   9  38
BRANCH  11  40
HETATM   40  O17 UNL     1       7.290   6.708  28.957  1.00  0.00    -0.280 OA
BRANCH  40  41
HETATM   41  C21 UNL     1       7.559   5.701  28.025  1.00  0.00     0.264 C 
HETATM   42  O18 UNL     1       7.245   5.897  26.829  1.00  0.00    -0.265 OA
BRANCH  41  43
HETATM   43  C22 UNL     1       8.200   4.444  28.464  1.00  0.00     0.122 C 
BRANCH  43  44
HETATM   44  C23 UNL     1       8.429   3.544  27.271  1.00  0.00     0.123 C 
BRANCH  44  45
HETATM   45  C24 UNL     1       9.724   2.820  27.382  1.00  0.00     0.172 C 
HETATM   46  O19 UNL     1      10.794   3.472  27.531  1.00  0.00    -0.648 OA
HETATM   47  O20 UNL     1       9.787   1.437  27.325  1.00  0.00    -0.648 OA
ENDBRANCH  44  45
ENDBRANCH  43  44
ENDBRANCH  41  43
ENDBRANCH  40  41
ENDBRANCH  11  40
BRANCH  10  48
HETATM   48  C18 UNL     1       5.088   5.904  30.478  1.00  0.00     0.294 C 
HETATM   49  O15 UNL     1       5.235   6.107  31.709  1.00  0.00    -0.259 OA
BRANCH  48  50
HETATM   50  O16 UNL     1       4.957   4.577  30.102  1.00  0.00    -0.323 OA
HETATM   51  C19 UNL     1       4.324   4.188  28.891  1.00  0.00     0.213 C 
ENDBRANCH  48  50
ENDBRANCH  10  48
TORSDOF 20
ENDMDL
MODEL 2
REMARK VINA RESULT: -7.618344421      2.868      6.927
REMARK  20 active torsions:
REMARK  status: ('A' for Active; 'I' for Inactive)
REMARK    1  A    between atoms: C2_2  and  C3_3 
REMARK    2  A    between atoms: C3_3  and  O1_4 
REMARK    3  A    between atoms: C4_7  and  O3_8 
REMARK    4  A    between atoms: O3_8  and  C5_9 
REMARK    5  A    between atoms: C7_13  and  O6_14 
REMARK    6  A    between atoms: C8_16  and  O7_17 
REMARK    7  A    between atoms: C8_16  and  C11_22 
REMARK    8  A    between atoms: O7_17  and  C9_18 
REMARK    9  A    between atoms: C9_18  and  C10_19 
REMARK   10  A    between atoms: C11_22  and  O11_24 
REMARK   11  A    between atoms: C13_26  and  C14_27 
REMARK   12  A    between atoms: C16_31  and  O14_32 
REMARK   13  A    between atoms: C17_34  and  C18_35 
REMARK   14  A    between atoms: C18_35  and  O16_37 
REMARK   15  A    between atoms: C20_39  and  O17_40 
REMARK   16  A    between atoms: O17_40  and  C21_41 
REMARK   17  A    between atoms: C21_41  and  C22_43 
REMARK   18  A    between atoms: C22_43  and  C23_44 
REMARK   19  A    between atoms: C23_44  and  C24_45 
REMARK   20  A    between atoms: C25_48  and  O21_49 
ROOT
HETATM    1  C3  UNL     1       5.341   5.774  30.240  1.00  0.00     0.206 C 
HETATM    2  O2  UNL     1       5.421   4.717  29.311  1.00  0.00    -0.296 OA
HETATM    3  C4  UNL     1       4.417   4.543  28.442  1.00  0.00     0.427 C 
HETATM    4  O5  UNL     1       3.689   5.680  28.106  1.00  0.00    -0.296 OA
HETATM    5  C7  UNL     1       4.415   6.771  28.354  1.00  0.00     0.233 C 
HETATM    6  C8  UNL     1       4.080   8.068  27.825  1.00  0.00     0.241 C 
HETATM    7  C13 UNL     1       4.589   8.976  28.913  1.00  0.00     0.075 C 
HETATM    8  C15 UNL     1       4.878   8.321  29.997  1.00  0.00    -0.007 C 
HETATM    9  C16 UNL     1       5.393   8.794  31.294  1.00  0.00     0.191 C 
HETATM   10  C17 UNL     1       4.687   8.044  32.405  1.00  0.00     0.082 C 
HETATM   11  C20 UNL     1       3.722   7.201  32.105  1.00  0.00     0.102 C 
HETATM   12  C25 UNL     1       3.252   6.918  30.675  1.00  0.00     0.200 C 
HETATM   13  C26 UNL     1       4.537   6.918  29.869  1.00  0.00     0.139 C 
ENDROOT
BRANCH   6  14
HETATM   14  O7  UNL     1       4.902   8.478  26.748  1.00  0.00    -0.350 OA
BRANCH  14  15
HETATM   15  C9  UNL     1       4.368   8.938  25.628  1.00  0.00     0.283 C 
BRANCH  15  16
HETATM   16  C10 UNL     1       5.500   9.162  24.638  1.00  0.00     0.197 C 
HETATM   17  O8  UNL     1       5.338   8.700  23.488  1.00  0.00    -0.646 OA
HETATM   18  O9  UNL     1       6.631   9.844  25.022  1.00  0.00    -0.646 OA
ENDBRANCH  15  16
ENDBRANCH  14  15
ENDBRANCH   6  14
BRANCH   6  19
HETATM   19  C11 UNL     1       2.674   8.319  27.458  1.00  0.00     0.304 C 
HETATM   20  O10 UNL     1       2.237   8.018  26.277  1.00  0.00    -0.261 OA
BRANCH  19  21
HETATM   21  O11 UNL     1       1.711   8.864  28.269  1.00  0.00    -0.324 OA
HETATM   22  C12 UNL     1       0.804   9.876  27.840  1.00  0.00     0.213 C 
ENDBRANCH  19  21
ENDBRANCH   6  19
BRANCH   5  23
HETATM   23  O6  UNL     1       5.762   6.558  27.923  1.00  0.00    -0.361 OA
ATOM     24  H6  UNL     1       6.268   7.350  28.059  1.00  0.00     0.213 HD
ENDBRANCH   5  23
BRANCH   7  25
HETATM   25  C14 UNL     1       4.700  10.424  28.646  1.00  0.00     0.209 C 
HETATM   26  O12 UNL     1       3.753  11.181  28.889  1.00  0.00    -0.644 OA
HETATM   27  O13 UNL     1       5.861  10.943  28.122  1.00  0.00    -0.644 OA
ENDBRANCH   7  25
BRANCH   3  28
HETATM   28  O3  UNL     1       3.579   3.428  28.762  1.00  0.00    -0.265 OA
BRANCH  28  29
HETATM   29  C5  UNL     1       2.236   3.403  28.487  1.00  0.00     0.258 C 
HETATM   30  C6  UNL     1       1.277   2.912  29.510  1.00  0.00     0.126 C 
HETATM   31  O4  UNL     1       1.840   3.799  27.366  1.00  0.00    -0.266 OA
ENDBRANCH  28  29
ENDBRANCH   3  28
BRANCH   1  32
HETATM   32  C2  UNL     1       6.716   5.877  30.750  1.00  0.00     0.032 C 
HETATM   33  C1  UNL     1       7.788   5.229  30.319  1.00  0.00     0.012 C 
ENDBRANCH   1  32
BRANCH   1  34
HETATM   34  O1  UNL     1       4.645   5.057  31.299  1.00  0.00    -0.361 OA
ATOM     35  H1  UNL     1       4.909   4.155  31.161  1.00  0.00     0.213 HD
ENDBRANCH   1  34
BRANCH  12  36
HETATM   36  O21 UNL     1       2.495   5.824  30.690  1.00  0.00    -0.387 OA
ATOM     37  H21 UNL     1       3.028   5.088  30.411  1.00  0.00     0.210 HD
ENDBRANCH  12  36
BRANCH   9  38
HETATM   38  O14 UNL     1       6.732   8.875  31.390  1.00  0.00    -0.386 OA
ATOM     39  H14 UNL     1       7.109   8.495  32.175  1.00  0.00     0.210 HD
ENDBRANCH   9  38
BRANCH  11  40
HETATM   40  O17 UNL     1       3.087   6.527  33.147  1.00  0.00    -0.280 OA
BRANCH  40  41
HETATM   41  C21 UNL     1       1.819   6.946  33.558  1.00  0.00     0.264 C 
HETATM   42  O18 UNL     1       1.657   8.152  33.854  1.00  0.00    -0.265 OA
BRANCH  41  43
HETATM   43  C22 UNL     1       0.710   5.972  33.633  1.00  0.00     0.122 C 
BRANCH  43  44
HETATM   44  C23 UNL     1       1.266   4.576  33.790  1.00  0.00     0.123 C 
BRANCH  44  45
HETATM   45  C24 UNL     1       0.931   4.008  35.124  1.00  0.00     0.172 C 
HETATM   46  O19 UNL     1      -0.278   3.884  35.465  1.00  0.00    -0.648 OA
HETATM   47  O20 UNL     1       1.919   3.609  36.009  1.00  0.00    -0.648 OA
ENDBRANCH  44  45
ENDBRANCH  43  44
ENDBRANCH  41  43
ENDBRANCH  40  41
ENDBRANCH  11  40
BRANCH  10  48
HETATM   48  C18 UNL     1       5.155   8.308  33.746  1.00  0.00     0.294 C 
HETATM   49  O15 UNL     1       5.178   9.491  34.169  1.00  0.00    -0.259 OA
BRANCH  48  50
HETATM   50  O16 UNL     1       5.598   7.346  34.638  1.00  0.00    -0.323 OA
HETATM   51  C19 UNL     1       5.223   7.348  36.008  1.00  0.00     0.213 C 
ENDBRANCH  48  50
ENDBRANCH  10  48
TORSDOF 20
ENDMDL
MODEL 3
REMARK VINA RESULT: -7.557443693      1.725      2.436
REMARK  20 active torsions:
REMARK  status: ('A' for Active; 'I' for Inactive)
REMARK    1  A    between atoms: C2_2  and  C3_3 
REMARK    2  A    between atoms: C3_3  and  O1_4 
REMARK    3  A    between atoms: C4_7  and  O3_8 
REMARK    4  A    between atoms: O3_8  and  C5_9 
REMARK    5  A    between atoms: C7_13  and  O6_14 
REMARK    6  A    between atoms: C8_16  and  O7_17 
REMARK    7  A    between atoms: C8_16  and  C11_22 
REMARK    8  A    between atoms: O7_17  and  C9_18 
REMARK    9  A    between atoms: C9_18  and  C10_19 
REMARK   10  A    between atoms: C11_22  and  O11_24 
REMARK   11  A    between atoms: C13_26  and  C14_27 
REMARK   12  A    between atoms: C16_31  and  O14_32 
REMARK   13  A    between atoms: C17_34  and  C18_35 
REMARK   14  A    between atoms: C18_35  and  O16_37 
REMARK   15  A    between atoms: C20_39  and  O17_40 
REMARK   16  A    between atoms: O17_40  and  C21_41 
REMARK   17  A    between atoms: C21_41  and  C22_43 
REMARK   18  A    between atoms: C22_43  and  C23_44 
REMARK   19  A    between atoms: C23_44  and  C24_45 
REMARK   20  A    between atoms: C25_48  and  O21_49 
ROOT
HETATM    1  C3  UNL     1       5.776  10.586  30.036  1.00  0.00     0.206 C 
HETATM    2  O2  UNL     1       6.524  11.723  29.668  1.00  0.00    -0.296 OA
HETATM    3  C4  UNL     1       6.847  11.896  28.380  1.00  0.00     0.427 C 
HETATM    4  O5  UNL     1       5.986  11.327  27.447  1.00  0.00    -0.296 OA
HETATM    5  C7  UNL     1       4.789  11.127  28.000  1.00  0.00     0.233 C 
HETATM    6  C8  UNL     1       3.606  10.857  27.224  1.00  0.00     0.241 C 
HETATM    7  C13 UNL     1       2.825   9.977  28.164  1.00  0.00     0.075 C 
HETATM    8  C15 UNL     1       3.552   9.564  29.158  1.00  0.00    -0.007 C 
HETATM    9  C16 UNL     1       3.211   8.693  30.296  1.00  0.00     0.191 C 
HETATM   10  C17 UNL     1       4.371   7.754  30.560  1.00  0.00     0.082 C 
HETATM   11  C20 UNL     1       5.412   7.771  29.755  1.00  0.00     0.102 C 
HETATM   12  C25 UNL     1       5.535   8.696  28.541  1.00  0.00     0.200 C 
HETATM   13  C26 UNL     1       4.926  10.000  29.021  1.00  0.00     0.139 C 
ENDROOT
BRANCH   6  14
HETATM   14  O7  UNL     1       2.724  11.961  27.121  1.00  0.00    -0.350 OA
BRANCH  14  15
HETATM   15  C9  UNL     1       3.093  13.062  26.485  1.00  0.00     0.283 C 
BRANCH  15  16
HETATM   16  C10 UNL     1       2.219  14.198  26.993  1.00  0.00     0.197 C 
HETATM   17  O8  UNL     1       2.564  14.732  28.069  1.00  0.00    -0.646 OA
HETATM   18  O9  UNL     1       1.113  14.595  26.278  1.00  0.00    -0.646 OA
ENDBRANCH  15  16
ENDBRANCH  14  15
ENDBRANCH   6  14
BRANCH   6  19
HETATM   19  C11 UNL     1       3.782  10.277  25.881  1.00  0.00     0.304 C 
HETATM   20  O10 UNL     1       3.015  10.632  24.902  1.00  0.00    -0.261 OA
BRANCH  19  21
HETATM   21  O11 UNL     1       4.725   9.347  25.520  1.00  0.00    -0.324 OA
HETATM   22  C12 UNL     1       5.332   9.304  24.231  1.00  0.00     0.213 C 
ENDBRANCH  19  21
ENDBRANCH   6  19
BRANCH   5  23
HETATM   23  O6  UNL     1       4.432  12.263  28.793  1.00  0.00    -0.361 OA
ATOM     24  H6  UNL     1       4.912  12.242  29.613  1.00  0.00     0.213 HD
ENDBRANCH   5  23
BRANCH   7  25
HETATM   25  C14 UNL     1       1.405   9.697  27.872  1.00  0.00     0.209 C 
HETATM   26  O12 UNL     1       1.093   8.790  27.090  1.00  0.00    -0.644 OA
HETATM   27  O13 UNL     1       0.417  10.444  28.466  1.00  0.00    -0.644 OA
ENDBRANCH   7  25
BRANCH   3  28
HETATM   28  O3  UNL     1       8.223  11.617  28.101  1.00  0.00    -0.265 OA
BRANCH  28  29
HETATM   29  C5  UNL     1       8.996  12.416  27.297  1.00  0.00     0.258 C 
HETATM   30  C6  UNL     1      10.353  12.824  27.743  1.00  0.00     0.126 C 
HETATM   31  O4  UNL     1       8.536  12.789  26.193  1.00  0.00    -0.266 OA
ENDBRANCH  28  29
ENDBRANCH   3  28
BRANCH   1  32
HETATM   32  C2  UNL     1       5.316  10.911  31.393  1.00  0.00     0.032 C 
HETATM   33  C1  UNL     1       5.871  10.555  32.541  1.00  0.00     0.012 C 
ENDBRANCH   1  32
BRANCH   1  34
HETATM   34  O1  UNL     1       6.891   9.680  30.269  1.00  0.00    -0.361 OA
ATOM     35  H1  UNL     1       7.148   9.420  29.392  1.00  0.00     0.213 HD
ENDBRANCH   1  34
BRANCH  12  36
HETATM   36  O21 UNL     1       6.800   8.683  28.129  1.00  0.00    -0.387 OA
ATOM     37  H21 UNL     1       7.131   9.573  28.149  1.00  0.00     0.210 HD
ENDBRANCH  12  36
BRANCH   9  38
HETATM   38  O14 UNL     1       2.697   9.317  31.371  1.00  0.00    -0.386 OA
ATOM     39  H14 UNL     1       2.055   8.820  31.864  1.00  0.00     0.210 HD
ENDBRANCH   9  38
BRANCH  11  40
HETATM   40  O17 UNL     1       6.463   6.895  30.019  1.00  0.00    -0.280 OA
BRANCH  40  41
HETATM   41  C21 UNL     1       6.384   5.577  29.561  1.00  0.00     0.264 C 
HETATM   42  O18 UNL     1       6.935   4.677  30.235  1.00  0.00    -0.265 OA
BRANCH  41  43
HETATM   43  C22 UNL     1       5.662   5.275  28.307  1.00  0.00     0.122 C 
BRANCH  43  44
HETATM   44  C23 UNL     1       4.521   4.326  28.590  1.00  0.00     0.123 C 
BRANCH  44  45
HETATM   45  C24 UNL     1       3.251   4.811  27.985  1.00  0.00     0.172 C 
HETATM   46  O19 UNL     1       3.076   6.048  27.806  1.00  0.00    -0.648 OA
HETATM   47  O20 UNL     1       2.247   3.933  27.609  1.00  0.00    -0.648 OA
ENDBRANCH  44  45
ENDBRANCH  43  44
ENDBRANCH  41  43
ENDBRANCH  40  41
ENDBRANCH  11  40
BRANCH  10  48
HETATM   48  C18 UNL     1       4.246   6.902  31.720  1.00  0.00     0.294 C 
HETATM   49  O15 UNL     1       4.606   7.334  32.844  1.00  0.00    -0.259 OA
BRANCH  48  50
HETATM   50  O16 UNL     1       3.752   5.608  31.707  1.00  0.00    -0.323 OA
HETATM   51  C19 UNL     1       2.364   5.324  31.602  1.00  0.00     0.213 C 
ENDBRANCH  48  50
ENDBRANCH  10  48
TORSDOF 20
ENDMDL
MODEL 4
REMARK VINA RESULT: -7.502495933      2.803      5.551
REMARK  20 active torsions:
REMARK  status: ('A' for Active; 'I' for Inactive)
REMARK    1  A    between atoms: C2_2  and  C3_3 
REMARK    2  A    between atoms: C3_3  and  O1_4 
REMARK    3  A    between atoms: C4_7  and  O3_8 
REMARK    4  A    between atoms: O3_8  and  C5_9 
REMARK    5  A    between atoms: C7_13  and  O6_14 
REMARK    6  A    between atoms: C8_16  and  O7_17 
REMARK    7  A    between atoms: C8_16  and  C11_22 
REMARK    8  A    between atoms: O7_17  and  C9_18 
REMARK    9  A    between atoms: C9_18  and  C10_19 
REMARK   10  A    between atoms: C11_22  and  O11_24 
REMARK   11  A    between atoms: C13_26  and  C14_27 
REMARK   12  A    between atoms: C16_31  and  O14_32 
REMARK   13  A    between atoms: C17_34  and  C18_35 
REMARK   14  A    between atoms: C18_35  and  O16_37 
REMARK   15  A    between atoms: C20_39  and  O17_40 
REMARK   16  A    between atoms: O17_40  and  C21_41 
REMARK   17  A    between atoms: C21_41  and  C22_43 
REMARK   18  A    between atoms: C22_43  and  C23_44 
REMARK   19  A    between atoms: C23_44  and  C24_45 
REMARK   20  A    between atoms: C25_48  and  O21_49 
ROOT
HETATM    1  C3  UNL     1       5.287   6.661  31.242  1.00  0.00     0.206 C 
HETATM    2  O2  UNL     1       6.524   6.519  30.580  1.00  0.00    -0.296 OA
HETATM    3  C4  UNL     1       6.528   6.234  29.271  1.00  0.00     0.427 C 
HETATM    4  O5  UNL     1       5.422   6.663  28.544  1.00  0.00    -0.296 OA
HETATM    5  C7  UNL     1       4.812   7.655  29.193  1.00  0.00     0.233 C 
HETATM    6  C8  UNL     1       3.843   8.518  28.567  1.00  0.00     0.241 C 
HETATM    7  C13 UNL     1       2.940   8.847  29.726  1.00  0.00     0.075 C 
HETATM    8  C15 UNL     1       3.162   8.076  30.748  1.00  0.00    -0.007 C 
HETATM    9  C16 UNL     1       2.521   8.035  32.074  1.00  0.00     0.191 C 
HETATM   10  C17 UNL     1       2.334   6.589  32.484  1.00  0.00     0.082 C 
HETATM   11  C20 UNL     1       2.657   5.631  31.642  1.00  0.00     0.102 C 
HETATM   12  C25 UNL     1       3.223   5.883  30.241  1.00  0.00     0.200 C 
HETATM   13  C26 UNL     1       4.153   7.066  30.439  1.00  0.00     0.139 C 
ENDROOT
BRANCH   6  14
HETATM   14  O7  UNL     1       4.338   9.808  28.259  1.00  0.00    -0.350 OA
BRANCH  14  15
HETATM   15  C9  UNL     1       5.380   9.957  27.456  1.00  0.00     0.283 C 
BRANCH  15  16
HETATM   16  C10 UNL     1       5.223  11.291  26.744  1.00  0.00     0.197 C 
HETATM   17  O8  UNL     1       4.109  11.847  26.836  1.00  0.00    -0.646 OA
HETATM   18  O9  UNL     1       6.278  11.830  26.043  1.00  0.00    -0.646 OA
ENDBRANCH  15  16
ENDBRANCH  14  15
ENDBRANCH   6  14
BRANCH   6  19
HETATM   19  C11 UNL     1       3.124   8.003  27.387  1.00  0.00     0.304 C 
HETATM   20  O10 UNL     1       2.859   6.741  27.275  1.00  0.00    -0.261 OA
BRANCH  19  21
HETATM   21  O11 UNL     1       2.672   8.747  26.327  1.00  0.00    -0.324 OA
HETATM   22  C12 UNL     1       3.277   8.725  25.037  1.00  0.00     0.213 C 
ENDBRANCH  19  21
ENDBRANCH   6  19
BRANCH   5  23
HETATM   23  O6  UNL     1       5.790   8.556  29.720  1.00  0.00    -0.361 OA
ATOM     24  H6  UNL     1       5.362   9.351  30.016  1.00  0.00     0.213 HD
ENDBRANCH   5  23
BRANCH   7  25
HETATM   25  C14 UNL     1       1.962   9.943  29.585  1.00  0.00     0.209 C 
HETATM   26  O12 UNL     1       2.171  11.042  30.113  1.00  0.00    -0.644 OA
HETATM   27  O13 UNL     1       0.806   9.750  28.866  1.00  0.00    -0.644 OA
ENDBRANCH   7  25
BRANCH   3  28
HETATM   28  O3  UNL     1       6.879   4.876  28.990  1.00  0.00    -0.265 OA
BRANCH  28  29
HETATM   29  C5  UNL     1       7.640   4.513  27.907  1.00  0.00     0.258 C 
HETATM   30  C6  UNL     1       8.827   3.641  28.094  1.00  0.00     0.126 C 
HETATM   31  O4  UNL     1       7.314   4.930  26.771  1.00  0.00    -0.266 OA
ENDBRANCH  28  29
ENDBRANCH   3  28
BRANCH   1  32
HETATM   32  C2  UNL     1       5.657   7.305  32.510  1.00  0.00     0.032 C 
HETATM   33  C1  UNL     1       5.717   6.750  33.710  1.00  0.00     0.012 C 
ENDBRANCH   1  32
BRANCH   1  34
HETATM   34  O1  UNL     1       5.099   5.267  31.617  1.00  0.00    -0.361 OA
ATOM     35  H1  UNL     1       5.687   5.159  32.356  1.00  0.00     0.213 HD
ENDBRANCH   1  34
BRANCH  12  36
HETATM   36  O21 UNL     1       3.717   4.740  29.775  1.00  0.00    -0.387 OA
ATOM     37  H21 UNL     1       3.667   4.756  28.827  1.00  0.00     0.210 HD
ENDBRANCH  12  36
BRANCH   9  38
HETATM   38  O14 UNL     1       3.054   8.851  33.001  1.00  0.00    -0.386 OA
ATOM     39  H14 UNL     1       3.774   8.485  33.502  1.00  0.00     0.210 HD
ENDBRANCH   9  38
BRANCH  11  40
HETATM   40  O17 UNL     1       2.472   4.309  32.044  1.00  0.00    -0.280 OA
BRANCH  40  41
HETATM   41  C21 UNL     1       1.272   3.663  31.732  1.00  0.00     0.264 C 
HETATM   42  O18 UNL     1       0.211   4.104  32.229  1.00  0.00    -0.265 OA
BRANCH  41  43
HETATM   43  C22 UNL     1       1.280   2.490  30.833  1.00  0.00     0.122 C 
BRANCH  43  44
HETATM   44  C23 UNL     1       0.240   2.669  29.751  1.00  0.00     0.123 C 
BRANCH  44  45
HETATM   45  C24 UNL     1       0.843   2.542  28.396  1.00  0.00     0.172 C 
HETATM   46  O19 UNL     1       1.526   3.492  27.925  1.00  0.00    -0.648 OA
HETATM   47  O20 UNL     1       0.671   1.399  27.632  1.00  0.00    -0.648 OA
ENDBRANCH  44  45
ENDBRANCH  43  44
ENDBRANCH  41  43
ENDBRANCH  40  41
ENDBRANCH  11  40
BRANCH  10  48
HETATM   48  C18 UNL     1       1.817   6.369  33.815  1.00  0.00     0.294 C 
HETATM   49  O15 UNL     1       0.716   6.880  34.141  1.00  0.00    -0.259 OA
BRANCH  48  50
HETATM   50  O16 UNL     1       2.445   5.622  34.799  1.00  0.00    -0.323 OA
HETATM   51  C19 UNL     1       1.800   4.546  35.466  1.00  0.00     0.213 C 
ENDBRANCH  48  50
ENDBRANCH  10  48
TORSDOF 20
ENDMDL
MODEL 5
REMARK VINA RESULT: -7.403760178      4.398      6.777
REMARK  20 active torsions:
REMARK  status: ('A' for Active; 'I' for Inactive)
REMARK    1  A    between atoms: C2_2  and  C3_3 
REMARK    2  A    between atoms: C3_3  and  O1_4 
REMARK    3  A    between atoms: C4_7  and  O3_8 
REMARK    4  A    between atoms: O3_8  and  C5_9 
REMARK    5  A    between atoms: C7_13  and  O6_14 
REMARK    6  A    between atoms: C8_16  and  O7_17 
REMARK    7  A    between atoms: C8_16  and  C11_22 
REMARK    8  A    between atoms: O7_17  and  C9_18 
REMARK    9  A    between atoms: C9_18  and  C10_19 
REMARK   10  A    between atoms: C11_22  and  O11_24 
REMARK   11  A    between atoms: C13_26  and  C14_27 
REMARK   12  A    between atoms: C16_31  and  O14_32 
REMARK   13  A    between atoms: C17_34  and  C18_35 
REMARK   14  A    between atoms: C18_35  and  O16_37 
REMARK   15  A    between atoms: C20_39  and  O17_40 
REMARK   16  A    between atoms: O17_40  and  C21_41 
REMARK   17  A    between atoms: C21_41  and  C22_43 
REMARK   18  A    between atoms: C22_43  and  C23_44 
REMARK   19  A    between atoms: C23_44  and  C24_45 
REMARK   20  A    between atoms: C25_48  and  O21_49 
ROOT
HETATM    1  C3  UNL     1       4.419   6.847  34.037  1.00  0.00     0.206 C 
HETATM    2  O2  UNL     1       5.616   7.398  33.535  1.00  0.00    -0.296 OA
HETATM    3  C4  UNL     1       5.590   8.034  32.356  1.00  0.00     0.427 C 
HETATM    4  O5  UNL     1       4.379   8.617  31.997  1.00  0.00    -0.296 OA
HETATM    5  C7  UNL     1       3.635   8.819  33.084  1.00  0.00     0.233 C 
HETATM    6  C8  UNL     1       2.482   9.683  33.092  1.00  0.00     0.241 C 
HETATM    7  C13 UNL     1       1.610   9.010  34.118  1.00  0.00     0.075 C 
HETATM    8  C15 UNL     1       2.039   7.821  34.415  1.00  0.00    -0.007 C 
HETATM    9  C16 UNL     1       1.503   6.814  35.349  1.00  0.00     0.191 C 
HETATM   10  C17 UNL     1       1.620   5.444  34.714  1.00  0.00     0.082 C 
HETATM   11  C20 UNL     1       2.064   5.339  33.480  1.00  0.00     0.102 C 
HETATM   12  C25 UNL     1       2.481   6.536  32.620  1.00  0.00     0.200 C 
HETATM   13  C26 UNL     1       3.181   7.456  33.602  1.00  0.00     0.139 C 
ENDROOT
BRANCH   6  14
HETATM   14  O7  UNL     1       2.704  10.929  33.727  1.00  0.00    -0.350 OA
BRANCH  14  15
HETATM   15  C9  UNL     1       3.394  11.882  33.121  1.00  0.00     0.283 C 
BRANCH  15  16
HETATM   16  C10 UNL     1       4.112  12.683  34.196  1.00  0.00     0.197 C 
HETATM   17  O8  UNL     1       5.026  12.097  34.814  1.00  0.00    -0.646 OA
HETATM   18  O9  UNL     1       3.748  13.985  34.448  1.00  0.00    -0.646 OA
ENDBRANCH  15  16
ENDBRANCH  14  15
ENDBRANCH   6  14
BRANCH   6  19
HETATM   19  C11 UNL     1       1.800   9.931  31.809  1.00  0.00     0.304 C 
HETATM   20  O10 UNL     1       1.260  11.079  31.560  1.00  0.00    -0.261 OA
BRANCH  19  21
HETATM   21  O11 UNL     1       1.664   9.033  30.780  1.00  0.00    -0.324 OA
HETATM   22  C12 UNL     1       1.952   9.348  29.420  1.00  0.00     0.213 C 
ENDBRANCH  19  21
ENDBRANCH   6  19
BRANCH   5  23
HETATM   23  O6  UNL     1       4.456   9.327  34.139  1.00  0.00    -0.361 OA
ATOM     24  H6  UNL     1       4.205   8.921  34.961  1.00  0.00     0.213 HD
ENDBRANCH   5  23
BRANCH   7  25
HETATM   25  C14 UNL     1       0.434   9.732  34.645  1.00  0.00     0.209 C 
HETATM   26  O12 UNL     1       0.476  10.271  35.758  1.00  0.00    -0.644 OA
HETATM   27  O13 UNL     1      -0.719   9.810  33.901  1.00  0.00    -0.644 OA
ENDBRANCH   7  25
BRANCH   3  28
HETATM   28  O3  UNL     1       6.173   7.276  31.292  1.00  0.00    -0.265 OA
BRANCH  28  29
HETATM   29  C5  UNL     1       7.487   6.881  31.293  1.00  0.00     0.258 C 
HETATM   30  C6  UNL     1       7.879   5.604  30.644  1.00  0.00     0.126 C 
HETATM   31  O4  UNL     1       8.339   7.613  31.849  1.00  0.00    -0.266 OA
ENDBRANCH  28  29
ENDBRANCH   3  28
BRANCH   1  32
HETATM   32  C2  UNL     1       4.741   6.574  35.445  1.00  0.00     0.032 C 
HETATM   33  C1  UNL     1       5.410   7.348  36.285  1.00  0.00     0.012 C 
ENDBRANCH   1  32
BRANCH   1  34
HETATM   34  O1  UNL     1       4.524   5.538  33.409  1.00  0.00    -0.361 OA
ATOM     35  H1  UNL     1       3.736   5.486  32.881  1.00  0.00     0.213 HD
ENDBRANCH   1  34
BRANCH  12  36
HETATM   36  O21 UNL     1       3.152   6.082  31.565  1.00  0.00    -0.387 OA
ATOM     37  H21 UNL     1       2.526   5.859  30.885  1.00  0.00     0.210 HD
ENDBRANCH  12  36
BRANCH   9  38
HETATM   38  O14 UNL     1       1.930   6.918  36.620  1.00  0.00    -0.386 OA
ATOM     39  H14 UNL     1       1.972   6.102  37.106  1.00  0.00     0.210 HD
ENDBRANCH   9  38
BRANCH  11  40
HETATM   40  O17 UNL     1       2.158   4.066  32.919  1.00  0.00    -0.280 OA
BRANCH  40  41
HETATM   41  C21 UNL     1       1.199   3.659  31.987  1.00  0.00     0.264 C 
HETATM   42  O18 UNL     1       0.044   4.134  32.074  1.00  0.00    -0.265 OA
BRANCH  41  43
HETATM   43  C22 UNL     1       1.564   2.691  30.931  1.00  0.00     0.122 C 
BRANCH  43  44
HETATM   44  C23 UNL     1       2.978   2.205  31.150  1.00  0.00     0.123 C 
BRANCH  44  45
HETATM   45  C24 UNL     1       3.940   2.935  30.280  1.00  0.00     0.172 C 
HETATM   46  O19 UNL     1       3.914   2.756  29.031  1.00  0.00    -0.648 OA
HETATM   47  O20 UNL     1       4.872   3.813  30.810  1.00  0.00    -0.648 OA
ENDBRANCH  44  45
ENDBRANCH  43  44
ENDBRANCH  41  43
ENDBRANCH  40  41
ENDBRANCH  11  40
BRANCH  10  48
HETATM   48  C18 UNL     1       1.240   4.325  35.546  1.00  0.00     0.294 C 
HETATM   49  O15 UNL     1       2.081   3.834  36.340  1.00  0.00    -0.259 OA
BRANCH  48  50
HETATM   50  O16 UNL     1      -0.007   3.722  35.546  1.00  0.00    -0.323 OA
HETATM   51  C19 UNL     1      -1.155   4.347  36.101  1.00  0.00     0.213 C 
ENDBRANCH  48  50
ENDBRANCH  10  48
TORSDOF 20
ENDMDL
