MODEL 1
REMARK VINA RESULT: -3.677871084      0.000      0.000
REMARK  1 active torsions:
REMARK  status: ('A' for Active; 'I' for Inactive)
REMARK    1  A    between atoms: C2_2  and  N1_3 
ROOT
HETATM    1  N1  UNL     1       8.046  48.335  56.434  1.00  0.00     0.089 N 
HETATM    2  C3  UNL     1       8.534  48.589  55.095  1.00  0.00     0.323 C 
HETATM    3  N2  UNL     1       7.470  47.085  56.467  1.00  0.00    -0.026 NA
HETATM    4  C4  UNL     1       7.921  46.440  57.685  1.00  0.00     0.167 C 
HETATM    5  C5  UNL     1       9.346  47.007  57.769  1.00  0.00     0.121 C 
HETATM    6  C6  UNL     1       9.785  47.012  59.202  1.00  0.00     0.031 C 
HETATM    7  N3  UNL     1       9.142  48.342  57.287  1.00  0.00    -0.022 NA
ENDROOT
BRANCH   1   8
HETATM    8  C2  UNL     1       7.108  49.314  56.890  1.00  0.00     0.279 C 
HETATM    9  C1  UNL     1       7.325  50.682  56.321  1.00  0.00     0.038 C 
ENDBRANCH   1   8
TORSDOF 1
ENDMDL
MODEL 2
REMARK VINA RESULT: -3.523871165      0.846      3.530
REMARK  1 active torsions:
REMARK  status: ('A' for Active; 'I' for Inactive)
REMARK    1  A    between atoms: C2_2  and  N1_3 
ROOT
HETATM    1  N1  UNL     1       8.308  47.688  56.925  1.00  0.00     0.089 N 
HETATM    2  C3  UNL     1       7.500  46.522  57.210  1.00  0.00     0.323 C 
HETATM    3  N2  UNL     1       8.684  47.655  55.600  1.00  0.00    -0.026 NA
HETATM    4  C4  UNL     1       8.512  48.996  55.075  1.00  0.00     0.167 C 
HETATM    5  C5  UNL     1       7.267  49.428  55.864  1.00  0.00     0.121 C 
HETATM    6  C6  UNL     1       7.261  50.922  55.985  1.00  0.00     0.031 C 
HETATM    7  N3  UNL     1       7.514  48.809  57.134  1.00  0.00    -0.022 NA
ENDROOT
BRANCH   1   8
HETATM    8  C2  UNL     1       9.467  47.791  57.756  1.00  0.00     0.279 C 
HETATM    9  C1  UNL     1       9.780  46.547  58.527  1.00  0.00     0.038 C 
ENDBRANCH   1   8
TORSDOF 1
ENDMDL
MODEL 3
REMARK VINA RESULT: -3.452121878      0.804      2.055
REMARK  1 active torsions:
REMARK  status: ('A' for Active; 'I' for Inactive)
REMARK    1  A    between atoms: C2_2  and  N1_3 
ROOT
HETATM    1  N1  UNL     1       8.054  48.478  56.730  1.00  0.00     0.089 N 
HETATM    2  C3  UNL     1       6.956  49.401  56.926  1.00  0.00     0.323 C 
HETATM    3  N2  UNL     1       9.087  48.832  57.569  1.00  0.00    -0.026 NA
HETATM    4  C4  UNL     1       9.597  47.608  58.156  1.00  0.00     0.167 C 
HETATM    5  C5  UNL     1       8.290  46.813  58.283  1.00  0.00     0.121 C 
HETATM    6  C6  UNL     1       8.605  45.348  58.259  1.00  0.00     0.031 C 
HETATM    7  N3  UNL     1       7.606  47.212  57.087  1.00  0.00    -0.022 NA
ENDROOT
BRANCH   1   8
HETATM    8  C2  UNL     1       8.521  48.431  55.379  1.00  0.00     0.279 C 
HETATM    9  C1  UNL     1       8.108  49.606  54.548  1.00  0.00     0.038 C 
ENDBRANCH   1   8
TORSDOF 1
ENDMDL
MODEL 4
REMARK VINA RESULT: -3.184462402      2.923      4.104
REMARK  1 active torsions:
REMARK  status: ('A' for Active; 'I' for Inactive)
REMARK    1  A    between atoms: C2_2  and  N1_3 
ROOT
HETATM    1  N1  UNL     1       9.721  46.175  59.328  1.00  0.00     0.089 N 
HETATM    2  C3  UNL     1      10.717  47.222  59.423  1.00  0.00     0.323 C 
HETATM    3  N2  UNL     1      10.342  44.956  59.478  1.00  0.00    -0.026 NA
HETATM    4  C4  UNL     1       9.511  44.161  60.362  1.00  0.00     0.167 C 
HETATM    5  C5  UNL     1       8.993  45.264  61.297  1.00  0.00     0.121 C 
HETATM    6  C6  UNL     1       7.676  44.838  61.871  1.00  0.00     0.031 C 
HETATM    7  N3  UNL     1       8.827  46.352  60.377  1.00  0.00    -0.022 NA
ENDROOT
BRANCH   1   8
HETATM    8  C2  UNL     1       8.990  46.199  58.100  1.00  0.00     0.279 C 
HETATM    9  C1  UNL     1       8.844  47.564  57.501  1.00  0.00     0.038 C 
ENDBRANCH   1   8
TORSDOF 1
ENDMDL
MODEL 5
REMARK VINA RESULT: -3.128037784      1.125      3.589
REMARK  1 active torsions:
REMARK  status: ('A' for Active; 'I' for Inactive)
REMARK    1  A    between atoms: C2_2  and  N1_3 
ROOT
HETATM    1  N1  UNL     1       8.425  48.122  57.274  1.00  0.00     0.089 N 
HETATM    2  C3  UNL     1       9.613  48.179  58.100  1.00  0.00     0.323 C 
HETATM    3  N2  UNL     1       7.543  49.092  57.697  1.00  0.00    -0.026 NA
HETATM    4  C4  UNL     1       7.012  49.730  56.508  1.00  0.00     0.167 C 
HETATM    5  C5  UNL     1       8.253  49.678  55.605  1.00  0.00     0.121 C 
HETATM    6  C6  UNL     1       7.815  49.684  54.172  1.00  0.00     0.031 C 
HETATM    7  N3  UNL     1       8.807  48.406  55.969  1.00  0.00    -0.022 NA
ENDROOT
BRANCH   1   8
HETATM    8  C2  UNL     1       7.784  46.843  57.292  1.00  0.00     0.279 C 
HETATM    9  C1  UNL     1       8.449  45.838  58.181  1.00  0.00     0.038 C 
ENDBRANCH   1   8
TORSDOF 1
ENDMDL
