MODEL 1
REMARK VINA RESULT: -5.735487545      0.000      0.000
REMARK  10 active torsions:
REMARK  status: ('A' for Active; 'I' for Inactive)
REMARK    1  A    between atoms: C2_2  and  C3_3 
REMARK    2  A    between atoms: C6_7  and  C7_8 
REMARK    3  A    between atoms: N1_14  and  C11_15 
REMARK    4  A    between atoms: C11_15  and  O2_16 
REMARK    5  A    between atoms: C11_15  and  N2_18 
REMARK    6  A    between atoms: N2_18  and  C13_20 
REMARK    7  A    between atoms: C13_20  and  O3_21 
REMARK    8  A    between atoms: C13_20  and  N3_23 
REMARK    9  A    between atoms: C16_26  and  C17_27 
REMARK   10  A    between atoms: C17_27  and  C18_28 
REMARK       I    between atoms: C18_28  and  N4_30 
ROOT
HETATM    1  C3  UNL     1       5.781  48.800  60.847  1.00  0.00     0.078 C 
HETATM    2  C4  UNL     1       4.387  48.883  60.263  1.00  0.00     0.048 C 
HETATM    3  O1  UNL     1       5.974  49.866  61.693  1.00  0.00    -0.376 OA
HETATM    4  C5  UNL     1       7.154  49.771  62.379  1.00  0.00     0.199 C 
HETATM    5  C6  UNL     1       8.331  49.663  61.492  1.00  0.00     0.152 C 
HETATM    6  N1  UNL     1       8.152  48.773  60.326  1.00  0.00    -0.328 N 
HETATM    7  C16 UNL     1       6.843  48.557  59.840  1.00  0.00     0.131 C 
ENDROOT
BRANCH   6   8
HETATM    8  C11 UNL     1       9.331  48.314  59.675  1.00  0.00     0.225 C 
BRANCH   8   9
HETATM    9  O2  UNL     1       9.959  49.276  59.036  1.00  0.00    -0.332 OA
ATOM     10  H2  UNL     1       9.897  49.185  58.092  1.00  0.00     0.221 HD
ENDBRANCH   8   9
BRANCH   8  11
HETATM   11  N2  UNL     1       9.968  47.075  59.565  1.00  0.00    -0.283 N 
HETATM   12  C12 UNL     1      11.284  46.795  60.121  1.00  0.00     0.163 C 
BRANCH  11  13
HETATM   13  C13 UNL     1       9.262  46.007  58.980  1.00  0.00     0.223 C 
BRANCH  13  14
HETATM   14  O3  UNL     1       9.552  45.786  57.710  1.00  0.00    -0.332 OA
ATOM     15  H3  UNL     1       8.801  45.594  57.161  1.00  0.00     0.221 HD
ENDBRANCH  13  14
BRANCH  13  16
HETATM   16  N3  UNL     1       8.314  45.155  59.510  1.00  0.00    -0.356 N 
HETATM   17  C14 UNL     1       8.278  44.969  61.010  1.00  0.00     0.152 C 
HETATM   18  C15 UNL     1       7.362  44.337  58.827  1.00  0.00     0.152 C 
ENDBRANCH  13  16
ENDBRANCH  11  13
ENDBRANCH   8  11
ENDBRANCH   6   8
BRANCH   5  19
HETATM   19  C7  UNL     1       9.494  49.163  62.324  1.00  0.00     0.009 A 
HETATM   20  C8  UNL     1       9.580  48.070  63.123  1.00  0.00     0.018 A 
HETATM   21  C9  UNL     1      10.743  47.861  63.759  1.00  0.00     0.028 A 
HETATM   22  C10 UNL     1      11.749  48.767  63.548  1.00  0.00     0.051 A 
HETATM   23 BR1  UNL     1      13.524  48.773  64.290  1.00  0.00    -0.043 Br
HETATM   24  S1  UNL     1      11.017  49.883  62.461  1.00  0.00    -0.085 SA
ENDBRANCH   5  19
BRANCH   7  25
HETATM   25  C17 UNL     1       6.607  49.224  58.517  1.00  0.00     0.131 C 
BRANCH  25  26
HETATM   26  C18 UNL     1       6.991  48.597  57.287  1.00  0.00     0.221 C 
HETATM   27  O4  UNL     1       7.034  47.387  57.070  1.00  0.00    -0.273 OA
HETATM   28  N4  UNL     1       7.362  49.436  56.197  1.00  0.00    -0.361 N 
HETATM   29  C19 UNL     1       7.358  50.878  56.310  1.00  0.00     0.152 C 
HETATM   30  C20 UNL     1       7.757  48.843  54.936  1.00  0.00     0.152 C 
ENDBRANCH  25  26
ENDBRANCH   7  25
BRANCH   1  31
HETATM   31  C2  UNL     1       5.748  47.568  61.769  1.00  0.00     0.035 C 
HETATM   32  C1  UNL     1       4.314  47.379  62.183  1.00  0.00     0.008 C 
ENDBRANCH   1  31
TORSDOF 10
ENDMDL
MODEL 2
REMARK VINA RESULT: -5.725067687      2.937      5.402
REMARK  10 active torsions:
REMARK  status: ('A' for Active; 'I' for Inactive)
REMARK    1  A    between atoms: C2_2  and  C3_3 
REMARK    2  A    between atoms: C6_7  and  C7_8 
REMARK    3  A    between atoms: N1_14  and  C11_15 
REMARK    4  A    between atoms: C11_15  and  O2_16 
REMARK    5  A    between atoms: C11_15  and  N2_18 
REMARK    6  A    between atoms: N2_18  and  C13_20 
REMARK    7  A    between atoms: C13_20  and  O3_21 
REMARK    8  A    between atoms: C13_20  and  N3_23 
REMARK    9  A    between atoms: C16_26  and  C17_27 
REMARK   10  A    between atoms: C17_27  and  C18_28 
REMARK       I    between atoms: C18_28  and  N4_30 
ROOT
HETATM    1  C3  UNL     1       6.215  49.251  61.505  1.00  0.00     0.078 C 
HETATM    2  C4  UNL     1       5.765  49.315  62.949  1.00  0.00     0.048 C 
HETATM    3  O1  UNL     1       5.230  48.651  60.757  1.00  0.00    -0.376 OA
HETATM    4  C5  UNL     1       5.499  48.702  59.417  1.00  0.00     0.199 C 
HETATM    5  C6  UNL     1       6.794  48.084  59.063  1.00  0.00     0.152 C 
HETATM    6  N1  UNL     1       7.904  48.390  59.988  1.00  0.00    -0.328 N 
HETATM    7  C16 UNL     1       7.592  48.728  61.324  1.00  0.00     0.131 C 
ENDROOT
BRANCH   6   8
HETATM    8  C11 UNL     1       9.226  48.174  59.508  1.00  0.00     0.225 C 
BRANCH   8   9
HETATM    9  O2  UNL     1       9.789  49.280  59.073  1.00  0.00    -0.332 OA
ATOM     10  H2  UNL     1      10.324  49.135  58.302  1.00  0.00     0.221 HD
ENDBRANCH   8   9
BRANCH   8  11
HETATM   11  N2  UNL     1      10.055  47.055  59.398  1.00  0.00    -0.283 N 
HETATM   12  C12 UNL     1      11.430  47.022  59.877  1.00  0.00     0.163 C 
BRANCH  11  13
HETATM   13  C13 UNL     1       9.508  45.861  58.895  1.00  0.00     0.223 C 
BRANCH  13  14
HETATM   14  O3  UNL     1       9.776  45.625  57.623  1.00  0.00    -0.332 OA
ATOM     15  H3  UNL     1       9.507  44.768  57.314  1.00  0.00     0.221 HD
ENDBRANCH  13  14
BRANCH  13  16
HETATM   16  N3  UNL     1       8.732  44.896  59.507  1.00  0.00    -0.356 N 
HETATM   17  C14 UNL     1       7.484  44.425  58.793  1.00  0.00     0.152 C 
HETATM   18  C15 UNL     1       8.895  44.296  60.792  1.00  0.00     0.152 C 
ENDBRANCH  13  16
ENDBRANCH  11  13
ENDBRANCH   8  11
ENDBRANCH   6   8
BRANCH   5  19
HETATM   19  C7  UNL     1       7.165  48.549  57.670  1.00  0.00     0.009 A 
HETATM   20  C8  UNL     1       7.540  47.822  56.586  1.00  0.00     0.018 A 
HETATM   21  C9  UNL     1       7.822  48.496  55.460  1.00  0.00     0.028 A 
HETATM   22  C10 UNL     1       7.709  49.862  55.497  1.00  0.00     0.051 A 
HETATM   23 BR1  UNL     1       8.033  51.123  54.081  1.00  0.00    -0.043 Br
HETATM   24  S1  UNL     1       7.209  50.146  57.119  1.00  0.00    -0.085 SA
ENDBRANCH   5  19
BRANCH   7  25
HETATM   25  C17 UNL     1       7.976  47.648  62.292  1.00  0.00     0.131 C 
BRANCH  25  26
HETATM   26  C18 UNL     1       9.194  47.718  63.042  1.00  0.00     0.221 C 
HETATM   27  O4  UNL     1      10.079  48.565  62.916  1.00  0.00    -0.273 OA
HETATM   28  N4  UNL     1       9.427  46.723  64.035  1.00  0.00    -0.361 N 
HETATM   29  C19 UNL     1       8.473  45.666  64.291  1.00  0.00     0.152 C 
HETATM   30  C20 UNL     1      10.646  46.757  64.816  1.00  0.00     0.152 C 
ENDBRANCH  25  26
ENDBRANCH   7  25
BRANCH   1  31
HETATM   31  C2  UNL     1       6.228  50.717  61.033  1.00  0.00     0.035 C 
HETATM   32  C1  UNL     1       5.187  51.439  61.845  1.00  0.00     0.008 C 
ENDBRANCH   1  31
TORSDOF 10
ENDMDL
MODEL 3
REMARK VINA RESULT: -5.594188252      2.516      4.288
REMARK  10 active torsions:
REMARK  status: ('A' for Active; 'I' for Inactive)
REMARK    1  A    between atoms: C2_2  and  C3_3 
REMARK    2  A    between atoms: C6_7  and  C7_8 
REMARK    3  A    between atoms: N1_14  and  C11_15 
REMARK    4  A    between atoms: C11_15  and  O2_16 
REMARK    5  A    between atoms: C11_15  and  N2_18 
REMARK    6  A    between atoms: N2_18  and  C13_20 
REMARK    7  A    between atoms: C13_20  and  O3_21 
REMARK    8  A    between atoms: C13_20  and  N3_23 
REMARK    9  A    between atoms: C16_26  and  C17_27 
REMARK   10  A    between atoms: C17_27  and  C18_28 
REMARK       I    between atoms: C18_28  and  N4_30 
ROOT
HETATM    1  C3  UNL     1       5.389  49.534  63.856  1.00  0.00     0.078 C 
HETATM    2  C4  UNL     1       4.012  49.764  64.441  1.00  0.00     0.048 C 
HETATM    3  O1  UNL     1       6.326  50.097  64.689  1.00  0.00    -0.376 OA
HETATM    4  C5  UNL     1       7.604  49.791  64.306  1.00  0.00     0.199 C 
HETATM    5  C6  UNL     1       7.907  50.203  62.920  1.00  0.00     0.152 C 
HETATM    6  N1  UNL     1       6.827  49.946  61.943  1.00  0.00    -0.328 N 
HETATM    7  C16 UNL     1       5.497  49.874  62.416  1.00  0.00     0.131 C 
ENDROOT
BRANCH   6   8
HETATM    8  C11 UNL     1       7.187  49.939  60.567  1.00  0.00     0.225 C 
BRANCH   8   9
HETATM    9  O2  UNL     1       7.491  51.139  60.123  1.00  0.00    -0.332 OA
ATOM     10  H2  UNL     1       7.832  51.121  59.236  1.00  0.00     0.221 HD
ENDBRANCH   8   9
BRANCH   8  11
HETATM   11  N2  UNL     1       7.290  48.948  59.588  1.00  0.00    -0.283 N 
HETATM   12  C12 UNL     1       6.476  47.741  59.577  1.00  0.00     0.163 C 
BRANCH  11  13
HETATM   13  C13 UNL     1       8.146  49.172  58.494  1.00  0.00     0.223 C 
BRANCH  13  14
HETATM   14  O3  UNL     1       9.427  49.267  58.808  1.00  0.00    -0.332 OA
ATOM     15  H3  UNL     1       9.805  50.127  58.671  1.00  0.00     0.221 HD
ENDBRANCH  13  14
BRANCH  13  16
HETATM   16  N3  UNL     1       7.873  49.315  57.148  1.00  0.00    -0.356 N 
HETATM   17  C14 UNL     1       8.205  48.162  56.226  1.00  0.00     0.152 C 
HETATM   18  C15 UNL     1       7.366  50.454  56.452  1.00  0.00     0.152 C 
ENDBRANCH  13  16
ENDBRANCH  11  13
ENDBRANCH   8  11
ENDBRANCH   6   8
BRANCH   5  19
HETATM   19  C7  UNL     1       9.158  49.472  62.481  1.00  0.00     0.009 A 
HETATM   20  C8  UNL     1       9.358  48.145  62.275  1.00  0.00     0.018 A 
HETATM   21  C9  UNL     1      10.583  47.759  61.888  1.00  0.00     0.028 A 
HETATM   22  C10 UNL     1      11.532  48.735  61.730  1.00  0.00     0.051 A 
HETATM   23 BR1  UNL     1      13.368  48.538  61.191  1.00  0.00    -0.043 Br
HETATM   24  S1  UNL     1      10.661  50.164  62.136  1.00  0.00    -0.085 SA
ENDBRANCH   5  19
BRANCH   7  25
HETATM   25  C17 UNL     1       4.677  51.058  61.995  1.00  0.00     0.131 C 
BRANCH  25  26
HETATM   26  C18 UNL     1       3.378  50.895  61.414  1.00  0.00     0.221 C 
HETATM   27  O4  UNL     1       2.899  49.846  60.983  1.00  0.00    -0.273 OA
HETATM   28  N4  UNL     1       2.542  52.044  61.314  1.00  0.00    -0.361 N 
HETATM   29  C19 UNL     1       2.974  53.343  61.779  1.00  0.00     0.152 C 
HETATM   30  C20 UNL     1       1.221  51.924  60.732  1.00  0.00     0.152 C 
ENDBRANCH  25  26
ENDBRANCH   7  25
BRANCH   1  31
HETATM   31  C2  UNL     1       5.618  48.016  63.976  1.00  0.00     0.035 C 
HETATM   32  C1  UNL     1       4.625  47.358  63.058  1.00  0.00     0.008 C 
ENDBRANCH   1  31
TORSDOF 10
ENDMDL
MODEL 4
REMARK VINA RESULT: -5.554151905      3.220      5.986
REMARK  10 active torsions:
REMARK  status: ('A' for Active; 'I' for Inactive)
REMARK    1  A    between atoms: C2_2  and  C3_3 
REMARK    2  A    between atoms: C6_7  and  C7_8 
REMARK    3  A    between atoms: N1_14  and  C11_15 
REMARK    4  A    between atoms: C11_15  and  O2_16 
REMARK    5  A    between atoms: C11_15  and  N2_18 
REMARK    6  A    between atoms: N2_18  and  C13_20 
REMARK    7  A    between atoms: C13_20  and  O3_21 
REMARK    8  A    between atoms: C13_20  and  N3_23 
REMARK    9  A    between atoms: C16_26  and  C17_27 
REMARK   10  A    between atoms: C17_27  and  C18_28 
REMARK       I    between atoms: C18_28  and  N4_30 
ROOT
HETATM    1  C3  UNL     1      12.736  49.359  61.648  1.00  0.00     0.078 C 
HETATM    2  C4  UNL     1      13.451  48.452  60.669  1.00  0.00     0.048 C 
HETATM    3  O1  UNL     1      13.072  48.988  62.927  1.00  0.00    -0.376 OA
HETATM    4  C5  UNL     1      12.589  49.863  63.861  1.00  0.00     0.199 C 
HETATM    5  C6  UNL     1      11.122  50.026  63.795  1.00  0.00     0.152 C 
HETATM    6  N1  UNL     1      10.566  50.118  62.429  1.00  0.00    -0.328 N 
HETATM    7  C16 UNL     1      11.288  49.526  61.368  1.00  0.00     0.131 C 
ENDROOT
BRANCH   6   8
HETATM    8  C11 UNL     1       9.260  50.666  62.297  1.00  0.00     0.225 C 
BRANCH   8   9
HETATM    9  O2  UNL     1       9.279  51.961  62.073  1.00  0.00    -0.332 OA
ATOM     10  H2  UNL     1       8.416  52.353  62.135  1.00  0.00     0.221 HD
ENDBRANCH   8   9
BRANCH   8  11
HETATM   11  N2  UNL     1       7.967  50.137  62.349  1.00  0.00    -0.283 N 
HETATM   12  C12 UNL     1       7.589  49.020  63.202  1.00  0.00     0.163 C 
BRANCH  11  13
HETATM   13  C13 UNL     1       6.949  50.781  61.623  1.00  0.00     0.223 C 
BRANCH  13  14
HETATM   14  O3  UNL     1       7.270  51.087  60.378  1.00  0.00    -0.332 OA
ATOM     15  H3  UNL     1       7.156  52.003  60.154  1.00  0.00     0.221 HD
ENDBRANCH  13  14
BRANCH  13  16
HETATM   16  N3  UNL     1       5.672  51.153  61.994  1.00  0.00    -0.356 N 
HETATM   17  C14 UNL     1       5.516  52.102  63.162  1.00  0.00     0.152 C 
HETATM   18  C15 UNL     1       4.420  50.712  61.468  1.00  0.00     0.152 C 
ENDBRANCH  13  16
ENDBRANCH  11  13
ENDBRANCH   8  11
ENDBRANCH   6   8
BRANCH   5  19
HETATM   19  C7  UNL     1      10.759  51.280  64.564  1.00  0.00     0.009 A 
HETATM   20  C8  UNL     1      11.342  52.506  64.545  1.00  0.00     0.018 A 
HETATM   21  C9  UNL     1      10.815  53.451  65.339  1.00  0.00     0.028 A 
HETATM   22  C10 UNL     1       9.733  53.102  66.104  1.00  0.00     0.051 A 
HETATM   23 BR1  UNL     1       8.743  54.195  67.338  1.00  0.00    -0.043 Br
HETATM   24  S1  UNL     1       9.497  51.451  65.675  1.00  0.00    -0.085 SA
ENDBRANCH   5  19
BRANCH   7  25
HETATM   25  C17 UNL     1      10.614  48.296  60.835  1.00  0.00     0.131 C 
BRANCH  25  26
HETATM   26  C18 UNL     1       9.862  48.328  59.616  1.00  0.00     0.221 C 
HETATM   27  O4  UNL     1       9.278  49.305  59.147  1.00  0.00    -0.273 OA
HETATM   28  N4  UNL     1       9.765  47.127  58.858  1.00  0.00    -0.361 N 
HETATM   29  C19 UNL     1      10.402  45.901  59.290  1.00  0.00     0.152 C 
HETATM   30  C20 UNL     1       9.013  47.115  57.620  1.00  0.00     0.152 C 
ENDBRANCH  25  26
ENDBRANCH   7  25
BRANCH   1  31
HETATM   31  C2  UNL     1      13.390  50.739  61.455  1.00  0.00     0.035 C 
HETATM   32  C1  UNL     1      14.858  50.492  61.234  1.00  0.00     0.008 C 
ENDBRANCH   1  31
TORSDOF 10
ENDMDL
MODEL 5
REMARK VINA RESULT: -5.488629735      3.059      5.275
REMARK  10 active torsions:
REMARK  status: ('A' for Active; 'I' for Inactive)
REMARK    1  A    between atoms: C2_2  and  C3_3 
REMARK    2  A    between atoms: C6_7  and  C7_8 
REMARK    3  A    between atoms: N1_14  and  C11_15 
REMARK    4  A    between atoms: C11_15  and  O2_16 
REMARK    5  A    between atoms: C11_15  and  N2_18 
REMARK    6  A    between atoms: N2_18  and  C13_20 
REMARK    7  A    between atoms: C13_20  and  O3_21 
REMARK    8  A    between atoms: C13_20  and  N3_23 
REMARK    9  A    between atoms: C16_26  and  C17_27 
REMARK   10  A    between atoms: C17_27  and  C18_28 
REMARK       I    between atoms: C18_28  and  N4_30 
ROOT
HETATM    1  C3  UNL     1       8.797  46.715  59.416  1.00  0.00     0.078 C 
HETATM    2  C4  UNL     1       9.773  46.487  58.282  1.00  0.00     0.048 C 
HETATM    3  O1  UNL     1       8.297  45.502  59.825  1.00  0.00    -0.376 OA
HETATM    4  C5  UNL     1       7.529  45.614  60.951  1.00  0.00     0.199 C 
HETATM    5  C6  UNL     1       6.398  46.552  60.789  1.00  0.00     0.152 C 
HETATM    6  N1  UNL     1       6.721  47.798  60.062  1.00  0.00    -0.328 N 
HETATM    7  C16 UNL     1       7.802  47.783  59.151  1.00  0.00     0.131 C 
ENDROOT
BRANCH   6   8
HETATM    8  C11 UNL     1       5.823  48.890  60.217  1.00  0.00     0.225 C 
BRANCH   8   9
HETATM    9  O2  UNL     1       4.800  48.818  59.395  1.00  0.00    -0.332 OA
ATOM     10  H2  UNL     1       4.009  48.515  59.826  1.00  0.00     0.221 HD
ENDBRANCH   8   9
BRANCH   8  11
HETATM   11  N2  UNL     1       5.785  50.015  61.044  1.00  0.00    -0.283 N 
HETATM   12  C12 UNL     1       4.607  50.420  61.798  1.00  0.00     0.163 C 
BRANCH  11  13
HETATM   13  C13 UNL     1       6.974  50.739  61.248  1.00  0.00     0.223 C 
BRANCH  13  14
HETATM   14  O3  UNL     1       7.523  51.217  60.145  1.00  0.00    -0.332 OA
ATOM     15  H3  UNL     1       8.392  51.582  60.262  1.00  0.00     0.221 HD
ENDBRANCH  13  14
BRANCH  13  16
HETATM   16  N3  UNL     1       7.667  51.029  62.406  1.00  0.00    -0.356 N 
HETATM   17  C14 UNL     1       8.906  50.218  62.719  1.00  0.00     0.152 C 
HETATM   18  C15 UNL     1       7.348  51.970  63.432  1.00  0.00     0.152 C 
ENDBRANCH  13  16
ENDBRANCH  11  13
ENDBRANCH   8  11
ENDBRANCH   6   8
BRANCH   5  19
HETATM   19  C7  UNL     1       5.883  46.903  62.169  1.00  0.00     0.009 A 
HETATM   20  C8  UNL     1       6.553  47.391  63.245  1.00  0.00     0.018 A 
HETATM   21  C9  UNL     1       5.845  47.611  64.364  1.00  0.00     0.028 A 
HETATM   22  C10 UNL     1       4.505  47.326  64.329  1.00  0.00     0.051 A 
HETATM   23 BR1  UNL     1       3.209  47.519  65.737  1.00  0.00    -0.043 Br
HETATM   24  S1  UNL     1       4.292  46.756  62.719  1.00  0.00    -0.085 SA
ENDBRANCH   5  19
BRANCH   7  25
HETATM   25  C17 UNL     1       7.346  47.864  57.723  1.00  0.00     0.131 C 
BRANCH  25  26
HETATM   26  C18 UNL     1       7.382  49.100  56.999  1.00  0.00     0.221 C 
HETATM   27  O4  UNL     1       7.046  50.203  57.426  1.00  0.00    -0.273 OA
HETATM   28  N4  UNL     1       7.846  49.072  55.653  1.00  0.00    -0.361 N 
HETATM   29  C19 UNL     1       8.273  47.843  55.020  1.00  0.00     0.152 C 
HETATM   30  C20 UNL     1       7.898  50.298  54.884  1.00  0.00     0.152 C 
ENDBRANCH  25  26
ENDBRANCH   7  25
BRANCH   1  31
HETATM   31  C2  UNL     1       9.666  47.197  60.592  1.00  0.00     0.035 C 
HETATM   32  C1  UNL     1      10.538  48.301  60.059  1.00  0.00     0.008 C 
ENDBRANCH   1  31
TORSDOF 10
ENDMDL
