MODEL 1
REMARK VINA RESULT: -7.994041002      0.000      0.000
REMARK  12 active torsions:
REMARK  status: ('A' for Active; 'I' for Inactive)
REMARK    1  A    between atoms: C2_2  and  N1_3 
REMARK    2  A    between atoms: N1_3  and  C3_4 
REMARK       I    between atoms: N1_3  and  C5_6 
REMARK    3  A    between atoms: C5_6  and  C6_8 
REMARK    4  A    between atoms: C9_11  and  N2_12 
REMARK       I    between atoms: N2_12  and  C10_14 
REMARK       I    between atoms: C10_14  and  N4_22 
REMARK    5  A    between atoms: N3_15  and  C11_17 
REMARK    6  A    between atoms: C11_17  and  C12_18 
REMARK    7  A    between atoms: C12_18  and  S1_19 
REMARK    8  A    between atoms: N4_22  and  C14_24 
REMARK    9  A    between atoms: C14_24  and  C15_25 
REMARK   10  A    between atoms: C16_26  and  C17_27 
REMARK   11  A    between atoms: C17_27  and  C18_28 
REMARK   12  A    between atoms: C18_28  and  N5_29 
ROOT
HETATM    1  N2  UNL     1      13.188  -6.807  18.881  1.00  0.00    -0.197 N 
ATOM      2  H2  UNL     1      12.871  -7.586  19.458  1.00  0.00     0.180 HD
HETATM    3  C10 UNL     1      14.466  -6.909  18.289  1.00  0.00     0.671 C 
HETATM    4  N3  UNL     1      14.563  -7.502  17.147  1.00  0.00    -0.226 N 
ATOM      5  H3  UNL     1      13.728  -7.880  16.700  1.00  0.00     0.177 HD
HETATM    6  N4  UNL     1      15.640  -6.394  18.892  1.00  0.00    -0.223 N 
ATOM      7  H4  UNL     1      16.269  -5.827  18.324  1.00  0.00     0.178 HD
ENDROOT
BRANCH   1   8
HETATM    8  C9  UNL     1      12.293  -5.674  18.731  1.00  0.00     0.300 C 
HETATM    9  C8  UNL     1      12.926  -4.384  19.173  1.00  0.00     0.057 C 
HETATM   10  C7  UNL     1      12.446  -3.407  18.168  1.00  0.00     0.047 C 
HETATM   11  C6  UNL     1      11.455  -4.107  17.320  1.00  0.00     0.279 C 
HETATM   12  N7  UNL     1      11.896  -5.479  17.363  1.00  0.00    -0.041 N 
ATOM     13  H72 UNL     1      11.207  -6.151  17.026  1.00  0.00     0.280 HD
ATOM     14  H71 UNL     1      12.617  -5.709  16.680  1.00  0.00     0.280 HD
BRANCH  11  15
HETATM   15  C5  UNL     1      10.052  -4.038  17.741  1.00  0.00     0.250 C 
HETATM   16  N1  UNL     1       8.951  -3.652  16.935  1.00  0.00    -0.351 N 
HETATM   17  O1  UNL     1       9.794  -4.355  18.936  1.00  0.00    -0.271 OA
BRANCH  16  18
HETATM   18  C2  UNL     1       7.616  -3.606  17.565  1.00  0.00     0.121 C 
HETATM   19  C1  UNL     1       6.818  -4.787  17.052  1.00  0.00     0.026 C 
ENDBRANCH  16  18
BRANCH  16  20
HETATM   20  C3  UNL     1       8.985  -3.331  15.539  1.00  0.00     0.121 C 
HETATM   21  C4  UNL     1       8.961  -1.800  15.335  1.00  0.00     0.026 C 
ENDBRANCH  16  20
ENDBRANCH  11  15
ENDBRANCH   1   8
BRANCH   4  22
HETATM   22  C11 UNL     1      15.866  -7.636  16.488  1.00  0.00     0.150 C 
BRANCH  22  23
HETATM   23  C12 UNL     1      15.734  -7.910  15.018  1.00  0.00     0.128 C 
BRANCH  23  24
HETATM   24  S1  UNL     1      15.037  -6.550  14.136  1.00  0.00     0.012 S 
HETATM   25  C13 UNL     1      15.095  -6.823  12.379  1.00  0.00     0.127 C 
HETATM   26  O2  UNL     1      13.410  -6.419  14.546  1.00  0.00    -0.258 OA
ENDBRANCH  23  24
ENDBRANCH  22  23
ENDBRANCH   4  22
BRANCH   6  27
HETATM   27  C14 UNL     1      15.991  -6.636  20.280  1.00  0.00     0.165 C 
BRANCH  27  28
HETATM   28  C15 UNL     1      16.548  -7.984  20.458  1.00  0.00    -0.011 C 
HETATM   29  C16 UNL     1      16.056  -8.975  21.160  1.00  0.00    -0.027 C 
BRANCH  29  30
HETATM   30  C17 UNL     1      14.795  -8.926  21.940  1.00  0.00     0.048 C 
BRANCH  30  31
HETATM   31  C18 UNL     1      15.134  -8.755  23.407  1.00  0.00     0.142 C 
BRANCH  31  32
HETATM   32  N5  UNL     1      14.419  -9.679  24.231  1.00  0.00    -0.343 N 
HETATM   33  N6  UNL     1      13.302 -10.048  23.859  1.00  0.00    -0.349 N 
ATOM     34  H62 UNL     1      12.914  -9.694  22.985  1.00  0.00     0.176 HD
ATOM     35  H61 UNL     1      12.793 -10.707  24.447  1.00  0.00     0.176 HD
ATOM     36  H5  UNL     1      14.821 -10.024  25.102  1.00  0.00     0.179 HD
ENDBRANCH  31  32
ENDBRANCH  30  31
ENDBRANCH  29  30
ENDBRANCH  27  28
ENDBRANCH   6  27
TORSDOF 12
ENDMDL
MODEL 2
REMARK VINA RESULT: -7.940500579      1.748      1.986
REMARK  12 active torsions:
REMARK  status: ('A' for Active; 'I' for Inactive)
REMARK    1  A    between atoms: C2_2  and  N1_3 
REMARK    2  A    between atoms: N1_3  and  C3_4 
REMARK       I    between atoms: N1_3  and  C5_6 
REMARK    3  A    between atoms: C5_6  and  C6_8 
REMARK    4  A    between atoms: C9_11  and  N2_12 
REMARK       I    between atoms: N2_12  and  C10_14 
REMARK       I    between atoms: C10_14  and  N4_22 
REMARK    5  A    between atoms: N3_15  and  C11_17 
REMARK    6  A    between atoms: C11_17  and  C12_18 
REMARK    7  A    between atoms: C12_18  and  S1_19 
REMARK    8  A    between atoms: N4_22  and  C14_24 
REMARK    9  A    between atoms: C14_24  and  C15_25 
REMARK   10  A    between atoms: C16_26  and  C17_27 
REMARK   11  A    between atoms: C17_27  and  C18_28 
REMARK   12  A    between atoms: C18_28  and  N5_29 
ROOT
HETATM    1  N2  UNL     1      11.880  -6.865  17.817  1.00  0.00    -0.197 N 
ATOM      2  H2  UNL     1      11.340  -7.730  17.822  1.00  0.00     0.180 HD
HETATM    3  C10 UNL     1      13.283  -6.970  17.696  1.00  0.00     0.671 C 
HETATM    4  N3  UNL     1      13.789  -7.030  16.509  1.00  0.00    -0.226 N 
ATOM      5  H3  UNL     1      13.176  -7.000  15.695  1.00  0.00     0.177 HD
HETATM    6  N4  UNL     1      14.154  -7.015  18.811  1.00  0.00    -0.223 N 
ATOM      7  H4  UNL     1      14.971  -6.404  18.814  1.00  0.00     0.178 HD
ENDROOT
BRANCH   1   8
HETATM    8  C9  UNL     1      11.149  -5.616  17.937  1.00  0.00     0.300 C 
HETATM    9  C8  UNL     1      11.968  -4.537  18.591  1.00  0.00     0.057 C 
HETATM   10  C7  UNL     1      11.607  -3.323  17.823  1.00  0.00     0.047 C 
HETATM   11  C6  UNL     1      10.508  -3.700  16.905  1.00  0.00     0.279 C 
HETATM   12  N7  UNL     1      10.752  -5.099  16.656  1.00  0.00    -0.041 N 
ATOM     13  H72 UNL     1       9.968  -5.592  16.229  1.00  0.00     0.280 HD
ATOM     14  H71 UNL     1      11.419  -5.281  15.906  1.00  0.00     0.280 HD
BRANCH  11  15
HETATM   15  C5  UNL     1       9.139  -3.531  17.402  1.00  0.00     0.250 C 
HETATM   16  N1  UNL     1       7.972  -3.365  16.612  1.00  0.00    -0.351 N 
HETATM   17  O1  UNL     1       8.976  -3.537  18.654  1.00  0.00    -0.271 OA
BRANCH  16  18
HETATM   18  C2  UNL     1       6.687  -3.165  17.311  1.00  0.00     0.121 C 
HETATM   19  C1  UNL     1       5.874  -4.434  17.162  1.00  0.00     0.026 C 
ENDBRANCH  16  18
BRANCH  16  20
HETATM   20  C3  UNL     1       7.897  -3.406  15.182  1.00  0.00     0.121 C 
HETATM   21  C4  UNL     1       7.709  -1.985  14.608  1.00  0.00     0.026 C 
ENDBRANCH  16  20
ENDBRANCH  11  15
ENDBRANCH   1   8
BRANCH   4  22
HETATM   22  C11 UNL     1      15.239  -7.140  16.326  1.00  0.00     0.150 C 
BRANCH  22  23
HETATM   23  C12 UNL     1      15.608  -8.230  15.361  1.00  0.00     0.128 C 
BRANCH  23  24
HETATM   24  S1  UNL     1      15.286  -7.787  13.683  1.00  0.00     0.012 S 
HETATM   25  C13 UNL     1      14.780  -9.199  12.729  1.00  0.00     0.127 C 
HETATM   26  O2  UNL     1      14.000  -6.701  13.651  1.00  0.00    -0.258 OA
ENDBRANCH  23  24
ENDBRANCH  22  23
ENDBRANCH   4  22
BRANCH   6  27
HETATM   27  C14 UNL     1      13.939  -7.888  19.952  1.00  0.00     0.165 C 
BRANCH  27  28
HETATM   28  C15 UNL     1      14.211  -7.185  21.214  1.00  0.00    -0.011 C 
HETATM   29  C16 UNL     1      14.838  -7.639  22.271  1.00  0.00    -0.027 C 
BRANCH  29  30
HETATM   30  C17 UNL     1      15.416  -8.998  22.404  1.00  0.00     0.048 C 
BRANCH  30  31
HETATM   31  C18 UNL     1      16.859  -8.964  21.940  1.00  0.00     0.142 C 
BRANCH  31  32
HETATM   32  N5  UNL     1      17.051  -9.716  20.740  1.00  0.00    -0.343 N 
HETATM   33  N6  UNL     1      17.223  -9.098  19.686  1.00  0.00    -0.349 N 
ATOM     34  H62 UNL     1      17.226  -8.079  19.689  1.00  0.00     0.176 HD
ATOM     35  H61 UNL     1      17.360  -9.635  18.830  1.00  0.00     0.176 HD
ATOM     36  H5  UNL     1      17.045 -10.736  20.754  1.00  0.00     0.179 HD
ENDBRANCH  31  32
ENDBRANCH  30  31
ENDBRANCH  29  30
ENDBRANCH  27  28
ENDBRANCH   6  27
TORSDOF 12
ENDMDL
MODEL 3
REMARK VINA RESULT: -7.916217091      1.691      2.517
REMARK  12 active torsions:
REMARK  status: ('A' for Active; 'I' for Inactive)
REMARK    1  A    between atoms: C2_2  and  N1_3 
REMARK    2  A    between atoms: N1_3  and  C3_4 
REMARK       I    between atoms: N1_3  and  C5_6 
REMARK    3  A    between atoms: C5_6  and  C6_8 
REMARK    4  A    between atoms: C9_11  and  N2_12 
REMARK       I    between atoms: N2_12  and  C10_14 
REMARK       I    between atoms: C10_14  and  N4_22 
REMARK    5  A    between atoms: N3_15  and  C11_17 
REMARK    6  A    between atoms: C11_17  and  C12_18 
REMARK    7  A    between atoms: C12_18  and  S1_19 
REMARK    8  A    between atoms: N4_22  and  C14_24 
REMARK    9  A    between atoms: C14_24  and  C15_25 
REMARK   10  A    between atoms: C16_26  and  C17_27 
REMARK   11  A    between atoms: C17_27  and  C18_28 
REMARK   12  A    between atoms: C18_28  and  N5_29 
ROOT
HETATM    1  N2  UNL     1      11.145  -5.878  17.858  1.00  0.00    -0.197 N 
ATOM      2  H2  UNL     1      10.813  -6.815  18.085  1.00  0.00     0.180 HD
HETATM    3  C10 UNL     1      12.540  -5.689  17.737  1.00  0.00     0.671 C 
HETATM    4  N3  UNL     1      13.088  -5.918  16.592  1.00  0.00    -0.226 N 
ATOM      5  H3  UNL     1      12.514  -6.226  15.807  1.00  0.00     0.177 HD
HETATM    6  N4  UNL     1      13.357  -5.263  18.812  1.00  0.00    -0.223 N 
ATOM      7  H4  UNL     1      14.016  -4.502  18.650  1.00  0.00     0.178 HD
ENDROOT
BRANCH   1   8
HETATM    8  C9  UNL     1      10.149  -4.836  17.684  1.00  0.00     0.300 C 
HETATM    9  C8  UNL     1      10.748  -3.553  17.177  1.00  0.00     0.057 C 
HETATM   10  C7  UNL     1       9.736  -3.062  16.214  1.00  0.00     0.047 C 
HETATM   11  C6  UNL     1       8.560  -3.954  16.326  1.00  0.00     0.279 C 
HETATM   12  N7  UNL     1       9.138  -5.210  16.734  1.00  0.00    -0.041 N 
ATOM     13  H72 UNL     1       8.462  -5.888  17.085  1.00  0.00     0.280 HD
ATOM     14  H71 UNL     1       9.479  -5.785  15.963  1.00  0.00     0.280 HD
BRANCH  11  15
HETATM   15  C5  UNL     1       7.520  -3.568  17.285  1.00  0.00     0.250 C 
HETATM   16  N1  UNL     1       6.119  -3.683  17.098  1.00  0.00    -0.351 N 
HETATM   17  O1  UNL     1       7.905  -3.088  18.388  1.00  0.00    -0.271 OA
BRANCH  16  18
HETATM   18  C2  UNL     1       5.236  -3.193  18.175  1.00  0.00     0.121 C 
HETATM   19  C1  UNL     1       4.032  -4.110  18.243  1.00  0.00     0.026 C 
ENDBRANCH  16  18
BRANCH  16  20
HETATM   20  C3  UNL     1       5.454  -4.268  15.972  1.00  0.00     0.121 C 
HETATM   21  C4  UNL     1       5.270  -3.223  14.849  1.00  0.00     0.026 C 
ENDBRANCH  16  20
ENDBRANCH  11  15
ENDBRANCH   1   8
BRANCH   4  22
HETATM   22  C11 UNL     1      14.532  -5.738  16.411  1.00  0.00     0.150 C 
BRANCH  22  23
HETATM   23  C12 UNL     1      15.235  -7.035  16.129  1.00  0.00     0.128 C 
BRANCH  23  24
HETATM   24  S1  UNL     1      15.232  -7.448  14.414  1.00  0.00     0.012 S 
HETATM   25  C13 UNL     1      15.024  -9.198  14.173  1.00  0.00     0.127 C 
HETATM   26  O2  UNL     1      13.910  -6.705  13.684  1.00  0.00    -0.258 OA
ENDBRANCH  23  24
ENDBRANCH  22  23
ENDBRANCH   4  22
BRANCH   6  27
HETATM   27  C14 UNL     1      13.303  -5.859  20.135  1.00  0.00     0.165 C 
BRANCH  27  28
HETATM   28  C15 UNL     1      13.599  -7.298  20.080  1.00  0.00    -0.011 C 
HETATM   29  C16 UNL     1      14.408  -7.986  20.847  1.00  0.00    -0.027 C 
BRANCH  29  30
HETATM   30  C17 UNL     1      15.211  -7.426  21.961  1.00  0.00     0.048 C 
BRANCH  30  31
HETATM   31  C18 UNL     1      14.936  -8.230  23.216  1.00  0.00     0.142 C 
BRANCH  31  32
HETATM   32  N5  UNL     1      14.126  -9.376  22.947  1.00  0.00    -0.343 N 
HETATM   33  N6  UNL     1      13.625  -9.973  23.904  1.00  0.00    -0.349 N 
ATOM     34  H62 UNL     1      13.795  -9.645  24.854  1.00  0.00     0.176 HD
ATOM     35  H61 UNL     1      13.047 -10.791  23.712  1.00  0.00     0.176 HD
ATOM     36  H5  UNL     1      13.966  -9.692  21.991  1.00  0.00     0.179 HD
ENDBRANCH  31  32
ENDBRANCH  30  31
ENDBRANCH  29  30
ENDBRANCH  27  28
ENDBRANCH   6  27
TORSDOF 12
ENDMDL
MODEL 4
REMARK VINA RESULT: -7.868878085      0.974      1.116
REMARK  12 active torsions:
REMARK  status: ('A' for Active; 'I' for Inactive)
REMARK    1  A    between atoms: C2_2  and  N1_3 
REMARK    2  A    between atoms: N1_3  and  C3_4 
REMARK       I    between atoms: N1_3  and  C5_6 
REMARK    3  A    between atoms: C5_6  and  C6_8 
REMARK    4  A    between atoms: C9_11  and  N2_12 
REMARK       I    between atoms: N2_12  and  C10_14 
REMARK       I    between atoms: C10_14  and  N4_22 
REMARK    5  A    between atoms: N3_15  and  C11_17 
REMARK    6  A    between atoms: C11_17  and  C12_18 
REMARK    7  A    between atoms: C12_18  and  S1_19 
REMARK    8  A    between atoms: N4_22  and  C14_24 
REMARK    9  A    between atoms: C14_24  and  C15_25 
REMARK   10  A    between atoms: C16_26  and  C17_27 
REMARK   11  A    between atoms: C17_27  and  C18_28 
REMARK   12  A    between atoms: C18_28  and  N5_29 
ROOT
HETATM    1  N2  UNL     1      13.019  -6.990  18.311  1.00  0.00    -0.197 N 
ATOM      2  H2  UNL     1      12.634  -7.880  18.628  1.00  0.00     0.180 HD
HETATM    3  C10 UNL     1      14.327  -6.997  17.778  1.00  0.00     0.671 C 
HETATM    4  N3  UNL     1      14.473  -7.252  16.522  1.00  0.00    -0.226 N 
ATOM      5  H3  UNL     1      13.653  -7.442  15.945  1.00  0.00     0.177 HD
HETATM    6  N4  UNL     1      15.480  -6.738  18.559  1.00  0.00    -0.223 N 
ATOM      7  H4  UNL     1      16.166  -6.071  18.206  1.00  0.00     0.178 HD
ENDROOT
BRANCH   1   8
HETATM    8  C9  UNL     1      12.182  -5.812  18.440  1.00  0.00     0.300 C 
HETATM    9  C8  UNL     1      12.847  -4.725  19.239  1.00  0.00     0.057 C 
HETATM   10  C7  UNL     1      12.461  -3.488  18.521  1.00  0.00     0.047 C 
HETATM   11  C6  UNL     1      11.486  -3.878  17.478  1.00  0.00     0.279 C 
HETATM   12  N7  UNL     1      11.864  -5.233  17.163  1.00  0.00    -0.041 N 
ATOM     13  H72 UNL     1      11.165  -5.750  16.630  1.00  0.00     0.280 HD
ATOM     14  H71 UNL     1      12.609  -5.310  16.471  1.00  0.00     0.280 HD
BRANCH  11  15
HETATM   15  C5  UNL     1      10.068  -3.847  17.849  1.00  0.00     0.250 C 
HETATM   16  N1  UNL     1       8.978  -3.572  16.984  1.00  0.00    -0.351 N 
HETATM   17  O1  UNL     1       9.783  -4.093  19.055  1.00  0.00    -0.271 OA
BRANCH  16  18
HETATM   18  C2  UNL     1       7.622  -3.547  17.567  1.00  0.00     0.121 C 
HETATM   19  C1  UNL     1       6.868  -4.754  17.047  1.00  0.00     0.026 C 
ENDBRANCH  16  18
BRANCH  16  20
HETATM   20  C3  UNL     1       9.046  -3.347  15.571  1.00  0.00     0.121 C 
HETATM   21  C4  UNL     1       8.928  -1.840  15.256  1.00  0.00     0.026 C 
ENDBRANCH  16  20
ENDBRANCH  11  15
ENDBRANCH   1   8
BRANCH   4  22
HETATM   22  C11 UNL     1      15.808  -7.272  15.918  1.00  0.00     0.150 C 
BRANCH  22  23
HETATM   23  C12 UNL     1      15.960  -8.375  14.910  1.00  0.00     0.128 C 
BRANCH  23  24
HETATM   24  S1  UNL     1      15.366  -7.920  13.313  1.00  0.00     0.012 S 
HETATM   25  C13 UNL     1      14.752  -9.334  12.426  1.00  0.00     0.127 C 
HETATM   26  O2  UNL     1      14.062  -6.872  13.502  1.00  0.00    -0.258 OA
ENDBRANCH  23  24
ENDBRANCH  22  23
ENDBRANCH   4  22
BRANCH   6  27
HETATM   27  C14 UNL     1      15.731  -7.376  19.840  1.00  0.00     0.165 C 
BRANCH  27  28
HETATM   28  C15 UNL     1      16.280  -6.417  20.809  1.00  0.00    -0.011 C 
HETATM   29  C16 UNL     1      15.806  -6.101  21.989  1.00  0.00    -0.027 C 
BRANCH  29  30
HETATM   30  C17 UNL     1      14.578  -6.669  22.597  1.00  0.00     0.048 C 
BRANCH  30  31
HETATM   31  C18 UNL     1      14.951  -7.910  23.384  1.00  0.00     0.142 C 
BRANCH  31  32
HETATM   32  N5  UNL     1      14.220  -9.058  22.947  1.00  0.00    -0.343 N 
HETATM   33  N6  UNL     1      13.838  -9.865  23.798  1.00  0.00    -0.349 N 
ATOM     34  H62 UNL     1      14.046  -9.702  24.783  1.00  0.00     0.176 HD
ATOM     35  H61 UNL     1      13.317 -10.684  23.486  1.00  0.00     0.176 HD
ATOM     36  H5  UNL     1      14.021  -9.207  21.958  1.00  0.00     0.179 HD
ENDBRANCH  31  32
ENDBRANCH  30  31
ENDBRANCH  29  30
ENDBRANCH  27  28
ENDBRANCH   6  27
TORSDOF 12
ENDMDL
MODEL 5
REMARK VINA RESULT: -7.839742809      2.439      2.905
REMARK  12 active torsions:
REMARK  status: ('A' for Active; 'I' for Inactive)
REMARK    1  A    between atoms: C2_2  and  N1_3 
REMARK    2  A    between atoms: N1_3  and  C3_4 
REMARK       I    between atoms: N1_3  and  C5_6 
REMARK    3  A    between atoms: C5_6  and  C6_8 
REMARK    4  A    between atoms: C9_11  and  N2_12 
REMARK       I    between atoms: N2_12  and  C10_14 
REMARK       I    between atoms: C10_14  and  N4_22 
REMARK    5  A    between atoms: N3_15  and  C11_17 
REMARK    6  A    between atoms: C11_17  and  C12_18 
REMARK    7  A    between atoms: C12_18  and  S1_19 
REMARK    8  A    between atoms: N4_22  and  C14_24 
REMARK    9  A    between atoms: C14_24  and  C15_25 
REMARK   10  A    between atoms: C16_26  and  C17_27 
REMARK   11  A    between atoms: C17_27  and  C18_28 
REMARK   12  A    between atoms: C18_28  and  N5_29 
ROOT
HETATM    1  N2  UNL     1      13.367  -5.920  19.917  1.00  0.00    -0.197 N 
ATOM      2  H2  UNL     1      13.134  -6.910  19.992  1.00  0.00     0.180 HD
HETATM    3  C10 UNL     1      14.618  -5.502  20.420  1.00  0.00     0.671 C 
HETATM    4  N3  UNL     1      15.644  -5.573  19.639  1.00  0.00    -0.226 N 
ATOM      5  H3  UNL     1      15.533  -5.924  18.688  1.00  0.00     0.177 HD
HETATM    6  N4  UNL     1      14.796  -5.013  21.737  1.00  0.00    -0.223 N 
ATOM      7  H4  UNL     1      15.319  -4.148  21.868  1.00  0.00     0.178 HD
ENDROOT
BRANCH   1   8
HETATM    8  C9  UNL     1      12.387  -5.044  19.300  1.00  0.00     0.300 C 
HETATM    9  C8  UNL     1      12.913  -3.650  19.102  1.00  0.00     0.057 C 
HETATM   10  C7  UNL     1      12.367  -3.264  17.780  1.00  0.00     0.047 C 
HETATM   11  C6  UNL     1      11.442  -4.341  17.361  1.00  0.00     0.279 C 
HETATM   12  N7  UNL     1      11.988  -5.511  18.000  1.00  0.00    -0.041 N 
ATOM     13  H72 UNL     1      11.357  -6.312  18.018  1.00  0.00     0.280 HD
ATOM     14  H71 UNL     1      12.732  -5.968  17.473  1.00  0.00     0.280 HD
BRANCH  11  15
HETATM   15  C5  UNL     1      10.034  -4.195  17.744  1.00  0.00     0.250 C 
HETATM   16  N1  UNL     1       8.986  -3.701  16.926  1.00  0.00    -0.351 N 
HETATM   17  O1  UNL     1       9.717  -4.545  18.916  1.00  0.00    -0.271 OA
BRANCH  16  18
HETATM   18  C2  UNL     1       7.639  -3.591  17.519  1.00  0.00     0.121 C 
HETATM   19  C1  UNL     1       6.800  -4.734  16.984  1.00  0.00     0.026 C 
ENDBRANCH  16  18
BRANCH  16  20
HETATM   20  C3  UNL     1       9.086  -3.322  15.548  1.00  0.00     0.121 C 
HETATM   21  C4  UNL     1       8.953  -1.791  15.395  1.00  0.00     0.026 C 
ENDBRANCH  16  20
ENDBRANCH  11  15
ENDBRANCH   1   8
BRANCH   4  22
HETATM   22  C11 UNL     1      16.966  -5.153  20.112  1.00  0.00     0.150 C 
BRANCH  22  23
HETATM   23  C12 UNL     1      18.075  -5.720  19.273  1.00  0.00     0.128 C 
BRANCH  23  24
HETATM   24  S1  UNL     1      17.482  -6.522  17.818  1.00  0.00     0.012 S 
HETATM   25  C13 UNL     1      18.798  -6.806  16.656  1.00  0.00     0.127 C 
HETATM   26  O2  UNL     1      16.886  -8.037  18.244  1.00  0.00    -0.258 OA
ENDBRANCH  23  24
ENDBRANCH  22  23
ENDBRANCH   4  22
BRANCH   6  27
HETATM   27  C14 UNL     1      14.270  -5.686  22.912  1.00  0.00     0.165 C 
BRANCH  27  28
HETATM   28  C15 UNL     1      15.294  -6.533  23.539  1.00  0.00    -0.011 C 
HETATM   29  C16 UNL     1      15.429  -7.834  23.454  1.00  0.00    -0.027 C 
BRANCH  29  30
HETATM   30  C17 UNL     1      14.541  -8.736  22.680  1.00  0.00     0.048 C 
BRANCH  30  31
HETATM   31  C18 UNL     1      15.086  -8.869  21.272  1.00  0.00     0.142 C 
BRANCH  31  32
HETATM   32  N5  UNL     1      16.514  -8.927  21.256  1.00  0.00    -0.343 N 
HETATM   33  N6  UNL     1      17.056  -9.753  20.518  1.00  0.00    -0.349 N 
ATOM     34  H62 UNL     1      16.486 -10.371  19.941  1.00  0.00     0.176 HD
ATOM     35  H61 UNL     1      18.075  -9.795  20.507  1.00  0.00     0.176 HD
ATOM     36  H5  UNL     1      17.071  -8.302  21.840  1.00  0.00     0.179 HD
ENDBRANCH  31  32
ENDBRANCH  30  31
ENDBRANCH  29  30
ENDBRANCH  27  28
ENDBRANCH   6  27
TORSDOF 12
ENDMDL
