MODEL 1
REMARK VINA RESULT: -8.596735646      0.000      0.000
REMARK  9 active torsions:
REMARK  status: ('A' for Active; 'I' for Inactive)
REMARK    1  A    between atoms: C2_7  and  C3_8 
REMARK    2  A    between atoms: C3_8  and  C4_9 
REMARK       I    between atoms: N4_18  and  C10_19 
REMARK    3  A    between atoms: C10_19  and  C11_21 
REMARK    4  A    between atoms: C11_21  and  C12_22 
REMARK    5  A    between atoms: C12_22  and  C13_23 
REMARK    6  A    between atoms: C13_23  and  C14_24 
REMARK    7  A    between atoms: C14_24  and  C15_25 
REMARK    8  A    between atoms: C15_25  and  C16_26 
REMARK    9  A    between atoms: C16_26  and  N5_27 
ROOT
HETATM    1  N1  UNL     1      26.890  53.920  49.589  1.00  0.00    -0.371 N 
ATOM      2  H11 UNL     1      26.366  53.152  49.169  1.00  0.00     0.159 HD
ATOM      3  H12 UNL     1      27.559  53.541  50.259  1.00  0.00     0.159 HD
HETATM    4  C1  UNL     1      26.755  55.181  49.339  1.00  0.00     0.178 C 
HETATM    5  N2  UNL     1      27.499  56.269  49.936  1.00  0.00    -0.356 N 
ATOM      6  H2  UNL     1      28.382  56.228  50.444  1.00  0.00     0.163 HD
HETATM    7  C2  UNL     1      26.694  57.421  49.642  1.00  0.00     0.104 C 
HETATM    8  C9  UNL     1      26.142  57.140  48.297  1.00  0.00     0.160 C 
HETATM    9  N4  UNL     1      25.828  55.705  48.411  1.00  0.00    -0.288 N 
HETATM   10  C10 UNL     1      24.774  55.076  47.680  1.00  0.00     0.226 C 
HETATM   11  O2  UNL     1      24.053  55.742  46.888  1.00  0.00    -0.273 OA
ENDROOT
BRANCH  10  12
HETATM   12  C11 UNL     1      24.494  53.627  47.826  1.00  0.00     0.103 C 
BRANCH  12  13
HETATM   13  C12 UNL     1      24.513  52.979  46.485  1.00  0.00     0.009 C 
BRANCH  13  14
HETATM   14  C13 UNL     1      25.565  51.859  46.465  1.00  0.00     0.001 C 
BRANCH  14  15
HETATM   15  C14 UNL     1      25.471  51.144  47.757  1.00  0.00     0.002 C 
BRANCH  15  16
HETATM   16  C15 UNL     1      26.721  50.720  48.426  1.00  0.00     0.027 C 
BRANCH  16  17
HETATM   17  C16 UNL     1      27.761  50.165  47.515  1.00  0.00     0.229 C 
BRANCH  17  18
HETATM   18  N5  UNL     1      28.538  49.113  48.115  1.00  0.00    -0.079 N 
ATOM     19  H53 UNL     1      28.242  48.200  47.770  1.00  0.00     0.274 HD
ATOM     20  H52 UNL     1      29.496  49.123  47.763  1.00  0.00     0.274 HD
ATOM     21  H51 UNL     1      28.526  49.136  49.135  1.00  0.00     0.274 HD
ENDBRANCH  17  18
ENDBRANCH  16  17
ENDBRANCH  15  16
ENDBRANCH  14  15
ENDBRANCH  13  14
ENDBRANCH  12  13
ENDBRANCH  10  12
BRANCH   7  22
HETATM   22  C3  UNL     1      27.273  58.724  49.942  1.00  0.00     0.041 C 
BRANCH  22  23
HETATM   23  C4  UNL     1      26.908  59.444  51.186  1.00  0.00     0.080 C 
HETATM   24  C5  UNL     1      27.820  60.667  51.271  1.00  0.00     0.015 C 
HETATM   25  C6  UNL     1      28.931  60.583  52.241  1.00  0.00     0.020 C 
HETATM   26  C7  UNL     1      29.498  59.216  52.465  1.00  0.00     0.122 C 
HETATM   27  N3  UNL     1      28.399  58.276  52.777  1.00  0.00    -0.361 N 
HETATM   28  C8  UNL     1      27.085  58.693  52.439  1.00  0.00     0.221 C 
ATOM     29  H3  UNL     1      28.577  57.371  53.213  1.00  0.00     0.162 HD
HETATM   30  O1  UNL     1      26.139  58.424  53.191  1.00  0.00    -0.273 OA
ENDBRANCH  22  23
ENDBRANCH   7  22
TORSDOF 9
ENDMDL
MODEL 2
REMARK VINA RESULT: -8.294298185      2.551      3.715
REMARK  9 active torsions:
REMARK  status: ('A' for Active; 'I' for Inactive)
REMARK    1  A    between atoms: C2_7  and  C3_8 
REMARK    2  A    between atoms: C3_8  and  C4_9 
REMARK       I    between atoms: N4_18  and  C10_19 
REMARK    3  A    between atoms: C10_19  and  C11_21 
REMARK    4  A    between atoms: C11_21  and  C12_22 
REMARK    5  A    between atoms: C12_22  and  C13_23 
REMARK    6  A    between atoms: C13_23  and  C14_24 
REMARK    7  A    between atoms: C14_24  and  C15_25 
REMARK    8  A    between atoms: C15_25  and  C16_26 
REMARK    9  A    between atoms: C16_26  and  N5_27 
ROOT
HETATM    1  N1  UNL     1      25.196  59.428  49.362  1.00  0.00    -0.371 N 
ATOM      2  H11 UNL     1      24.991  58.869  48.534  1.00  0.00     0.159 HD
ATOM      3  H12 UNL     1      24.775  60.351  49.255  1.00  0.00     0.159 HD
HETATM    4  C1  UNL     1      25.877  59.063  50.397  1.00  0.00     0.178 C 
HETATM    5  N2  UNL     1      26.168  59.857  51.571  1.00  0.00    -0.356 N 
ATOM      6  H2  UNL     1      25.707  60.710  51.888  1.00  0.00     0.163 HD
HETATM    7  C2  UNL     1      27.263  59.158  52.183  1.00  0.00     0.104 C 
HETATM    8  C9  UNL     1      26.963  57.730  51.929  1.00  0.00     0.160 C 
HETATM    9  N4  UNL     1      26.461  57.785  50.546  1.00  0.00    -0.288 N 
HETATM   10  C10 UNL     1      26.592  56.700  49.624  1.00  0.00     0.226 C 
HETATM   11  O2  UNL     1      27.157  55.627  49.970  1.00  0.00    -0.273 OA
ENDROOT
BRANCH  10  12
HETATM   12  C11 UNL     1      26.070  56.799  48.240  1.00  0.00     0.103 C 
BRANCH  12  13
HETATM   13  C12 UNL     1      24.714  56.188  48.174  1.00  0.00     0.009 C 
BRANCH  13  14
HETATM   14  C13 UNL     1      24.685  55.101  47.088  1.00  0.00     0.001 C 
BRANCH  14  15
HETATM   15  C14 UNL     1      24.625  53.793  47.777  1.00  0.00     0.002 C 
BRANCH  15  16
HETATM   16  C15 UNL     1      25.203  52.609  47.104  1.00  0.00     0.027 C 
BRANCH  16  17
HETATM   17  C16 UNL     1      26.199  51.853  47.915  1.00  0.00     0.229 C 
BRANCH  17  18
HETATM   18  N5  UNL     1      26.595  52.542  49.114  1.00  0.00    -0.079 N 
ATOM     19  H53 UNL     1      25.778  52.837  49.650  1.00  0.00     0.274 HD
ATOM     20  H52 UNL     1      27.010  51.895  49.785  1.00  0.00     0.274 HD
ATOM     21  H51 UNL     1      27.217  53.331  48.938  1.00  0.00     0.274 HD
ENDBRANCH  17  18
ENDBRANCH  16  17
ENDBRANCH  15  16
ENDBRANCH  14  15
ENDBRANCH  13  14
ENDBRANCH  12  13
ENDBRANCH  10  12
BRANCH   7  22
HETATM   22  C3  UNL     1      27.669  59.600  53.510  1.00  0.00     0.041 C 
BRANCH  22  23
HETATM   23  C4  UNL     1      26.715  60.318  54.390  1.00  0.00     0.080 C 
HETATM   24  C5  UNL     1      27.223  61.754  54.511  1.00  0.00     0.015 C 
HETATM   25  C6  UNL     1      27.884  62.104  55.785  1.00  0.00     0.020 C 
HETATM   26  C7  UNL     1      28.626  60.993  56.460  1.00  0.00     0.122 C 
HETATM   27  N3  UNL     1      27.737  59.817  56.585  1.00  0.00    -0.361 N 
HETATM   28  C8  UNL     1      26.583  59.796  55.759  1.00  0.00     0.221 C 
ATOM     29  H3  UNL     1      27.944  59.057  57.234  1.00  0.00     0.162 HD
HETATM   30  O1  UNL     1      25.515  59.351  56.200  1.00  0.00    -0.273 OA
ENDBRANCH  22  23
ENDBRANCH   7  22
TORSDOF 9
ENDMDL
MODEL 3
REMARK VINA RESULT: -8.218829780      2.276      3.334
REMARK  9 active torsions:
REMARK  status: ('A' for Active; 'I' for Inactive)
REMARK    1  A    between atoms: C2_7  and  C3_8 
REMARK    2  A    between atoms: C3_8  and  C4_9 
REMARK       I    between atoms: N4_18  and  C10_19 
REMARK    3  A    between atoms: C10_19  and  C11_21 
REMARK    4  A    between atoms: C11_21  and  C12_22 
REMARK    5  A    between atoms: C12_22  and  C13_23 
REMARK    6  A    between atoms: C13_23  and  C14_24 
REMARK    7  A    between atoms: C14_24  and  C15_25 
REMARK    8  A    between atoms: C15_25  and  C16_26 
REMARK    9  A    between atoms: C16_26  and  N5_27 
ROOT
HETATM    1  N1  UNL     1      28.616  57.551  49.070  1.00  0.00    -0.371 N 
ATOM      2  H11 UNL     1      28.221  57.186  48.203  1.00  0.00     0.159 HD
ATOM      3  H12 UNL     1      29.632  57.476  49.033  1.00  0.00     0.159 HD
HETATM    4  C1  UNL     1      27.965  58.035  50.076  1.00  0.00     0.178 C 
HETATM    5  N2  UNL     1      28.525  58.552  51.306  1.00  0.00    -0.356 N 
ATOM      6  H2  UNL     1      29.485  58.844  51.490  1.00  0.00     0.163 HD
HETATM    7  C2  UNL     1      27.406  58.555  52.206  1.00  0.00     0.104 C 
HETATM    8  C9  UNL     1      26.255  58.912  51.344  1.00  0.00     0.160 C 
HETATM    9  N4  UNL     1      26.557  58.137  50.128  1.00  0.00    -0.288 N 
HETATM   10  C10 UNL     1      25.546  57.640  49.249  1.00  0.00     0.226 C 
HETATM   11  O2  UNL     1      24.326  57.851  49.487  1.00  0.00    -0.273 OA
ENDROOT
BRANCH  10  12
HETATM   12  C11 UNL     1      25.897  56.865  48.034  1.00  0.00     0.103 C 
BRANCH  12  13
HETATM   13  C12 UNL     1      25.698  55.412  48.296  1.00  0.00     0.009 C 
BRANCH  13  14
HETATM   14  C13 UNL     1      24.541  54.882  47.435  1.00  0.00     0.001 C 
BRANCH  14  15
HETATM   15  C14 UNL     1      24.502  53.413  47.607  1.00  0.00     0.002 C 
BRANCH  15  16
HETATM   16  C15 UNL     1      25.516  52.590  46.912  1.00  0.00     0.027 C 
BRANCH  16  17
HETATM   17  C16 UNL     1      26.073  51.468  47.720  1.00  0.00     0.229 C 
BRANCH  17  18
HETATM   18  N5  UNL     1      26.661  51.900  48.960  1.00  0.00    -0.079 N 
ATOM     19  H53 UNL     1      26.728  52.917  48.995  1.00  0.00     0.274 HD
ATOM     20  H52 UNL     1      26.019  51.748  49.739  1.00  0.00     0.274 HD
ATOM     21  H51 UNL     1      27.567  51.470  49.147  1.00  0.00     0.274 HD
ENDBRANCH  17  18
ENDBRANCH  16  17
ENDBRANCH  15  16
ENDBRANCH  14  15
ENDBRANCH  13  14
ENDBRANCH  12  13
ENDBRANCH  10  12
BRANCH   7  22
HETATM   22  C3  UNL     1      27.595  59.214  53.491  1.00  0.00     0.041 C 
BRANCH  22  23
HETATM   23  C4  UNL     1      26.643  60.253  53.953  1.00  0.00     0.080 C 
HETATM   24  C5  UNL     1      27.475  61.476  54.334  1.00  0.00     0.015 C 
HETATM   25  C6  UNL     1      27.657  61.713  55.780  1.00  0.00     0.020 C 
HETATM   26  C7  UNL     1      27.697  60.489  56.641  1.00  0.00     0.122 C 
HETATM   27  N3  UNL     1      26.517  59.646  56.347  1.00  0.00    -0.361 N 
HETATM   28  C8  UNL     1      25.832  59.906  55.131  1.00  0.00     0.221 C 
ATOM     29  H3  UNL     1      26.210  58.914  56.987  1.00  0.00     0.162 HD
HETATM   30  O1  UNL     1      24.597  59.838  55.090  1.00  0.00    -0.273 OA
ENDBRANCH  22  23
ENDBRANCH   7  22
TORSDOF 9
ENDMDL
MODEL 4
REMARK VINA RESULT: -8.046635983      2.152      3.021
REMARK  9 active torsions:
REMARK  status: ('A' for Active; 'I' for Inactive)
REMARK    1  A    between atoms: C2_7  and  C3_8 
REMARK    2  A    between atoms: C3_8  and  C4_9 
REMARK       I    between atoms: N4_18  and  C10_19 
REMARK    3  A    between atoms: C10_19  and  C11_21 
REMARK    4  A    between atoms: C11_21  and  C12_22 
REMARK    5  A    between atoms: C12_22  and  C13_23 
REMARK    6  A    between atoms: C13_23  and  C14_24 
REMARK    7  A    between atoms: C14_24  and  C15_25 
REMARK    8  A    between atoms: C15_25  and  C16_26 
REMARK    9  A    between atoms: C16_26  and  N5_27 
ROOT
HETATM    1  N1  UNL     1      24.360  58.553  49.278  1.00  0.00    -0.371 N 
ATOM      2  H11 UNL     1      24.015  57.749  48.753  1.00  0.00     0.159 HD
ATOM      3  H12 UNL     1      23.674  59.306  49.224  1.00  0.00     0.159 HD
HETATM    4  C1  UNL     1      25.479  58.642  49.917  1.00  0.00     0.178 C 
HETATM    5  N2  UNL     1      25.967  59.784  50.661  1.00  0.00    -0.356 N 
ATOM      6  H2  UNL     1      25.440  60.586  51.006  1.00  0.00     0.163 HD
HETATM    7  C2  UNL     1      27.371  59.516  50.796  1.00  0.00     0.104 C 
HETATM    8  C9  UNL     1      27.441  58.046  50.963  1.00  0.00     0.160 C 
HETATM    9  N4  UNL     1      26.429  57.599  49.991  1.00  0.00    -0.288 N 
HETATM   10  C10 UNL     1      26.495  56.340  49.318  1.00  0.00     0.226 C 
HETATM   11  O2  UNL     1      27.448  55.543  49.536  1.00  0.00    -0.273 OA
ENDROOT
BRANCH  10  12
HETATM   12  C11 UNL     1      25.452  55.931  48.347  1.00  0.00     0.103 C 
BRANCH  12  13
HETATM   13  C12 UNL     1      25.399  54.444  48.271  1.00  0.00     0.009 C 
BRANCH  13  14
HETATM   14  C13 UNL     1      24.566  54.016  47.052  1.00  0.00     0.001 C 
BRANCH  14  15
HETATM   15  C14 UNL     1      25.199  52.803  46.491  1.00  0.00     0.002 C 
BRANCH  15  16
HETATM   16  C15 UNL     1      25.189  51.560  47.295  1.00  0.00     0.027 C 
BRANCH  16  17
HETATM   17  C16 UNL     1      26.537  51.038  47.656  1.00  0.00     0.229 C 
BRANCH  17  18
HETATM   18  N5  UNL     1      26.881  51.261  49.036  1.00  0.00    -0.079 N 
ATOM     19  H53 UNL     1      27.891  51.227  49.168  1.00  0.00     0.274 HD
ATOM     20  H52 UNL     1      26.710  52.232  49.299  1.00  0.00     0.274 HD
ATOM     21  H51 UNL     1      26.409  50.622  49.676  1.00  0.00     0.274 HD
ENDBRANCH  17  18
ENDBRANCH  16  17
ENDBRANCH  15  16
ENDBRANCH  14  15
ENDBRANCH  13  14
ENDBRANCH  12  13
ENDBRANCH  10  12
BRANCH   7  22
HETATM   22  C3  UNL     1      28.127  60.394  51.679  1.00  0.00     0.041 C 
BRANCH  22  23
HETATM   23  C4  UNL     1      28.341  60.030  53.101  1.00  0.00     0.080 C 
HETATM   24  C5  UNL     1      28.230  61.323  53.908  1.00  0.00     0.015 C 
HETATM   25  C6  UNL     1      29.503  61.901  54.386  1.00  0.00     0.020 C 
HETATM   26  C7  UNL     1      30.692  61.672  53.507  1.00  0.00     0.122 C 
HETATM   27  N3  UNL     1      30.804  60.229  53.201  1.00  0.00    -0.361 N 
HETATM   28  C8  UNL     1      29.647  59.436  53.425  1.00  0.00     0.221 C 
ATOM     29  H3  UNL     1      31.669  59.823  52.845  1.00  0.00     0.162 HD
HETATM   30  O1  UNL     1      29.762  58.290  53.879  1.00  0.00    -0.273 OA
ENDBRANCH  22  23
ENDBRANCH   7  22
TORSDOF 9
ENDMDL
MODEL 5
REMARK VINA RESULT: -8.041217065      2.351      3.566
REMARK  9 active torsions:
REMARK  status: ('A' for Active; 'I' for Inactive)
REMARK    1  A    between atoms: C2_7  and  C3_8 
REMARK    2  A    between atoms: C3_8  and  C4_9 
REMARK       I    between atoms: N4_18  and  C10_19 
REMARK    3  A    between atoms: C10_19  and  C11_21 
REMARK    4  A    between atoms: C11_21  and  C12_22 
REMARK    5  A    between atoms: C12_22  and  C13_23 
REMARK    6  A    between atoms: C13_23  and  C14_24 
REMARK    7  A    between atoms: C14_24  and  C15_25 
REMARK    8  A    between atoms: C15_25  and  C16_26 
REMARK    9  A    between atoms: C16_26  and  N5_27 
ROOT
HETATM    1  N1  UNL     1      25.141  59.381  49.403  1.00  0.00    -0.371 N 
ATOM      2  H11 UNL     1      24.844  58.847  48.586  1.00  0.00     0.159 HD
ATOM      3  H12 UNL     1      24.709  60.304  49.374  1.00  0.00     0.159 HD
HETATM    4  C1  UNL     1      25.936  58.985  50.341  1.00  0.00     0.178 C 
HETATM    5  N2  UNL     1      26.357  59.743  51.500  1.00  0.00    -0.356 N 
ATOM      6  H2  UNL     1      25.932  60.582  51.896  1.00  0.00     0.163 HD
HETATM    7  C2  UNL     1      27.515  59.031  51.960  1.00  0.00     0.104 C 
HETATM    8  C9  UNL     1      27.191  57.610  51.695  1.00  0.00     0.160 C 
HETATM    9  N4  UNL     1      26.535  57.707  50.380  1.00  0.00    -0.288 N 
HETATM   10  C10 UNL     1      26.562  56.653  49.414  1.00  0.00     0.226 C 
HETATM   11  O2  UNL     1      27.165  55.573  49.658  1.00  0.00    -0.273 OA
ENDROOT
BRANCH  10  12
HETATM   12  C11 UNL     1      25.887  56.795  48.102  1.00  0.00     0.103 C 
BRANCH  12  13
HETATM   13  C12 UNL     1      24.583  56.076  48.133  1.00  0.00     0.009 C 
BRANCH  13  14
HETATM   14  C13 UNL     1      24.543  55.023  47.015  1.00  0.00     0.001 C 
BRANCH  14  15
HETATM   15  C14 UNL     1      24.640  53.694  47.658  1.00  0.00     0.002 C 
BRANCH  15  16
HETATM   16  C15 UNL     1      25.380  52.620  46.960  1.00  0.00     0.027 C 
BRANCH  16  17
HETATM   17  C16 UNL     1      26.216  51.759  47.845  1.00  0.00     0.229 C 
BRANCH  17  18
HETATM   18  N5  UNL     1      26.613  52.414  49.063  1.00  0.00    -0.079 N 
ATOM     19  H53 UNL     1      26.845  53.392  48.890  1.00  0.00     0.274 HD
ATOM     20  H52 UNL     1      25.814  52.539  49.685  1.00  0.00     0.274 HD
ATOM     21  H51 UNL     1      27.377  51.940  49.544  1.00  0.00     0.274 HD
ENDBRANCH  17  18
ENDBRANCH  16  17
ENDBRANCH  15  16
ENDBRANCH  14  15
ENDBRANCH  13  14
ENDBRANCH  12  13
ENDBRANCH  10  12
BRANCH   7  22
HETATM   22  C3  UNL     1      28.068  59.431  53.247  1.00  0.00     0.041 C 
BRANCH  22  23
HETATM   23  C4  UNL     1      28.274  60.865  53.566  1.00  0.00     0.080 C 
HETATM   24  C5  UNL     1      29.772  61.135  53.432  1.00  0.00     0.015 C 
HETATM   25  C6  UNL     1      30.525  61.262  54.697  1.00  0.00     0.020 C 
HETATM   26  C7  UNL     1      30.016  60.445  55.842  1.00  0.00     0.122 C 
HETATM   27  N3  UNL     1      28.568  60.693  56.015  1.00  0.00    -0.361 N 
HETATM   28  C8  UNL     1      27.885  61.286  54.921  1.00  0.00     0.221 C 
ATOM     29  H3  UNL     1      28.083  60.450  56.879  1.00  0.00     0.162 HD
HETATM   30  O1  UNL     1      26.999  62.126  55.126  1.00  0.00    -0.273 OA
ENDBRANCH  22  23
ENDBRANCH   7  22
TORSDOF 9
ENDMDL
