MODEL 1
REMARK VINA RESULT: -7.471722187      0.000      0.000
REMARK  9 active torsions:
REMARK  status: ('A' for Active; 'I' for Inactive)
REMARK    1  A    between atoms: C2_2  and  N1_3 
REMARK    2  A    between atoms: N1_3  and  C3_4 
REMARK    3  A    between atoms: N1_3  and  C6_11 
REMARK    4  A    between atoms: C3_4  and  C4_5 
REMARK    5  A    between atoms: C4_5  and  N2_6 
REMARK    6  A    between atoms: C6_11  and  C7_12 
REMARK    7  A    between atoms: C7_12  and  N5_13 
REMARK    8  A    between atoms: N5_13  and  C8_15 
REMARK    9  A    between atoms: C9_18  and  N7_19 
ROOT
HETATM    1  C8  UNL     1      26.866  59.643  50.601  1.00  0.00     0.700 A 
HETATM    2  N6  UNL     1      25.878  59.548  51.498  1.00  0.00    -0.022 N 
ATOM      3  H6  UNL     1      24.959  59.227  51.193  1.00  0.00     0.203 HD
HETATM    4  C9  UNL     1      26.070  59.869  52.809  1.00  0.00     0.692 A 
HETATM    5  N8  UNL     1      27.297  60.288  53.172  1.00  0.00    -0.175 N 
ATOM      6  H8  UNL     1      27.462  60.534  54.148  1.00  0.00     0.186 HD
HETATM    7  C10 UNL     1      28.320  60.397  52.293  1.00  0.00     0.143 A 
HETATM    8  C11 UNL     1      29.633  60.797  52.449  1.00  0.00     0.051 A 
HETATM    9  C12 UNL     1      30.224  60.713  51.218  1.00  0.00     0.022 A 
HETATM   10  C13 UNL     1      29.255  60.264  50.354  1.00  0.00     0.117 A 
HETATM   11  N9  UNL     1      28.080  60.063  50.992  1.00  0.00    -0.142 N 
ENDROOT
BRANCH   1  12
HETATM   12  N5  UNL     1      26.658  59.344  49.379  1.00  0.00    -0.220 N 
ATOM     13  H5  UNL     1      27.316  59.645  48.661  1.00  0.00     0.178 HD
BRANCH  12  14
HETATM   14  C7  UNL     1      25.498  58.587  49.017  1.00  0.00     0.182 C 
BRANCH  14  15
HETATM   15  C6  UNL     1      25.800  57.502  48.007  1.00  0.00     0.078 C 
BRANCH  15  16
HETATM   16  N1  UNL     1      25.605  56.189  48.416  1.00  0.00    -0.391 N 
BRANCH  16  17
HETATM   17  C2  UNL     1      26.642  55.488  49.083  1.00  0.00     0.117 C 
HETATM   18  C1  UNL     1      27.093  56.061  50.396  1.00  0.00     0.026 C 
ENDBRANCH  16  17
BRANCH  16  19
HETATM   19  C3  UNL     1      24.750  55.366  47.619  1.00  0.00     0.141 C 
BRANCH  19  20
HETATM   20  C4  UNL     1      24.848  53.894  47.963  1.00  0.00     0.141 C 
BRANCH  20  21
HETATM   21  N2  UNL     1      24.170  53.034  47.058  1.00  0.00    -0.365 N 
HETATM   22  C5  UNL     1      24.764  52.032  46.542  1.00  0.00     0.197 C 
HETATM   23  N3  UNL     1      26.112  51.761  46.868  1.00  0.00    -0.067 NA
HETATM   24  N4  UNL     1      24.096  51.168  45.636  1.00  0.00    -0.067 NA
ATOM     25  H2  UNL     1      23.195  53.222  46.818  1.00  0.00     0.161 HD
ENDBRANCH  20  21
ENDBRANCH  19  20
ENDBRANCH  16  19
ENDBRANCH  15  16
ENDBRANCH  14  15
ENDBRANCH  12  14
ENDBRANCH   1  12
BRANCH   4  26
HETATM   26  N7  UNL     1      25.129  59.783  53.684  1.00  0.00    -0.234 N 
ATOM     27  H72 UNL     1      24.825  58.870  54.023  1.00  0.00     0.174 HD
ATOM     28  H71 UNL     1      24.660  60.606  54.063  1.00  0.00     0.174 HD
ENDBRANCH   4  26
TORSDOF 9
ENDMDL
MODEL 2
REMARK VINA RESULT: -7.383371288      1.522      2.412
REMARK  9 active torsions:
REMARK  status: ('A' for Active; 'I' for Inactive)
REMARK    1  A    between atoms: C2_2  and  N1_3 
REMARK    2  A    between atoms: N1_3  and  C3_4 
REMARK    3  A    between atoms: N1_3  and  C6_11 
REMARK    4  A    between atoms: C3_4  and  C4_5 
REMARK    5  A    between atoms: C4_5  and  N2_6 
REMARK    6  A    between atoms: C6_11  and  C7_12 
REMARK    7  A    between atoms: C7_12  and  N5_13 
REMARK    8  A    between atoms: N5_13  and  C8_15 
REMARK    9  A    between atoms: C9_18  and  N7_19 
ROOT
HETATM    1  C8  UNL     1      28.349  59.416  52.074  1.00  0.00     0.700 A 
HETATM    2  N6  UNL     1      27.065  59.162  52.354  1.00  0.00    -0.022 N 
ATOM      3  H6  UNL     1      26.582  58.421  51.846  1.00  0.00     0.203 HD
HETATM    4  C9  UNL     1      26.388  59.869  53.304  1.00  0.00     0.692 A 
HETATM    5  N8  UNL     1      27.059  60.838  53.953  1.00  0.00    -0.175 N 
ATOM      6  H8  UNL     1      26.571  61.379  54.667  1.00  0.00     0.186 HD
HETATM    7  C10 UNL     1      28.357  61.123  53.697  1.00  0.00     0.143 A 
HETATM    8  C11 UNL     1      29.221  62.057  54.235  1.00  0.00     0.051 A 
HETATM    9  C12 UNL     1      30.422  61.903  53.597  1.00  0.00     0.022 A 
HETATM   10  C13 UNL     1      30.252  60.882  52.695  1.00  0.00     0.117 A 
HETATM   11  N9  UNL     1      28.993  60.389  52.738  1.00  0.00    -0.142 N 
ENDROOT
BRANCH   1  12
HETATM   12  N5  UNL     1      28.956  58.747  51.176  1.00  0.00    -0.220 N 
ATOM     13  H5  UNL     1      29.668  58.067  51.440  1.00  0.00     0.178 HD
BRANCH  12  14
HETATM   14  C7  UNL     1      28.637  58.950  49.794  1.00  0.00     0.182 C 
BRANCH  14  15
HETATM   15  C6  UNL     1      28.531  57.655  49.022  1.00  0.00     0.078 C 
BRANCH  15  16
HETATM   16  N1  UNL     1      27.253  57.168  48.782  1.00  0.00    -0.391 N 
BRANCH  16  17
HETATM   17  C2  UNL     1      26.236  58.034  48.305  1.00  0.00     0.117 C 
HETATM   18  C1  UNL     1      25.208  58.466  49.310  1.00  0.00     0.026 C 
ENDBRANCH  16  17
BRANCH  16  19
HETATM   19  C3  UNL     1      26.784  56.101  49.611  1.00  0.00     0.141 C 
BRANCH  19  20
HETATM   20  C4  UNL     1      26.034  55.034  48.842  1.00  0.00     0.141 C 
BRANCH  20  21
HETATM   21  N2  UNL     1      26.454  53.705  49.123  1.00  0.00    -0.365 N 
HETATM   22  C5  UNL     1      26.095  52.737  48.376  1.00  0.00     0.197 C 
HETATM   23  N3  UNL     1      25.272  52.974  47.252  1.00  0.00    -0.067 NA
HETATM   24  N4  UNL     1      26.508  51.408  48.648  1.00  0.00    -0.067 NA
ATOM     25  H2  UNL     1      27.049  53.525  49.932  1.00  0.00     0.161 HD
ENDBRANCH  20  21
ENDBRANCH  19  20
ENDBRANCH  16  19
ENDBRANCH  15  16
ENDBRANCH  14  15
ENDBRANCH  12  14
ENDBRANCH   1  12
BRANCH   4  26
HETATM   26  N7  UNL     1      25.152  59.635  53.584  1.00  0.00    -0.234 N 
ATOM     27  H72 UNL     1      24.629  58.936  53.057  1.00  0.00     0.174 HD
ATOM     28  H71 UNL     1      24.660  60.129  54.329  1.00  0.00     0.174 HD
ENDBRANCH   4  26
TORSDOF 9
ENDMDL
MODEL 3
REMARK VINA RESULT: -7.276226875      1.962      3.418
REMARK  9 active torsions:
REMARK  status: ('A' for Active; 'I' for Inactive)
REMARK    1  A    between atoms: C2_2  and  N1_3 
REMARK    2  A    between atoms: N1_3  and  C3_4 
REMARK    3  A    between atoms: N1_3  and  C6_11 
REMARK    4  A    between atoms: C3_4  and  C4_5 
REMARK    5  A    between atoms: C4_5  and  N2_6 
REMARK    6  A    between atoms: C6_11  and  C7_12 
REMARK    7  A    between atoms: C7_12  and  N5_13 
REMARK    8  A    between atoms: N5_13  and  C8_15 
REMARK    9  A    between atoms: C9_18  and  N7_19 
ROOT
HETATM    1  C8  UNL     1      26.782  59.419  52.738  1.00  0.00     0.700 A 
HETATM    2  N6  UNL     1      28.041  59.101  52.417  1.00  0.00    -0.022 N 
ATOM      3  H6  UNL     1      28.255  58.817  51.460  1.00  0.00     0.203 HD
HETATM    4  C9  UNL     1      29.047  59.147  53.337  1.00  0.00     0.692 A 
HETATM    5  N8  UNL     1      28.726  59.527  54.589  1.00  0.00    -0.175 N 
ATOM      6  H8  UNL     1      29.463  59.568  55.292  1.00  0.00     0.186 HD
HETATM    7  C10 UNL     1      27.464  59.855  54.950  1.00  0.00     0.143 A 
HETATM    8  C11 UNL     1      26.925  60.264  56.154  1.00  0.00     0.051 A 
HETATM    9  C12 UNL     1      25.587  60.461  55.946  1.00  0.00     0.022 A 
HETATM   10  C13 UNL     1      25.355  60.167  54.624  1.00  0.00     0.117 A 
HETATM   11  N9  UNL     1      26.492  59.794  53.994  1.00  0.00    -0.142 N 
ENDROOT
BRANCH   1  12
HETATM   12  N5  UNL     1      25.859  59.358  51.861  1.00  0.00    -0.220 N 
ATOM     13  H5  UNL     1      24.899  59.163  52.143  1.00  0.00     0.178 HD
BRANCH  12  14
HETATM   14  C7  UNL     1      26.172  59.564  50.479  1.00  0.00     0.182 C 
BRANCH  14  15
HETATM   15  C6  UNL     1      26.063  58.298  49.660  1.00  0.00     0.078 C 
BRANCH  15  16
HETATM   16  N1  UNL     1      27.175  57.466  49.635  1.00  0.00    -0.391 N 
BRANCH  16  17
HETATM   17  C2  UNL     1      28.202  57.674  48.680  1.00  0.00     0.117 C 
HETATM   18  C1  UNL     1      29.458  58.324  49.186  1.00  0.00     0.026 C 
ENDBRANCH  16  17
BRANCH  16  19
HETATM   19  C3  UNL     1      26.990  56.101  50.020  1.00  0.00     0.141 C 
BRANCH  19  20
HETATM   20  C4  UNL     1      26.217  55.293  48.998  1.00  0.00     0.141 C 
BRANCH  20  21
HETATM   21  N2  UNL     1      26.438  53.891  49.072  1.00  0.00    -0.365 N 
HETATM   22  C5  UNL     1      25.926  53.105  48.210  1.00  0.00     0.197 C 
HETATM   23  N3  UNL     1      25.129  53.621  47.163  1.00  0.00    -0.067 NA
HETATM   24  N4  UNL     1      26.139  51.704  48.275  1.00  0.00    -0.067 NA
ATOM     25  H2  UNL     1      27.013  53.510  49.823  1.00  0.00     0.161 HD
ENDBRANCH  20  21
ENDBRANCH  19  20
ENDBRANCH  16  19
ENDBRANCH  15  16
ENDBRANCH  14  15
ENDBRANCH  12  14
ENDBRANCH   1  12
BRANCH   4  26
HETATM   26  N7  UNL     1      30.263  58.844  53.043  1.00  0.00    -0.234 N 
ATOM     27  H72 UNL     1      30.955  59.579  52.899  1.00  0.00     0.174 HD
ATOM     28  H71 UNL     1      30.576  57.878  52.945  1.00  0.00     0.174 HD
ENDBRANCH   4  26
TORSDOF 9
ENDMDL
MODEL 4
REMARK VINA RESULT: -7.143475319      1.693      2.533
REMARK  9 active torsions:
REMARK  status: ('A' for Active; 'I' for Inactive)
REMARK    1  A    between atoms: C2_2  and  N1_3 
REMARK    2  A    between atoms: N1_3  and  C3_4 
REMARK    3  A    between atoms: N1_3  and  C6_11 
REMARK    4  A    between atoms: C3_4  and  C4_5 
REMARK    5  A    between atoms: C4_5  and  N2_6 
REMARK    6  A    between atoms: C6_11  and  C7_12 
REMARK    7  A    between atoms: C7_12  and  N5_13 
REMARK    8  A    between atoms: N5_13  and  C8_15 
REMARK    9  A    between atoms: C9_18  and  N7_19 
ROOT
HETATM    1  C8  UNL     1      26.852  59.855  52.816  1.00  0.00     0.700 A 
HETATM    2  N6  UNL     1      25.698  59.667  53.468  1.00  0.00    -0.022 N 
ATOM      3  H6  UNL     1      25.010  59.018  53.087  1.00  0.00     0.203 HD
HETATM    4  C9  UNL     1      25.421  60.323  54.631  1.00  0.00     0.692 A 
HETATM    5  N8  UNL     1      26.354  61.172  55.103  1.00  0.00    -0.175 N 
ATOM      6  H8  UNL     1      26.166  61.673  55.972  1.00  0.00     0.186 HD
HETATM    7  C10 UNL     1      27.531  61.386  54.471  1.00  0.00     0.143 A 
HETATM    8  C11 UNL     1      28.607  62.197  54.774  1.00  0.00     0.051 A 
HETATM    9  C12 UNL     1      29.532  62.020  53.780  1.00  0.00     0.022 A 
HETATM   10  C13 UNL     1      28.990  61.109  52.907  1.00  0.00     0.117 A 
HETATM   11  N9  UNL     1      27.763  60.707  53.311  1.00  0.00    -0.142 N 
ENDROOT
BRANCH   1  12
HETATM   12  N5  UNL     1      27.082  59.235  51.726  1.00  0.00    -0.220 N 
ATOM     13  H5  UNL     1      27.876  58.599  51.659  1.00  0.00     0.178 HD
BRANCH  12  14
HETATM   14  C7  UNL     1      26.226  59.434  50.596  1.00  0.00     0.182 C 
BRANCH  14  15
HETATM   15  C6  UNL     1      26.076  58.190  49.749  1.00  0.00     0.078 C 
BRANCH  15  16
HETATM   16  N1  UNL     1      27.195  57.377  49.621  1.00  0.00    -0.391 N 
BRANCH  16  17
HETATM   17  C2  UNL     1      28.157  57.639  48.612  1.00  0.00     0.117 C 
HETATM   18  C1  UNL     1      29.435  58.285  49.064  1.00  0.00     0.026 C 
ENDBRANCH  16  17
BRANCH  16  19
HETATM   19  C3  UNL     1      27.054  55.996  49.962  1.00  0.00     0.141 C 
BRANCH  19  20
HETATM   20  C4  UNL     1      26.191  55.226  48.983  1.00  0.00     0.141 C 
BRANCH  20  21
HETATM   21  N2  UNL     1      26.401  53.820  48.997  1.00  0.00    -0.365 N 
HETATM   22  C5  UNL     1      25.820  53.066  48.151  1.00  0.00     0.197 C 
HETATM   23  N3  UNL     1      24.956  53.623  47.180  1.00  0.00    -0.067 NA
HETATM   24  N4  UNL     1      26.021  51.662  48.157  1.00  0.00    -0.067 NA
ATOM     25  H2  UNL     1      27.025  53.411  49.693  1.00  0.00     0.161 HD
ENDBRANCH  20  21
ENDBRANCH  19  20
ENDBRANCH  16  19
ENDBRANCH  15  16
ENDBRANCH  14  15
ENDBRANCH  12  14
ENDBRANCH   1  12
BRANCH   4  26
HETATM   26  N7  UNL     1      24.316  60.153  55.270  1.00  0.00    -0.234 N 
ATOM     27  H72 UNL     1      23.584  59.558  54.882  1.00  0.00     0.174 HD
ATOM     28  H71 UNL     1      24.133  60.597  56.170  1.00  0.00     0.174 HD
ENDBRANCH   4  26
TORSDOF 9
ENDMDL
MODEL 5
REMARK VINA RESULT: -7.037056037      3.007      5.537
REMARK  9 active torsions:
REMARK  status: ('A' for Active; 'I' for Inactive)
REMARK    1  A    between atoms: C2_2  and  N1_3 
REMARK    2  A    between atoms: N1_3  and  C3_4 
REMARK    3  A    between atoms: N1_3  and  C6_11 
REMARK    4  A    between atoms: C3_4  and  C4_5 
REMARK    5  A    between atoms: C4_5  and  N2_6 
REMARK    6  A    between atoms: C6_11  and  C7_12 
REMARK    7  A    between atoms: C7_12  and  N5_13 
REMARK    8  A    between atoms: N5_13  and  C8_15 
REMARK    9  A    between atoms: C9_18  and  N7_19 
ROOT
HETATM    1  C8  UNL     1      26.750  59.553  52.917  1.00  0.00     0.700 A 
HETATM    2  N6  UNL     1      28.065  59.415  52.711  1.00  0.00    -0.022 N 
ATOM      3  H6  UNL     1      28.405  59.232  51.767  1.00  0.00     0.203 HD
HETATM    4  C9  UNL     1      28.962  59.514  53.734  1.00  0.00     0.692 A 
HETATM    5  N8  UNL     1      28.475  59.757  54.966  1.00  0.00    -0.175 N 
ATOM      6  H8  UNL     1      29.129  59.834  55.744  1.00  0.00     0.186 HD
HETATM    7  C10 UNL     1      27.152  59.902  55.211  1.00  0.00     0.143 A 
HETATM    8  C11 UNL     1      26.451  60.151  56.375  1.00  0.00     0.051 A 
HETATM    9  C12 UNL     1      25.125  60.199  56.039  1.00  0.00     0.022 A 
HETATM   10  C13 UNL     1      25.062  59.980  54.684  1.00  0.00     0.117 A 
HETATM   11  N9  UNL     1      26.294  59.795  54.156  1.00  0.00    -0.142 N 
ENDROOT
BRANCH   1  12
HETATM   12  N5  UNL     1      25.932  59.448  51.945  1.00  0.00    -0.220 N 
ATOM     13  H5  UNL     1      24.965  59.177  52.119  1.00  0.00     0.178 HD
BRANCH  12  14
HETATM   14  C7  UNL     1      26.374  59.710  50.608  1.00  0.00     0.182 C 
BRANCH  14  15
HETATM   15  C6  UNL     1      25.668  58.853  49.581  1.00  0.00     0.078 C 
BRANCH  15  16
HETATM   16  N1  UNL     1      26.467  58.065  48.763  1.00  0.00    -0.391 N 
BRANCH  16  17
HETATM   17  C2  UNL     1      25.878  57.235  47.775  1.00  0.00     0.117 C 
HETATM   18  C1  UNL     1      25.456  55.865  48.225  1.00  0.00     0.026 C 
ENDBRANCH  16  17
BRANCH  16  19
HETATM   19  C3  UNL     1      27.685  57.558  49.315  1.00  0.00     0.141 C 
BRANCH  19  20
HETATM   20  C4  UNL     1      28.922  58.199  48.719  1.00  0.00     0.141 C 
BRANCH  20  21
HETATM   21  N2  UNL     1      30.109  57.993  49.473  1.00  0.00    -0.365 N 
HETATM   22  C5  UNL     1      30.589  58.922  50.200  1.00  0.00     0.197 C 
HETATM   23  N3  UNL     1      29.940  60.176  50.269  1.00  0.00    -0.067 NA
HETATM   24  N4  UNL     1      31.774  58.726  50.955  1.00  0.00    -0.067 NA
ATOM     25  H2  UNL     1      30.582  57.089  49.430  1.00  0.00     0.161 HD
ENDBRANCH  20  21
ENDBRANCH  19  20
ENDBRANCH  16  19
ENDBRANCH  15  16
ENDBRANCH  14  15
ENDBRANCH  12  14
ENDBRANCH   1  12
BRANCH   4  26
HETATM   26  N7  UNL     1      30.230  59.384  53.552  1.00  0.00    -0.234 N 
ATOM     27  H72 UNL     1      30.602  59.241  52.613  1.00  0.00     0.174 HD
ATOM     28  H71 UNL     1      30.898  59.419  54.322  1.00  0.00     0.174 HD
ENDBRANCH   4  26
TORSDOF 9
ENDMDL
