MODEL 1
REMARK VINA RESULT: -8.145706526      0.000      0.000
REMARK  17 active torsions:
REMARK  status: ('A' for Active; 'I' for Inactive)
REMARK    1  A    between atoms: N1_1  and  N2_4 
REMARK    2  A    between atoms: N2_4  and  C1_5 
REMARK    3  A    between atoms: C1_5  and  C2_6 
REMARK    4  A    between atoms: C2_6  and  C3_7 
REMARK    5  A    between atoms: C3_7  and  C4_8 
REMARK    6  A    between atoms: C4_8  and  C5_9 
REMARK    7  A    between atoms: C5_9  and  C6_10 
REMARK    8  A    between atoms: C6_10  and  N3_11 
REMARK    9  A    between atoms: N3_11  and  C7_13 
REMARK   10  A    between atoms: C8_16  and  N6_17 
REMARK   11  A    between atoms: C9_21  and  O1_22 
REMARK   12  A    between atoms: O1_22  and  C10_23 
REMARK   13  A    between atoms: C11_27  and  C12_28 
REMARK   14  A    between atoms: C12_28  and  N8_29 
REMARK   15  A    between atoms: C14_34  and  O2_35 
REMARK   16  A    between atoms: C15_37  and  O3_38 
REMARK   17  A    between atoms: C16_40  and  N11_41 
ROOT
HETATM    1  C10 UNL     1      35.804  54.078  15.082  1.00  0.00     0.355 C 
HETATM    2  N7  UNL     1      36.043  53.964  16.511  1.00  0.00    -0.038 N 
ATOM      3  H71 UNL     1      36.480  53.068  16.731  1.00  0.00     0.281 HD
ATOM      4  H72 UNL     1      35.163  53.854  17.014  1.00  0.00     0.281 HD
HETATM    5  C11 UNL     1      36.804  55.040  17.061  1.00  0.00     0.237 C 
HETATM    6  C14 UNL     1      38.060  55.316  16.262  1.00  0.00     0.181 C 
HETATM    7  C15 UNL     1      37.661  55.608  14.848  1.00  0.00     0.183 C 
HETATM    8  C16 UNL     1      36.138  55.501  14.683  1.00  0.00     0.270 C 
ENDROOT
BRANCH   1   9
HETATM    9  O1  UNL     1      36.651  53.260  14.358  1.00  0.00    -0.345 OA
BRANCH   9  10
HETATM   10  C9  UNL     1      36.167  51.992  14.131  1.00  0.00     0.211 C 
HETATM   11  C7  UNL     1      35.088  51.566  15.096  1.00  0.00     0.224 C 
HETATM   12  N4  UNL     1      33.869  51.425  14.374  1.00  0.00    -0.118 NA
HETATM   13  N5  UNL     1      34.015  52.035  13.140  1.00  0.00    -0.110 NA
HETATM   14  C8  UNL     1      35.422  52.030  12.814  1.00  0.00     0.323 C 
BRANCH  11  15
HETATM   15  N3  UNL     1      35.435  50.433  15.903  1.00  0.00    -0.381 N 
ATOM     16  H3  UNL     1      36.358  50.005  15.838  1.00  0.00     0.160 HD
BRANCH  15  17
HETATM   17  C6  UNL     1      34.464  49.929  16.790  1.00  0.00     0.057 C 
BRANCH  17  18
HETATM   18  C5  UNL     1      34.211  48.437  16.749  1.00  0.00     0.044 C 
BRANCH  18  19
HETATM   19  C4  UNL     1      34.443  47.797  18.084  1.00  0.00     0.005 C 
BRANCH  19  20
HETATM   20  C3  UNL     1      34.349  48.622  19.288  1.00  0.00     0.002 C 
BRANCH  20  21
HETATM   21  C2  UNL     1      33.099  48.819  20.024  1.00  0.00     0.018 C 
BRANCH  21  22
HETATM   22  C1  UNL     1      31.857  49.185  19.313  1.00  0.00     0.134 C 
BRANCH  22  23
HETATM   23  N2  UNL     1      31.766  50.616  19.060  1.00  0.00    -0.148 NA
BRANCH  23  24
HETATM   24  N1  UNL     1      32.532  51.379  19.925  1.00  0.00    -0.348 N 
ATOM     25  H12 UNL     1      32.230  52.293  20.263  1.00  0.00     0.172 HD
ATOM     26  H11 UNL     1      33.415  50.937  20.183  1.00  0.00     0.172 HD
ENDBRANCH  23  24
ENDBRANCH  22  23
ENDBRANCH  21  22
ENDBRANCH  20  21
ENDBRANCH  19  20
ENDBRANCH  18  19
ENDBRANCH  17  18
ENDBRANCH  15  17
ENDBRANCH  11  15
BRANCH  14  27
HETATM   27  N6  UNL     1      35.791  51.009  11.891  1.00  0.00    -0.057 N 
ATOM     28  H63 UNL     1      36.801  50.863  11.899  1.00  0.00     0.276 HD
ATOM     29  H62 UNL     1      35.484  50.094  12.222  1.00  0.00     0.276 HD
ATOM     30  H61 UNL     1      35.458  51.178  10.941  1.00  0.00     0.276 HD
ENDBRANCH  14  27
ENDBRANCH   9  10
ENDBRANCH   1   9
BRANCH   8  31
HETATM   31  N11 UNL     1      35.879  55.754  13.279  1.00  0.00    -0.068 N 
ATOM     32 3H11 UNL     1      35.265  55.041  12.884  1.00  0.00     0.275 HD
ATOM     33 2H11 UNL     1      35.279  56.571  13.157  1.00  0.00     0.275 HD
ATOM     34 1H11 UNL     1      36.738  55.843  12.736  1.00  0.00     0.275 HD
ENDBRANCH   8  31
BRANCH   5  35
HETATM   35  C12 UNL     1      37.211  54.672  18.487  1.00  0.00     0.157 C 
BRANCH  35  36
HETATM   36  N8  UNL     1      36.077  54.630  19.369  1.00  0.00    -0.365 N 
HETATM   37  C13 UNL     1      35.472  53.566  19.732  1.00  0.00     0.197 C 
HETATM   38  N9  UNL     1      34.363  53.688  20.612  1.00  0.00    -0.067 NA
HETATM   39  N10 UNL     1      35.833  52.254  19.316  1.00  0.00    -0.067 NA
ATOM     40  H8  UNL     1      35.729  55.518  19.732  1.00  0.00     0.161 HD
ENDBRANCH  35  36
ENDBRANCH   5  35
BRANCH   7  41
HETATM   41  O3  UNL     1      38.173  56.765  14.326  1.00  0.00    -0.391 OA
ATOM     42  H3  UNL     1      38.550  56.684  13.458  1.00  0.00     0.210 HD
ENDBRANCH   7  41
BRANCH   6  43
HETATM   43  O2  UNL     1      38.712  56.424  16.802  1.00  0.00    -0.391 OA
ATOM     44  H2  UNL     1      39.459  56.129  17.310  1.00  0.00     0.210 HD
ENDBRANCH   6  43
TORSDOF 17
ENDMDL
MODEL 2
REMARK VINA RESULT: -8.116919409      2.854      6.229
REMARK  17 active torsions:
REMARK  status: ('A' for Active; 'I' for Inactive)
REMARK    1  A    between atoms: N1_1  and  N2_4 
REMARK    2  A    between atoms: N2_4  and  C1_5 
REMARK    3  A    between atoms: C1_5  and  C2_6 
REMARK    4  A    between atoms: C2_6  and  C3_7 
REMARK    5  A    between atoms: C3_7  and  C4_8 
REMARK    6  A    between atoms: C4_8  and  C5_9 
REMARK    7  A    between atoms: C5_9  and  C6_10 
REMARK    8  A    between atoms: C6_10  and  N3_11 
REMARK    9  A    between atoms: N3_11  and  C7_13 
REMARK   10  A    between atoms: C8_16  and  N6_17 
REMARK   11  A    between atoms: C9_21  and  O1_22 
REMARK   12  A    between atoms: O1_22  and  C10_23 
REMARK   13  A    between atoms: C11_27  and  C12_28 
REMARK   14  A    between atoms: C12_28  and  N8_29 
REMARK   15  A    between atoms: C14_34  and  O2_35 
REMARK   16  A    between atoms: C15_37  and  O3_38 
REMARK   17  A    between atoms: C16_40  and  N11_41 
ROOT
HETATM    1  C10 UNL     1      35.353  52.530  17.080  1.00  0.00     0.355 C 
HETATM    2  N7  UNL     1      35.138  51.153  17.495  1.00  0.00    -0.038 N 
ATOM      3  H71 UNL     1      36.006  50.621  17.434  1.00  0.00     0.281 HD
ATOM      4  H72 UNL     1      34.581  50.655  16.802  1.00  0.00     0.281 HD
HETATM    5  C11 UNL     1      34.558  51.021  18.793  1.00  0.00     0.237 C 
HETATM    6  C14 UNL     1      35.286  51.853  19.828  1.00  0.00     0.181 C 
HETATM    7  C15 UNL     1      35.270  53.280  19.377  1.00  0.00     0.183 C 
HETATM    8  C16 UNL     1      34.559  53.412  18.023  1.00  0.00     0.270 C 
ENDROOT
BRANCH   1   9
HETATM    9  O1  UNL     1      36.678  52.901  17.221  1.00  0.00    -0.345 OA
BRANCH   9  10
HETATM   10  C9  UNL     1      37.274  53.346  16.063  1.00  0.00     0.211 C 
HETATM   11  C7  UNL     1      36.296  53.801  15.007  1.00  0.00     0.224 C 
HETATM   12  N4  UNL     1      36.453  55.203  14.821  1.00  0.00    -0.118 NA
HETATM   13  N5  UNL     1      37.188  55.708  15.879  1.00  0.00    -0.110 NA
HETATM   14  C8  UNL     1      37.998  54.631  16.402  1.00  0.00     0.323 C 
BRANCH  11  15
HETATM   15  N3  UNL     1      36.340  53.032  13.796  1.00  0.00    -0.381 N 
ATOM     16  H3  UNL     1      37.142  52.440  13.579  1.00  0.00     0.160 HD
BRANCH  15  17
HETATM   17  C6  UNL     1      35.244  53.118  12.917  1.00  0.00     0.057 C 
BRANCH  17  18
HETATM   18  C5  UNL     1      34.535  51.823  12.581  1.00  0.00     0.044 C 
BRANCH  18  19
HETATM   19  C4  UNL     1      35.498  50.685  12.431  1.00  0.00     0.005 C 
BRANCH  19  20
HETATM   20  C3  UNL     1      36.021  50.372  11.101  1.00  0.00     0.002 C 
BRANCH  20  21
HETATM   21  C2  UNL     1      35.187  49.840  10.022  1.00  0.00     0.018 C 
BRANCH  21  22
HETATM   22  C1  UNL     1      33.995  49.022  10.326  1.00  0.00     0.134 C 
BRANCH  22  23
HETATM   23  N2  UNL     1      32.898  49.279   9.403  1.00  0.00    -0.148 NA
BRANCH  23  24
HETATM   24  N1  UNL     1      33.300  49.363   8.080  1.00  0.00    -0.348 N 
ATOM     25  H12 UNL     1      32.853  48.824   7.338  1.00  0.00     0.172 HD
ATOM     26  H11 UNL     1      34.076  50.008   7.931  1.00  0.00     0.172 HD
ENDBRANCH  23  24
ENDBRANCH  22  23
ENDBRANCH  21  22
ENDBRANCH  20  21
ENDBRANCH  19  20
ENDBRANCH  18  19
ENDBRANCH  17  18
ENDBRANCH  15  17
ENDBRANCH  11  15
BRANCH  14  27
HETATM   27  N6  UNL     1      39.357  54.679  15.975  1.00  0.00    -0.057 N 
ATOM     28  H63 UNL     1      39.429  54.473  14.978  1.00  0.00     0.276 HD
ATOM     29  H62 UNL     1      39.701  55.640  15.975  1.00  0.00     0.276 HD
ATOM     30  H61 UNL     1      39.976  54.074  16.515  1.00  0.00     0.276 HD
ENDBRANCH  14  27
ENDBRANCH   9  10
ENDBRANCH   1   9
BRANCH   8  31
HETATM   31  N11 UNL     1      34.649  54.815  17.669  1.00  0.00    -0.068 N 
ATOM     32 3H11 UNL     1      35.579  55.186  17.865  1.00  0.00     0.275 HD
ATOM     33 2H11 UNL     1      34.633  54.941  16.656  1.00  0.00     0.275 HD
ATOM     34 1H11 UNL     1      33.926  55.375  18.121  1.00  0.00     0.275 HD
ENDBRANCH   8  31
BRANCH   5  35
HETATM   35  C12 UNL     1      34.633  49.554  19.214  1.00  0.00     0.157 C 
BRANCH  35  36
HETATM   36  N8  UNL     1      33.654  49.239  20.217  1.00  0.00    -0.365 N 
HETATM   37  C13 UNL     1      32.392  49.211  20.024  1.00  0.00     0.197 C 
HETATM   38  N9  UNL     1      31.549  48.880  21.120  1.00  0.00    -0.067 NA
HETATM   39  N10 UNL     1      31.763  49.489  18.779  1.00  0.00    -0.067 NA
ATOM     40  H8  UNL     1      33.992  49.022  21.155  1.00  0.00     0.161 HD
ENDBRANCH  35  36
ENDBRANCH   5  35
BRANCH   7  41
HETATM   41  O3  UNL     1      34.819  54.180  20.305  1.00  0.00    -0.391 OA
ATOM     42  H3  UNL     1      35.025  55.089  20.121  1.00  0.00     0.210 HD
ENDBRANCH   7  41
BRANCH   6  43
HETATM   43  O2  UNL     1      34.624  51.741  21.051  1.00  0.00    -0.391 OA
ATOM     44  H2  UNL     1      34.752  50.865  21.396  1.00  0.00     0.210 HD
ENDBRANCH   6  43
TORSDOF 17
ENDMDL
MODEL 3
REMARK VINA RESULT: -8.113463310      2.673      6.282
REMARK  17 active torsions:
REMARK  status: ('A' for Active; 'I' for Inactive)
REMARK    1  A    between atoms: N1_1  and  N2_4 
REMARK    2  A    between atoms: N2_4  and  C1_5 
REMARK    3  A    between atoms: C1_5  and  C2_6 
REMARK    4  A    between atoms: C2_6  and  C3_7 
REMARK    5  A    between atoms: C3_7  and  C4_8 
REMARK    6  A    between atoms: C4_8  and  C5_9 
REMARK    7  A    between atoms: C5_9  and  C6_10 
REMARK    8  A    between atoms: C6_10  and  N3_11 
REMARK    9  A    between atoms: N3_11  and  C7_13 
REMARK   10  A    between atoms: C8_16  and  N6_17 
REMARK   11  A    between atoms: C9_21  and  O1_22 
REMARK   12  A    between atoms: O1_22  and  C10_23 
REMARK   13  A    between atoms: C11_27  and  C12_28 
REMARK   14  A    between atoms: C12_28  and  N8_29 
REMARK   15  A    between atoms: C14_34  and  O2_35 
REMARK   16  A    between atoms: C15_37  and  O3_38 
REMARK   17  A    between atoms: C16_40  and  N11_41 
ROOT
HETATM    1  C10 UNL     1      35.304  52.779  16.504  1.00  0.00     0.355 C 
HETATM    2  N7  UNL     1      34.932  51.431  16.901  1.00  0.00    -0.038 N 
ATOM      3  H71 UNL     1      35.693  50.778  16.710  1.00  0.00     0.281 HD
ATOM      4  H72 UNL     1      34.221  51.057  16.274  1.00  0.00     0.281 HD
HETATM    5  C11 UNL     1      34.509  51.320  18.261  1.00  0.00     0.237 C 
HETATM    6  C14 UNL     1      35.482  51.981  19.215  1.00  0.00     0.181 C 
HETATM    7  C15 UNL     1      35.630  53.416  18.813  1.00  0.00     0.183 C 
HETATM    8  C16 UNL     1      34.782  53.721  17.571  1.00  0.00     0.270 C 
ENDROOT
BRANCH   1   9
HETATM    9  O1  UNL     1      36.677  52.941  16.478  1.00  0.00    -0.345 OA
BRANCH   9  10
HETATM   10  C9  UNL     1      37.177  53.391  15.278  1.00  0.00     0.211 C 
HETATM   11  C7  UNL     1      36.124  53.915  14.333  1.00  0.00     0.224 C 
HETATM   12  N4  UNL     1      36.325  55.314  14.165  1.00  0.00    -0.118 NA
HETATM   13  N5  UNL     1      37.180  55.758  15.157  1.00  0.00    -0.110 NA
HETATM   14  C8  UNL     1      37.987  54.635  15.574  1.00  0.00     0.323 C 
BRANCH  11  15
HETATM   15  N3  UNL     1      36.016  53.178  13.107  1.00  0.00    -0.381 N 
ATOM     16  H3  UNL     1      36.697  53.304  12.358  1.00  0.00     0.160 HD
BRANCH  15  17
HETATM   17  C6  UNL     1      34.944  52.276  12.968  1.00  0.00     0.057 C 
BRANCH  17  18
HETATM   18  C5  UNL     1      35.297  50.841  12.637  1.00  0.00     0.044 C 
BRANCH  18  19
HETATM   19  C4  UNL     1      34.553  50.350  11.433  1.00  0.00     0.005 C 
BRANCH  19  20
HETATM   20  C3  UNL     1      35.295  49.666  10.374  1.00  0.00     0.002 C 
BRANCH  20  21
HETATM   21  C2  UNL     1      36.734  49.837  10.171  1.00  0.00     0.018 C 
BRANCH  21  22
HETATM   22  C1  UNL     1      37.246  50.887   9.267  1.00  0.00     0.134 C 
BRANCH  22  23
HETATM   23  N2  UNL     1      37.953  51.939   9.985  1.00  0.00    -0.148 NA
BRANCH  23  24
HETATM   24  N1  UNL     1      38.864  52.625   9.200  1.00  0.00    -0.348 N 
ATOM     25  H12 UNL     1      38.698  53.577   8.874  1.00  0.00     0.172 HD
ATOM     26  H11 UNL     1      39.703  52.085   8.987  1.00  0.00     0.172 HD
ENDBRANCH  23  24
ENDBRANCH  22  23
ENDBRANCH  21  22
ENDBRANCH  20  21
ENDBRANCH  19  20
ENDBRANCH  18  19
ENDBRANCH  17  18
ENDBRANCH  15  17
ENDBRANCH  11  15
BRANCH  14  27
HETATM   27  N6  UNL     1      39.299  54.638  15.018  1.00  0.00    -0.057 N 
ATOM     28  H63 UNL     1      39.319  55.162  14.143  1.00  0.00     0.276 HD
ATOM     29  H62 UNL     1      39.927  55.216  15.577  1.00  0.00     0.276 HD
ATOM     30  H61 UNL     1      39.690  53.704  14.888  1.00  0.00     0.276 HD
ENDBRANCH  14  27
ENDBRANCH   9  10
ENDBRANCH   1   9
BRANCH   8  31
HETATM   31  N11 UNL     1      35.041  55.111  17.251  1.00  0.00    -0.068 N 
ATOM     32 3H11 UNL     1      35.063  55.685  18.094  1.00  0.00     0.275 HD
ATOM     33 2H11 UNL     1      36.004  55.244  16.939  1.00  0.00     0.275 HD
ATOM     34 1H11 UNL     1      34.378  55.482  16.570  1.00  0.00     0.275 HD
ENDBRANCH   8  31
BRANCH   5  35
HETATM   35  C12 UNL     1      34.409  49.839  18.623  1.00  0.00     0.157 C 
BRANCH  35  36
HETATM   36  N8  UNL     1      33.642  49.637  19.820  1.00  0.00    -0.365 N 
HETATM   37  C13 UNL     1      32.376  49.470  19.858  1.00  0.00     0.197 C 
HETATM   38  N9  UNL     1      31.759  49.280  21.125  1.00  0.00    -0.067 NA
HETATM   39  N10 UNL     1      31.532  49.460  18.714  1.00  0.00    -0.067 NA
ATOM     40  H8  UNL     1      34.146  49.625  20.707  1.00  0.00     0.161 HD
ENDBRANCH  35  36
ENDBRANCH   5  35
BRANCH   7  41
HETATM   41  O3  UNL     1      35.444  54.325  19.820  1.00  0.00    -0.391 OA
ATOM     42  H3  UNL     1      35.977  55.109  19.761  1.00  0.00     0.210 HD
ENDBRANCH   7  41
BRANCH   6  43
HETATM   43  O2  UNL     1      34.972  51.908  20.511  1.00  0.00    -0.391 OA
ATOM     44  H2  UNL     1      34.041  52.095  20.491  1.00  0.00     0.210 HD
ENDBRANCH   6  43
TORSDOF 17
ENDMDL
MODEL 4
REMARK VINA RESULT: -7.839157046      3.738      7.223
REMARK  17 active torsions:
REMARK  status: ('A' for Active; 'I' for Inactive)
REMARK    1  A    between atoms: N1_1  and  N2_4 
REMARK    2  A    between atoms: N2_4  and  C1_5 
REMARK    3  A    between atoms: C1_5  and  C2_6 
REMARK    4  A    between atoms: C2_6  and  C3_7 
REMARK    5  A    between atoms: C3_7  and  C4_8 
REMARK    6  A    between atoms: C4_8  and  C5_9 
REMARK    7  A    between atoms: C5_9  and  C6_10 
REMARK    8  A    between atoms: C6_10  and  N3_11 
REMARK    9  A    between atoms: N3_11  and  C7_13 
REMARK   10  A    between atoms: C8_16  and  N6_17 
REMARK   11  A    between atoms: C9_21  and  O1_22 
REMARK   12  A    between atoms: O1_22  and  C10_23 
REMARK   13  A    between atoms: C11_27  and  C12_28 
REMARK   14  A    between atoms: C12_28  and  N8_29 
REMARK   15  A    between atoms: C14_34  and  O2_35 
REMARK   16  A    between atoms: C15_37  and  O3_38 
REMARK   17  A    between atoms: C16_40  and  N11_41 
ROOT
HETATM    1  C10 UNL     1      33.531  50.370  18.598  1.00  0.00     0.355 C 
HETATM    2  N7  UNL     1      34.722  49.891  19.279  1.00  0.00    -0.038 N 
ATOM      3  H71 UNL     1      35.531  50.462  19.033  1.00  0.00     0.281 HD
ATOM      4  H72 UNL     1      35.019  48.995  18.892  1.00  0.00     0.281 HD
HETATM    5  C11 UNL     1      34.585  49.802  20.698  1.00  0.00     0.237 C 
HETATM    6  C14 UNL     1      34.022  51.075  21.295  1.00  0.00     0.181 C 
HETATM    7  C15 UNL     1      32.703  51.355  20.644  1.00  0.00     0.183 C 
HETATM    8  C16 UNL     1      32.385  50.290  19.586  1.00  0.00     0.270 C 
ENDROOT
BRANCH   1   9
HETATM    9  O1  UNL     1      33.649  51.702  18.245  1.00  0.00    -0.345 OA
BRANCH   9  10
HETATM   10  C9  UNL     1      34.892  52.062  17.775  1.00  0.00     0.211 C 
HETATM   11  C7  UNL     1      34.875  52.650  16.386  1.00  0.00     0.224 C 
HETATM   12  N4  UNL     1      35.261  54.017  16.470  1.00  0.00    -0.118 NA
HETATM   13  N5  UNL     1      35.194  54.413  17.795  1.00  0.00    -0.110 NA
HETATM   14  C8  UNL     1      35.360  53.233  18.612  1.00  0.00     0.323 C 
BRANCH  11  15
HETATM   15  N3  UNL     1      35.604  51.885  15.415  1.00  0.00    -0.381 N 
ATOM     16  H3  UNL     1      35.767  50.888  15.549  1.00  0.00     0.160 HD
BRANCH  15  17
HETATM   17  C6  UNL     1      36.086  52.552  14.273  1.00  0.00     0.057 C 
BRANCH  17  18
HETATM   18  C5  UNL     1      35.277  52.403  13.002  1.00  0.00     0.044 C 
BRANCH  18  19
HETATM   19  C4  UNL     1      35.171  50.970  12.576  1.00  0.00     0.005 C 
BRANCH  19  20
HETATM   20  C3  UNL     1      35.936  50.521  11.413  1.00  0.00     0.002 C 
BRANCH  20  21
HETATM   21  C2  UNL     1      35.327  49.826  10.278  1.00  0.00     0.018 C 
BRANCH  21  22
HETATM   22  C1  UNL     1      34.064  49.080  10.444  1.00  0.00     0.134 C 
BRANCH  22  23
HETATM   23  N2  UNL     1      33.016  49.559   9.552  1.00  0.00    -0.148 NA
BRANCH  23  24
HETATM   24  N1  UNL     1      33.299  49.354   8.211  1.00  0.00    -0.348 N 
ATOM     25  H12 UNL     1      34.247  49.398   7.839  1.00  0.00     0.172 HD
ATOM     26  H11 UNL     1      32.471  49.158   7.648  1.00  0.00     0.172 HD
ENDBRANCH  23  24
ENDBRANCH  22  23
ENDBRANCH  21  22
ENDBRANCH  20  21
ENDBRANCH  19  20
ENDBRANCH  18  19
ENDBRANCH  17  18
ENDBRANCH  15  17
ENDBRANCH  11  15
BRANCH  14  27
HETATM   27  N6  UNL     1      36.672  53.093  19.152  1.00  0.00    -0.057 N 
ATOM     28  H63 UNL     1      37.365  53.037  18.406  1.00  0.00     0.276 HD
ATOM     29  H62 UNL     1      36.972  53.959  19.599  1.00  0.00     0.276 HD
ATOM     30  H61 UNL     1      36.767  52.305  19.793  1.00  0.00     0.276 HD
ENDBRANCH  14  27
ENDBRANCH   9  10
ENDBRANCH   1   9
BRANCH   8  31
HETATM   31  N11 UNL     1      31.122  50.689  18.996  1.00  0.00    -0.068 N 
ATOM     32 3H11 UNL     1      31.129  50.556  17.985  1.00  0.00     0.275 HD
ATOM     33 2H11 UNL     1      30.378  50.034  19.241  1.00  0.00     0.275 HD
ATOM     34 1H11 UNL     1      30.866  51.646  19.240  1.00  0.00     0.275 HD
ENDBRANCH   8  31
BRANCH   5  35
HETATM   35  C12 UNL     1      35.963  49.551  21.308  1.00  0.00     0.157 C 
BRANCH  35  36
HETATM   36  N8  UNL     1      36.438  48.227  21.017  1.00  0.00    -0.365 N 
HETATM   37  C13 UNL     1      37.599  47.786  21.314  1.00  0.00     0.197 C 
HETATM   38  N9  UNL     1      37.923  46.448  20.959  1.00  0.00    -0.067 NA
HETATM   39  N10 UNL     1      38.601  48.544  21.981  1.00  0.00    -0.067 NA
ATOM     40  H8  UNL     1      35.801  47.592  20.537  1.00  0.00     0.161 HD
ENDBRANCH  35  36
ENDBRANCH   5  35
BRANCH   7  41
HETATM   41  O3  UNL     1      31.663  51.575  21.507  1.00  0.00    -0.391 OA
ATOM     42  H3  UNL     1      30.896  51.981  21.120  1.00  0.00     0.210 HD
ENDBRANCH   7  41
BRANCH   6  43
HETATM   43  O2  UNL     1      33.839  50.895  22.666  1.00  0.00    -0.391 OA
ATOM     44  H2  UNL     1      34.290  51.587  23.135  1.00  0.00     0.210 HD
ENDBRANCH   6  43
TORSDOF 17
ENDMDL
MODEL 5
REMARK VINA RESULT: -7.789623237      2.378      3.817
REMARK  17 active torsions:
REMARK  status: ('A' for Active; 'I' for Inactive)
REMARK    1  A    between atoms: N1_1  and  N2_4 
REMARK    2  A    between atoms: N2_4  and  C1_5 
REMARK    3  A    between atoms: C1_5  and  C2_6 
REMARK    4  A    between atoms: C2_6  and  C3_7 
REMARK    5  A    between atoms: C3_7  and  C4_8 
REMARK    6  A    between atoms: C4_8  and  C5_9 
REMARK    7  A    between atoms: C5_9  and  C6_10 
REMARK    8  A    between atoms: C6_10  and  N3_11 
REMARK    9  A    between atoms: N3_11  and  C7_13 
REMARK   10  A    between atoms: C8_16  and  N6_17 
REMARK   11  A    between atoms: C9_21  and  O1_22 
REMARK   12  A    between atoms: O1_22  and  C10_23 
REMARK   13  A    between atoms: C11_27  and  C12_28 
REMARK   14  A    between atoms: C12_28  and  N8_29 
REMARK   15  A    between atoms: C14_34  and  O2_35 
REMARK   16  A    between atoms: C15_37  and  O3_38 
REMARK   17  A    between atoms: C16_40  and  N11_41 
ROOT
HETATM    1  C10 UNL     1      37.002  54.108  15.199  1.00  0.00     0.355 C 
HETATM    2  N7  UNL     1      38.239  54.538  14.569  1.00  0.00    -0.038 N 
ATOM      3  H71 UNL     1      38.344  54.104  13.652  1.00  0.00     0.281 HD
ATOM      4  H72 UNL     1      39.044  54.131  15.046  1.00  0.00     0.281 HD
HETATM    5  C11 UNL     1      38.379  55.956  14.471  1.00  0.00     0.237 C 
HETATM    6  C14 UNL     1      37.147  56.610  13.883  1.00  0.00     0.181 C 
HETATM    7  C15 UNL     1      35.971  56.245  14.735  1.00  0.00     0.183 C 
HETATM    8  C16 UNL     1      36.401  55.320  15.882  1.00  0.00     0.270 C 
ENDROOT
BRANCH   1   9
HETATM    9  O1  UNL     1      36.075  53.687  14.264  1.00  0.00    -0.345 OA
BRANCH   9  10
HETATM   10  C9  UNL     1      35.924  52.322  14.182  1.00  0.00     0.211 C 
HETATM   11  C7  UNL     1      34.929  51.755  15.164  1.00  0.00     0.224 C 
HETATM   12  N4  UNL     1      33.820  51.239  14.436  1.00  0.00    -0.118 NA
HETATM   13  N5  UNL     1      33.880  51.723  13.141  1.00  0.00    -0.110 NA
HETATM   14  C8  UNL     1      35.262  52.028  12.853  1.00  0.00     0.323 C 
BRANCH  11  15
HETATM   15  N3  UNL     1      35.495  50.840  16.113  1.00  0.00    -0.381 N 
ATOM     16  H3  UNL     1      36.490  50.617  16.096  1.00  0.00     0.160 HD
BRANCH  15  17
HETATM   17  C6  UNL     1      34.638  50.260  17.067  1.00  0.00     0.057 C 
BRANCH  17  18
HETATM   18  C5  UNL     1      34.337  48.785  16.908  1.00  0.00     0.044 C 
BRANCH  18  19
HETATM   19  C4  UNL     1      34.332  48.074  18.227  1.00  0.00     0.005 C 
BRANCH  19  20
HETATM   20  C3  UNL     1      33.906  48.804  19.421  1.00  0.00     0.002 C 
BRANCH  20  21
HETATM   21  C2  UNL     1      34.810  49.114  20.530  1.00  0.00     0.018 C 
BRANCH  21  22
HETATM   22  C1  UNL     1      34.864  50.477  21.097  1.00  0.00     0.134 C 
BRANCH  22  23
HETATM   23  N2  UNL     1      36.008  51.234  20.610  1.00  0.00    -0.148 NA
BRANCH  23  24
HETATM   24  N1  UNL     1      35.655  52.358  19.882  1.00  0.00    -0.348 N 
ATOM     25  H12 UNL     1      36.187  52.675  19.072  1.00  0.00     0.172 HD
ATOM     26  H11 UNL     1      34.820  52.826  20.237  1.00  0.00     0.172 HD
ENDBRANCH  23  24
ENDBRANCH  22  23
ENDBRANCH  21  22
ENDBRANCH  20  21
ENDBRANCH  19  20
ENDBRANCH  18  19
ENDBRANCH  17  18
ENDBRANCH  15  17
ENDBRANCH  11  15
BRANCH  14  27
HETATM   27  N6  UNL     1      35.915  51.032  12.069  1.00  0.00    -0.057 N 
ATOM     28  H63 UNL     1      36.113  50.204  12.631  1.00  0.00     0.276 HD
ATOM     29  H62 UNL     1      35.269  50.626  11.391  1.00  0.00     0.276 HD
ATOM     30  H61 UNL     1      36.761  51.365  11.607  1.00  0.00     0.276 HD
ENDBRANCH  14  27
ENDBRANCH   9  10
ENDBRANCH   1   9
BRANCH   8  31
HETATM   31  N11 UNL     1      35.184  54.998  16.602  1.00  0.00    -0.068 N 
ATOM     32 3H11 UNL     1      34.660  54.261  16.130  1.00  0.00     0.275 HD
ATOM     33 2H11 UNL     1      35.391  54.515  17.477  1.00  0.00     0.275 HD
ATOM     34 1H11 UNL     1      34.601  55.819  16.763  1.00  0.00     0.275 HD
ENDBRANCH   8  31
BRANCH   5  35
HETATM   35  C12 UNL     1      39.570  56.268  13.565  1.00  0.00     0.157 C 
BRANCH  35  36
HETATM   36  N8  UNL     1      40.370  57.339  14.090  1.00  0.00    -0.365 N 
HETATM   37  C13 UNL     1      41.202  57.225  15.053  1.00  0.00     0.197 C 
HETATM   38  N9  UNL     1      41.923  58.381  15.460  1.00  0.00    -0.067 NA
HETATM   39  N10 UNL     1      41.462  56.014  15.752  1.00  0.00    -0.067 NA
ATOM     40  H8  UNL     1      40.267  58.259  13.663  1.00  0.00     0.161 HD
ENDBRANCH  35  36
ENDBRANCH   5  35
BRANCH   7  41
HETATM   41  O3  UNL     1      35.209  57.299  15.159  1.00  0.00    -0.391 OA
ATOM     42  H3  UNL     1      35.142  57.397  16.102  1.00  0.00     0.210 HD
ENDBRANCH   7  41
BRANCH   6  43
HETATM   43  O2  UNL     1      37.317  57.994  13.889  1.00  0.00    -0.391 OA
ATOM     44  H2  UNL     1      38.244  58.194  13.936  1.00  0.00     0.210 HD
ENDBRANCH   6  43
TORSDOF 17
ENDMDL
