MODEL 1
REMARK VINA RESULT: -8.380995658      0.000      0.000
REMARK  5 active torsions:
REMARK  status: ('A' for Active; 'I' for Inactive)
REMARK    1  A    between atoms: C2_2  and  C3_3 
REMARK    2  A    between atoms: C3_3  and  C4_4 
REMARK    3  A    between atoms: C4_4  and  C5_5 
REMARK    4  A    between atoms: C5_5  and  C6_6 
REMARK    5  A    between atoms: C14_21  and  C15_22 
ROOT
HETATM    1  C6  UNL     1      40.952  22.091  63.211  1.00  0.00     0.095 A 
HETATM    2  N1  UNL     1      39.895  22.909  63.000  1.00  0.00    -0.334 N 
ATOM      3  H1  UNL     1      39.373  22.825  62.127  1.00  0.00     0.168 HD
HETATM    4  C7  UNL     1      39.508  23.836  63.913  1.00  0.00     0.118 A 
HETATM    5  N2  UNL     1      38.442  24.619  63.632  1.00  0.00    -0.328 N 
ATOM      6  H2  UNL     1      37.934  24.519  62.753  1.00  0.00     0.169 HD
HETATM    7  C8  UNL     1      38.068  25.535  64.544  1.00  0.00     0.100 A 
HETATM    8  N3  UNL     1      37.062  26.293  64.310  1.00  0.00    -0.385 N 
ATOM      9  H31 UNL     1      36.779  26.987  65.002  1.00  0.00     0.157 HD
ATOM     10  H32 UNL     1      36.546  26.201  63.435  1.00  0.00     0.157 HD
HETATM   11  C9  UNL     1      38.766  25.658  65.727  1.00  0.00     0.055 A 
HETATM   12  C10 UNL     1      39.844  24.864  66.006  1.00  0.00    -0.044 A 
HETATM   13  C11 UNL     1      40.620  24.971  67.276  1.00  0.00     0.049 C 
HETATM   14  C12 UNL     1      40.223  23.925  65.066  1.00  0.00     0.015 A 
HETATM   15  C13 UNL     1      41.316  23.084  65.292  1.00  0.00     0.026 A 
HETATM   16  C14 UNL     1      41.707  22.143  64.365  1.00  0.00    -0.014 A 
ENDROOT
BRANCH   1  17
HETATM   17  C5  UNL     1      41.356  21.112  62.243  1.00  0.00    -0.048 C 
BRANCH  17  18
HETATM   18  C4  UNL     1      41.691  20.307  61.415  1.00  0.00    -0.100 C 
BRANCH  18  19
HETATM   19  C3  UNL     1      42.110  19.341  60.396  1.00  0.00     0.094 C 
BRANCH  19  20
HETATM   20  C2  UNL     1      43.606  19.167  60.525  1.00  0.00     0.007 C 
HETATM   21  C1  UNL     1      44.320  20.456  60.109  1.00  0.00     0.006 C 
ENDBRANCH  19  20
ENDBRANCH  18  19
ENDBRANCH  17  18
ENDBRANCH   1  17
BRANCH  16  22
HETATM   22  C15 UNL     1      42.835  21.306  64.650  1.00  0.00    -0.021 C 
HETATM   23  C16 UNL     1      42.324  19.910  64.965  1.00  0.00     0.019 C 
HETATM   24  C17 UNL     1      43.943  21.166  63.706  1.00  0.00     0.019 C 
HETATM   25  C18 UNL     1      43.444  21.788  65.981  1.00  0.00     0.019 C 
ENDBRANCH  16  22
TORSDOF 5
ENDMDL
MODEL 2
REMARK VINA RESULT: -8.257889251      0.675      1.209
REMARK  5 active torsions:
REMARK  status: ('A' for Active; 'I' for Inactive)
REMARK    1  A    between atoms: C2_2  and  C3_3 
REMARK    2  A    between atoms: C3_3  and  C4_4 
REMARK    3  A    between atoms: C4_4  and  C5_5 
REMARK    4  A    between atoms: C5_5  and  C6_6 
REMARK    5  A    between atoms: C14_21  and  C15_22 
ROOT
HETATM    1  C6  UNL     1      40.962  22.051  63.209  1.00  0.00     0.095 A 
HETATM    2  N1  UNL     1      39.901  22.868  63.020  1.00  0.00    -0.334 N 
ATOM      3  H1  UNL     1      39.354  22.776  62.164  1.00  0.00     0.168 HD
HETATM    4  C7  UNL     1      39.542  23.806  63.934  1.00  0.00     0.118 A 
HETATM    5  N2  UNL     1      38.469  24.588  63.675  1.00  0.00    -0.328 N 
ATOM      6  H2  UNL     1      37.937  24.479  62.812  1.00  0.00     0.169 HD
HETATM    7  C8  UNL     1      38.124  25.513  64.587  1.00  0.00     0.100 A 
HETATM    8  N3  UNL     1      37.112  26.270  64.375  1.00  0.00    -0.385 N 
ATOM      9  H31 UNL     1      36.850  26.972  65.067  1.00  0.00     0.157 HD
ATOM     10  H32 UNL     1      36.571  26.171  63.516  1.00  0.00     0.157 HD
HETATM   11  C9  UNL     1      38.855  25.648  65.749  1.00  0.00     0.055 A 
HETATM   12  C10 UNL     1      39.939  24.855  66.005  1.00  0.00    -0.044 A 
HETATM   13  C11 UNL     1      40.752  24.974  67.251  1.00  0.00     0.049 C 
HETATM   14  C12 UNL     1      40.290  23.906  65.065  1.00  0.00     0.015 A 
HETATM   15  C13 UNL     1      41.388  23.065  65.269  1.00  0.00     0.026 A 
HETATM   16  C14 UNL     1      41.751  22.113  64.340  1.00  0.00    -0.014 A 
ENDROOT
BRANCH   1  17
HETATM   17  C5  UNL     1      41.338  21.061  62.241  1.00  0.00    -0.048 C 
BRANCH  17  18
HETATM   18  C4  UNL     1      41.642  20.244  61.412  1.00  0.00    -0.100 C 
BRANCH  18  19
HETATM   19  C3  UNL     1      42.034  19.248  60.412  1.00  0.00     0.094 C 
BRANCH  19  20
HETATM   20  C2  UNL     1      41.003  18.142  60.446  1.00  0.00     0.007 C 
HETATM   21  C1  UNL     1      41.043  17.432  61.801  1.00  0.00     0.006 C 
ENDBRANCH  19  20
ENDBRANCH  18  19
ENDBRANCH  17  18
ENDBRANCH   1  17
BRANCH  16  22
HETATM   22  C15 UNL     1      42.885  21.277  64.602  1.00  0.00    -0.021 C 
HETATM   23  C16 UNL     1      42.380  19.892  64.970  1.00  0.00     0.019 C 
HETATM   24  C17 UNL     1      43.955  21.108  63.620  1.00  0.00     0.019 C 
HETATM   25  C18 UNL     1      43.548  21.788  65.896  1.00  0.00     0.019 C 
ENDBRANCH  16  22
TORSDOF 5
ENDMDL
MODEL 3
REMARK VINA RESULT: -8.218579447      3.458      6.432
REMARK  5 active torsions:
REMARK  status: ('A' for Active; 'I' for Inactive)
REMARK    1  A    between atoms: C2_2  and  C3_3 
REMARK    2  A    between atoms: C3_3  and  C4_4 
REMARK    3  A    between atoms: C4_4  and  C5_5 
REMARK    4  A    between atoms: C5_5  and  C6_6 
REMARK    5  A    between atoms: C14_21  and  C15_22 
ROOT
HETATM    1  C6  UNL     1      41.270  23.698  65.289  1.00  0.00     0.095 A 
HETATM    2  N1  UNL     1      42.033  22.612  65.029  1.00  0.00    -0.334 N 
ATOM      3  H1  UNL     1      41.718  21.943  64.326  1.00  0.00     0.168 HD
HETATM    4  C7  UNL     1      43.206  22.384  65.675  1.00  0.00     0.118 A 
HETATM    5  N2  UNL     1      43.915  21.275  65.364  1.00  0.00    -0.328 N 
ATOM      6  H2  UNL     1      43.580  20.620  64.657  1.00  0.00     0.169 HD
HETATM    7  C8  UNL     1      45.074  21.060  66.011  1.00  0.00     0.100 A 
HETATM    8  N3  UNL     1      45.772  20.020  65.739  1.00  0.00    -0.385 N 
ATOM      9  H31 UNL     1      46.651  19.857  66.230  1.00  0.00     0.157 HD
ATOM     10  H32 UNL     1      45.447  19.357  65.035  1.00  0.00     0.157 HD
HETATM   11  C9  UNL     1      45.512  21.956  66.964  1.00  0.00     0.055 A 
HETATM   12  C10 UNL     1      44.791  23.075  67.275  1.00  0.00    -0.044 A 
HETATM   13  C11 UNL     1      45.235  24.064  68.300  1.00  0.00     0.049 C 
HETATM   14  C12 UNL     1      43.601  23.291  66.608  1.00  0.00     0.015 A 
HETATM   15  C13 UNL     1      42.819  24.417  66.881  1.00  0.00     0.026 A 
HETATM   16  C14 UNL     1      41.629  24.647  66.224  1.00  0.00    -0.014 A 
ENDROOT
BRANCH   1  17
HETATM   17  C5  UNL     1      40.032  23.934  64.603  1.00  0.00    -0.048 C 
BRANCH  17  18
HETATM   18  C4  UNL     1      39.006  24.143  64.011  1.00  0.00    -0.100 C 
BRANCH  18  19
HETATM   19  C3  UNL     1      37.754  24.417  63.302  1.00  0.00     0.094 C 
BRANCH  19  20
HETATM   20  C2  UNL     1      37.230  25.743  63.804  1.00  0.00     0.007 C 
HETATM   21  C1  UNL     1      36.783  25.612  65.262  1.00  0.00     0.006 C 
ENDBRANCH  19  20
ENDBRANCH  18  19
ENDBRANCH  17  18
ENDBRANCH   1  17
BRANCH  16  22
HETATM   22  C15 UNL     1      40.868  25.818  66.545  1.00  0.00    -0.021 C 
HETATM   23  C16 UNL     1      41.658  26.638  67.550  1.00  0.00     0.019 C 
HETATM   24  C17 UNL     1      40.396  26.732  65.506  1.00  0.00     0.019 C 
HETATM   25  C18 UNL     1      39.625  25.361  67.332  1.00  0.00     0.019 C 
ENDBRANCH  16  22
TORSDOF 5
ENDMDL
MODEL 4
REMARK VINA RESULT: -7.854832769      1.502      1.905
REMARK  5 active torsions:
REMARK  status: ('A' for Active; 'I' for Inactive)
REMARK    1  A    between atoms: C2_2  and  C3_3 
REMARK    2  A    between atoms: C3_3  and  C4_4 
REMARK    3  A    between atoms: C4_4  and  C5_5 
REMARK    4  A    between atoms: C5_5  and  C6_6 
REMARK    5  A    between atoms: C14_21  and  C15_22 
ROOT
HETATM    1  C6  UNL     1      41.287  22.552  64.522  1.00  0.00     0.095 A 
HETATM    2  N1  UNL     1      40.342  23.513  64.633  1.00  0.00    -0.334 N 
ATOM      3  H1  UNL     1      39.500  23.446  64.061  1.00  0.00     0.168 HD
HETATM    4  C7  UNL     1      40.480  24.564  65.482  1.00  0.00     0.118 A 
HETATM    5  N2  UNL     1      39.493  25.487  65.538  1.00  0.00    -0.328 N 
ATOM      6  H2  UNL     1      38.660  25.400  64.957  1.00  0.00     0.169 HD
HETATM    7  C8  UNL     1      39.641  26.524  66.382  1.00  0.00     0.100 A 
HETATM    8  N3  UNL     1      38.725  27.416  66.461  1.00  0.00    -0.385 N 
ATOM      9  H31 UNL     1      38.838  28.203  67.102  1.00  0.00     0.157 HD
ATOM     10  H32 UNL     1      37.887  27.340  65.886  1.00  0.00     0.157 HD
HETATM   11  C9  UNL     1      40.775  26.627  67.160  1.00  0.00     0.055 A 
HETATM   12  C10 UNL     1      41.770  25.691  67.098  1.00  0.00    -0.044 A 
HETATM   13  C11 UNL     1      43.009  25.772  67.926  1.00  0.00     0.049 C 
HETATM   14  C12 UNL     1      41.613  24.628  66.230  1.00  0.00     0.015 A 
HETATM   15  C13 UNL     1      42.594  23.638  66.122  1.00  0.00     0.026 A 
HETATM   16  C14 UNL     1      42.453  22.572  65.261  1.00  0.00    -0.014 A 
ENDROOT
BRANCH   1  17
HETATM   17  C5  UNL     1      41.136  21.443  63.624  1.00  0.00    -0.048 C 
BRANCH  17  18
HETATM   18  C4  UNL     1      40.995  20.525  62.859  1.00  0.00    -0.100 C 
BRANCH  18  19
HETATM   19  C3  UNL     1      40.800  19.408  61.932  1.00  0.00     0.094 C 
BRANCH  19  20
HETATM   20  C2  UNL     1      42.116  19.172  61.225  1.00  0.00     0.007 C 
HETATM   21  C1  UNL     1      42.540  20.436  60.473  1.00  0.00     0.006 C 
ENDBRANCH  19  20
ENDBRANCH  18  19
ENDBRANCH  17  18
ENDBRANCH   1  17
BRANCH  16  22
HETATM   22  C15 UNL     1      43.490  21.586  65.191  1.00  0.00    -0.021 C 
HETATM   23  C16 UNL     1      43.002  20.332  65.897  1.00  0.00     0.019 C 
HETATM   24  C17 UNL     1      44.071  21.173  63.914  1.00  0.00     0.019 C 
HETATM   25  C18 UNL     1      44.656  22.078  66.070  1.00  0.00     0.019 C 
ENDBRANCH  16  22
TORSDOF 5
ENDMDL
MODEL 5
REMARK VINA RESULT: -7.810135414      1.394      2.022
REMARK  5 active torsions:
REMARK  status: ('A' for Active; 'I' for Inactive)
REMARK    1  A    between atoms: C2_2  and  C3_3 
REMARK    2  A    between atoms: C3_3  and  C4_4 
REMARK    3  A    between atoms: C4_4  and  C5_5 
REMARK    4  A    between atoms: C5_5  and  C6_6 
REMARK    5  A    between atoms: C14_21  and  C15_22 
ROOT
HETATM    1  C6  UNL     1      41.040  21.941  63.466  1.00  0.00     0.095 A 
HETATM    2  N1  UNL     1      40.313  23.045  63.178  1.00  0.00    -0.334 N 
ATOM      3  H1  UNL     1      39.776  23.072  62.311  1.00  0.00     0.168 HD
HETATM    4  C7  UNL     1      40.277  24.120  64.008  1.00  0.00     0.118 A 
HETATM    5  N2  UNL     1      39.529  25.190  63.654  1.00  0.00    -0.328 N 
ATOM      6  H2  UNL     1      39.000  25.194  62.782  1.00  0.00     0.169 HD
HETATM    7  C8  UNL     1      39.501  26.247  64.484  1.00  0.00     0.100 A 
HETATM    8  N3  UNL     1      38.802  27.277  64.180  1.00  0.00    -0.385 N 
ATOM      9  H31 UNL     1      38.781  28.080  64.810  1.00  0.00     0.157 HD
ATOM     10  H32 UNL     1      38.268  27.294  63.311  1.00  0.00     0.157 HD
HETATM   11  C9  UNL     1      40.223  26.226  65.659  1.00  0.00     0.055 A 
HETATM   12  C10 UNL     1      40.979  25.142  66.011  1.00  0.00    -0.044 A 
HETATM   13  C11 UNL     1      41.771  25.085  67.275  1.00  0.00     0.049 C 
HETATM   14  C12 UNL     1      41.003  24.058  65.156  1.00  0.00     0.015 A 
HETATM   15  C13 UNL     1      41.756  22.920  65.460  1.00  0.00     0.026 A 
HETATM   16  C14 UNL     1      41.792  21.830  64.617  1.00  0.00    -0.014 A 
ENDROOT
BRANCH   1  17
HETATM   17  C5  UNL     1      41.074  20.808  62.586  1.00  0.00    -0.048 C 
BRANCH  17  18
HETATM   18  C4  UNL     1      41.096  19.873  61.831  1.00  0.00    -0.100 C 
BRANCH  18  19
HETATM   19  C3  UNL     1      41.126  18.719  60.929  1.00  0.00     0.094 C 
BRANCH  19  20
HETATM   20  C2  UNL     1      39.960  17.828  61.294  1.00  0.00     0.007 C 
HETATM   21  C1  UNL     1      40.286  17.034  62.562  1.00  0.00     0.006 C 
ENDBRANCH  19  20
ENDBRANCH  18  19
ENDBRANCH  17  18
ENDBRANCH   1  17
BRANCH  16  22
HETATM   22  C15 UNL     1      42.580  20.689  64.980  1.00  0.00    -0.021 C 
HETATM   23  C16 UNL     1      43.187  20.948  66.349  1.00  0.00     0.019 C 
HETATM   24  C17 UNL     1      42.015  19.342  64.998  1.00  0.00     0.019 C 
HETATM   25  C18 UNL     1      43.797  20.649  64.035  1.00  0.00     0.019 C 
ENDBRANCH  16  22
TORSDOF 5
ENDMDL
