MODEL 1
REMARK VINA RESULT: -11.161503625      0.000      0.000
REMARK  0 active torsions:
REMARK  status: ('A' for Active; 'I' for Inactive)
ROOT
HETATM    1  O1  UNL     1      37.471  26.363  64.165  1.00  0.00    -0.265 OA
HETATM    2  C1  UNL     1      38.413  25.521  64.224  1.00  0.00     0.281 A 
HETATM    3  N1  UNL     1      38.403  24.434  63.451  1.00  0.00    -0.320 N 
ATOM      4  H1  UNL     1      37.631  24.274  62.803  1.00  0.00     0.169 HD
HETATM    5  C2  UNL     1      39.427  23.539  63.528  1.00  0.00     0.046 A 
HETATM    6  C3  UNL     1      39.389  22.420  62.713  1.00  0.00     0.030 A 
HETATM    7  C4  UNL     1      40.376  21.459  62.718  1.00  0.00     0.002 A 
HETATM    8  C5  UNL     1      41.434  21.638  63.578  1.00  0.00     0.001 A 
HETATM    9  C6  UNL     1      41.466  22.763  64.393  1.00  0.00     0.014 A 
HETATM   10  C7  UNL     1      40.486  23.729  64.396  1.00  0.00     0.005 A 
HETATM   11  C8  UNL     1      40.491  24.848  65.188  1.00  0.00     0.031 A 
HETATM   12  C9  UNL     1      39.435  25.766  65.105  1.00  0.00     0.157 A 
HETATM   13  O2  UNL     1      39.648  26.750  65.946  1.00  0.00    -0.286 OA
HETATM   14  C10 UNL     1      40.773  26.538  66.576  1.00  0.00     0.161 A 
HETATM   15  N2  UNL     1      41.598  27.046  67.506  1.00  0.00    -0.335 N 
ATOM     16  H2  UNL     1      41.445  27.917  68.014  1.00  0.00     0.168 HD
HETATM   17  C11 UNL     1      42.641  26.243  67.662  1.00  0.00     0.045 A 
HETATM   18  C12 UNL     1      43.719  26.382  68.507  1.00  0.00     0.030 A 
HETATM   19  C13 UNL     1      44.735  25.439  68.545  1.00  0.00     0.002 A 
HETATM   20  C14 UNL     1      44.645  24.348  67.713  1.00  0.00     0.001 A 
HETATM   21  C15 UNL     1      43.549  24.244  66.881  1.00  0.00     0.014 A 
HETATM   22  C16 UNL     1      42.519  25.139  66.799  1.00  0.00     0.006 A 
HETATM   23  C17 UNL     1      41.346  25.342  66.130  1.00  0.00     0.042 A 
ENDROOT
TORSDOF 0
ENDMDL
MODEL 2
REMARK VINA RESULT: -11.157260831      1.513      4.980
REMARK  0 active torsions:
REMARK  status: ('A' for Active; 'I' for Inactive)
ROOT
HETATM    1  O1  UNL     1      37.561  26.526  64.169  1.00  0.00    -0.265 OA
HETATM    2  C1  UNL     1      38.621  26.100  64.713  1.00  0.00     0.281 A 
HETATM    3  N1  UNL     1      39.195  26.780  65.707  1.00  0.00    -0.320 N 
ATOM      4  H1  UNL     1      38.780  27.651  66.037  1.00  0.00     0.169 HD
HETATM    5  C2  UNL     1      40.336  26.305  66.281  1.00  0.00     0.046 A 
HETATM    6  C3  UNL     1      40.909  27.032  67.311  1.00  0.00     0.030 A 
HETATM    7  C4  UNL     1      42.061  26.636  67.954  1.00  0.00     0.002 A 
HETATM    8  C5  UNL     1      42.651  25.465  67.538  1.00  0.00     0.001 A 
HETATM    9  C6  UNL     1      42.071  24.741  66.504  1.00  0.00     0.014 A 
HETATM   10  C7  UNL     1      40.921  25.127  65.854  1.00  0.00     0.005 A 
HETATM   11  C8  UNL     1      40.326  24.434  64.832  1.00  0.00     0.031 A 
HETATM   12  C9  UNL     1      39.153  24.926  64.245  1.00  0.00     0.157 A 
HETATM   13  O2  UNL     1      38.765  24.106  63.296  1.00  0.00    -0.286 OA
HETATM   14  C10 UNL     1      39.607  23.110  63.221  1.00  0.00     0.161 A 
HETATM   15  N2  UNL     1      39.871  21.971  62.561  1.00  0.00    -0.335 N 
ATOM     16  H2  UNL     1      39.307  21.588  61.803  1.00  0.00     0.168 HD
HETATM   17  C11 UNL     1      40.975  21.421  63.046  1.00  0.00     0.045 A 
HETATM   18  C12 UNL     1      41.599  20.255  62.662  1.00  0.00     0.030 A 
HETATM   19  C13 UNL     1      42.760  19.818  63.281  1.00  0.00     0.002 A 
HETATM   20  C14 UNL     1      43.284  20.581  64.299  1.00  0.00     0.001 A 
HETATM   21  C15 UNL     1      42.630  21.742  64.654  1.00  0.00     0.014 A 
HETATM   22  C16 UNL     1      41.485  22.223  64.083  1.00  0.00     0.006 A 
HETATM   23  C17 UNL     1      40.617  23.272  64.177  1.00  0.00     0.042 A 
ENDROOT
TORSDOF 0
ENDMDL
MODEL 3
REMARK VINA RESULT: -11.152753080      1.262      1.888
REMARK  0 active torsions:
REMARK  status: ('A' for Active; 'I' for Inactive)
ROOT
HETATM    1  O1  UNL     1      38.716  27.627  66.528  1.00  0.00    -0.265 OA
HETATM    2  C1  UNL     1      39.317  26.615  66.062  1.00  0.00     0.281 A 
HETATM    3  N1  UNL     1      38.766  25.886  65.090  1.00  0.00    -0.320 N 
ATOM      4  H1  UNL     1      37.853  26.141  64.714  1.00  0.00     0.169 HD
HETATM    5  C2  UNL     1      39.428  24.800  64.600  1.00  0.00     0.046 A 
HETATM    6  C3  UNL     1      38.832  24.063  63.591  1.00  0.00     0.030 A 
HETATM    7  C4  UNL     1      39.420  22.951  63.031  1.00  0.00     0.002 A 
HETATM    8  C5  UNL     1      40.653  22.573  63.512  1.00  0.00     0.001 A 
HETATM    9  C6  UNL     1      41.245  23.317  64.525  1.00  0.00     0.014 A 
HETATM   10  C7  UNL     1      40.667  24.430  65.091  1.00  0.00     0.005 A 
HETATM   11  C8  UNL     1      41.227  25.183  66.090  1.00  0.00     0.031 A 
HETATM   12  C9  UNL     1      40.542  26.299  66.590  1.00  0.00     0.157 A 
HETATM   13  O2  UNL     1      41.260  26.863  67.532  1.00  0.00    -0.286 OA
HETATM   14  C10 UNL     1      42.370  26.190  67.684  1.00  0.00     0.161 A 
HETATM   15  N2  UNL     1      43.513  26.145  68.387  1.00  0.00    -0.335 N 
ATOM     16  H2  UNL     1      43.780  26.804  69.117  1.00  0.00     0.168 HD
HETATM   17  C11 UNL     1      44.242  25.112  67.986  1.00  0.00     0.045 A 
HETATM   18  C12 UNL     1      45.475  24.698  68.436  1.00  0.00     0.030 A 
HETATM   19  C13 UNL     1      46.104  23.584  67.902  1.00  0.00     0.002 A 
HETATM   20  C14 UNL     1      45.465  22.890  66.901  1.00  0.00     0.001 A 
HETATM   21  C15 UNL     1      44.231  23.336  66.478  1.00  0.00     0.014 A 
HETATM   22  C16 UNL     1      43.562  24.424  66.964  1.00  0.00     0.006 A 
HETATM   23  C17 UNL     1      42.396  25.114  66.790  1.00  0.00     0.042 A 
ENDROOT
TORSDOF 0
ENDMDL
MODEL 4
REMARK VINA RESULT: -11.124240530      1.977      5.176
REMARK  0 active torsions:
REMARK  status: ('A' for Active; 'I' for Inactive)
ROOT
HETATM    1  O1  UNL     1      43.857  26.675  68.827  1.00  0.00    -0.265 OA
HETATM    2  C1  UNL     1      43.522  25.729  68.056  1.00  0.00     0.281 A 
HETATM    3  N1  UNL     1      44.273  24.631  67.962  1.00  0.00    -0.320 N 
ATOM      4  H1  UNL     1      45.126  24.546  68.514  1.00  0.00     0.169 HD
HETATM    5  C2  UNL     1      43.897  23.622  67.126  1.00  0.00     0.046 A 
HETATM    6  C3  UNL     1      44.696  22.495  67.050  1.00  0.00     0.030 A 
HETATM    7  C4  UNL     1      44.401  21.423  66.236  1.00  0.00     0.002 A 
HETATM    8  C5  UNL     1      43.257  21.499  65.474  1.00  0.00     0.001 A 
HETATM    9  C6  UNL     1      42.460  22.634  65.556  1.00  0.00     0.014 A 
HETATM   10  C7  UNL     1      42.745  23.710  66.365  1.00  0.00     0.005 A 
HETATM   11  C8  UNL     1      41.978  24.841  66.466  1.00  0.00     0.031 A 
HETATM   12  C9  UNL     1      42.370  25.875  67.327  1.00  0.00     0.157 A 
HETATM   13  O2  UNL     1      41.493  26.850  67.263  1.00  0.00    -0.286 OA
HETATM   14  C10 UNL     1      40.553  26.523  66.416  1.00  0.00     0.161 A 
HETATM   15  N2  UNL     1      39.411  26.955  65.857  1.00  0.00    -0.335 N 
ATOM     16  H2  UNL     1      38.965  27.851  66.050  1.00  0.00     0.168 HD
HETATM   17  C11 UNL     1      38.953  26.039  65.015  1.00  0.00     0.045 A 
HETATM   18  C12 UNL     1      37.819  26.072  64.236  1.00  0.00     0.030 A 
HETATM   19  C13 UNL     1      37.483  25.017  63.402  1.00  0.00     0.002 A 
HETATM   20  C14 UNL     1      38.314  23.921  63.367  1.00  0.00     0.001 A 
HETATM   21  C15 UNL     1      39.441  23.926  64.162  1.00  0.00     0.014 A 
HETATM   22  C16 UNL     1      39.824  24.934  65.002  1.00  0.00     0.006 A 
HETATM   23  C17 UNL     1      40.816  25.256  65.883  1.00  0.00     0.042 A 
ENDROOT
TORSDOF 0
ENDMDL
MODEL 5
REMARK VINA RESULT: -10.990999702      1.168      5.117
REMARK  0 active torsions:
REMARK  status: ('A' for Active; 'I' for Inactive)
ROOT
HETATM    1  O1  UNL     1      38.297  27.005  66.045  1.00  0.00    -0.265 OA
HETATM    2  C1  UNL     1      39.398  26.396  66.176  1.00  0.00     0.281 A 
HETATM    3  N1  UNL     1      40.307  26.817  67.057  1.00  0.00    -0.320 N 
ATOM      4  H1  UNL     1      40.118  27.636  67.634  1.00  0.00     0.169 HD
HETATM    5  C2  UNL     1      41.487  26.147  67.185  1.00  0.00     0.046 A 
HETATM    6  C3  UNL     1      42.410  26.607  68.108  1.00  0.00     0.030 A 
HETATM    7  C4  UNL     1      43.630  26.000  68.311  1.00  0.00     0.002 A 
HETATM    8  C5  UNL     1      43.922  24.891  67.550  1.00  0.00     0.001 A 
HETATM    9  C6  UNL     1      42.991  24.435  66.626  1.00  0.00     0.014 A 
HETATM   10  C7  UNL     1      41.770  25.034  66.415  1.00  0.00     0.005 A 
HETATM   11  C8  UNL     1      40.832  24.607  65.511  1.00  0.00     0.031 A 
HETATM   12  C9  UNL     1      39.620  25.299  65.384  1.00  0.00     0.157 A 
HETATM   13  O2  UNL     1      38.883  24.718  64.467  1.00  0.00    -0.286 OA
HETATM   14  C10 UNL     1      39.531  23.692  63.984  1.00  0.00     0.161 A 
HETATM   15  N2  UNL     1      39.450  22.689  63.095  1.00  0.00    -0.335 N 
ATOM     16  H2  UNL     1      38.655  22.511  62.482  1.00  0.00     0.168 HD
HETATM   17  C11 UNL     1      40.560  21.966  63.136  1.00  0.00     0.045 A 
HETATM   18  C12 UNL     1      40.895  20.853  62.398  1.00  0.00     0.030 A 
HETATM   19  C13 UNL     1      42.111  20.210  62.568  1.00  0.00     0.002 A 
HETATM   20  C14 UNL     1      42.990  20.711  63.500  1.00  0.00     0.001 A 
HETATM   21  C15 UNL     1      42.619  21.827  64.220  1.00  0.00     0.014 A 
HETATM   22  C16 UNL     1      41.437  22.503  64.097  1.00  0.00     0.006 A 
HETATM   23  C17 UNL     1      40.775  23.579  64.615  1.00  0.00     0.042 A 
ENDROOT
TORSDOF 0
ENDMDL
