MODEL 1
REMARK VINA RESULT: -6.446823450      0.000      0.000
REMARK  9 active torsions:
REMARK  status: ('A' for Active; 'I' for Inactive)
REMARK    1  A    between atoms: C2_2  and  N1_3 
REMARK    2  A    between atoms: N1_3  and  C3_4 
REMARK    3  A    between atoms: N1_3  and  C5_6 
REMARK    4  A    between atoms: C5_6  and  C6_7 
REMARK    5  A    between atoms: C6_7  and  N2_8 
REMARK    6  A    between atoms: N2_8  and  C7_10 
REMARK    7  A    between atoms: C7_10  and  N3_12 
REMARK    8  A    between atoms: N3_12  and  N4_14 
REMARK    9  A    between atoms: C8_16  and  C9_17 
ROOT
HETATM    1  N3  UNL     1      59.153  23.401  31.382  1.00  0.00    -0.277 N 
ATOM      2  H3  UNL     1      59.110  22.757  32.172  1.00  0.00     0.189 HD
ENDROOT
BRANCH   1   3
HETATM    3  C7  UNL     1      60.086  23.177  30.321  1.00  0.00     0.186 C 
HETATM    4  S1  UNL     1      61.359  22.202  30.596  1.00  0.00    -0.040 SA
BRANCH   3   5
HETATM    5  N2  UNL     1      59.946  23.815  29.061  1.00  0.00    -0.364 N 
ATOM      6  H2  UNL     1      60.060  24.827  28.995  1.00  0.00     0.162 HD
BRANCH   5   7
HETATM    7  C6  UNL     1      59.650  23.068  27.891  1.00  0.00     0.152 C 
BRANCH   7   8
HETATM    8  C5  UNL     1      58.255  22.668  27.733  1.00  0.00     0.292 C 
BRANCH   8   9
HETATM    9  N1  UNL     1      57.767  21.465  28.252  1.00  0.00     0.089 N 
BRANCH   9  10
HETATM   10  C2  UNL     1      56.619  21.901  29.136  1.00  0.00     0.268 C 
HETATM   11  C1  UNL     1      56.181  23.264  28.686  1.00  0.00     0.037 C 
ENDBRANCH   9  10
BRANCH   9  12
HETATM   12  C3  UNL     1      57.406  20.374  27.488  1.00  0.00     0.268 C 
HETATM   13  C4  UNL     1      56.356  19.497  28.110  1.00  0.00     0.037 C 
ENDBRANCH   9  12
ENDBRANCH   8   9
ENDBRANCH   7   8
ENDBRANCH   5   7
ENDBRANCH   3   5
ENDBRANCH   1   3
BRANCH   1  14
HETATM   14  N4  UNL     1      58.338  24.462  31.332  1.00  0.00    -0.309 N 
HETATM   15  C8  UNL     1      57.263  24.802  31.844  1.00  0.00     0.116 C 
ATOM     16  H4  UNL     1      58.698  25.182  30.706  1.00  0.00     0.186 HD
BRANCH  15  17
HETATM   17  C9  UNL     1      56.488  23.975  32.797  1.00  0.00    -0.016 C 
HETATM   18  C10 UNL     1      55.363  23.119  32.373  1.00  0.00     0.052 C 
HETATM   19  C11 UNL     1      56.857  24.027  34.064  1.00  0.00     0.054 C 
HETATM   20  C12 UNL     1      56.265  23.317  35.196  1.00  0.00     0.069 C 
HETATM   21  O1  UNL     1      57.952  24.853  34.420  1.00  0.00    -0.350 OA
HETATM   22  C13 UNL     1      57.434  22.694  35.969  1.00  0.00    -0.010 C 
HETATM   23  C14 UNL     1      56.784  21.816  37.029  1.00  0.00     0.010 C 
HETATM   24  C15 UNL     1      58.347  23.734  36.526  1.00  0.00     0.036 C 
HETATM   25  C16 UNL     1      58.273  25.045  35.781  1.00  0.00     0.124 C 
HETATM   26  C17 UNL     1      57.337  26.042  36.439  1.00  0.00     0.040 C 
ENDBRANCH  15  17
ENDBRANCH   1  14
TORSDOF 9
ENDMDL
MODEL 2
REMARK VINA RESULT: -6.410801354      0.353      1.370
REMARK  9 active torsions:
REMARK  status: ('A' for Active; 'I' for Inactive)
REMARK    1  A    between atoms: C2_2  and  N1_3 
REMARK    2  A    between atoms: N1_3  and  C3_4 
REMARK    3  A    between atoms: N1_3  and  C5_6 
REMARK    4  A    between atoms: C5_6  and  C6_7 
REMARK    5  A    between atoms: C6_7  and  N2_8 
REMARK    6  A    between atoms: N2_8  and  C7_10 
REMARK    7  A    between atoms: C7_10  and  N3_12 
REMARK    8  A    between atoms: N3_12  and  N4_14 
REMARK    9  A    between atoms: C8_16  and  C9_17 
ROOT
HETATM    1  N3  UNL     1      59.189  23.357  31.388  1.00  0.00    -0.277 N 
ATOM      2  H3  UNL     1      59.154  22.739  32.199  1.00  0.00     0.189 HD
ENDROOT
BRANCH   1   3
HETATM    3  C7  UNL     1      60.103  23.093  30.320  1.00  0.00     0.186 C 
HETATM    4  S1  UNL     1      61.482  22.296  30.654  1.00  0.00    -0.040 SA
BRANCH   3   5
HETATM    5  N2  UNL     1      59.851  23.542  28.997  1.00  0.00    -0.364 N 
ATOM      6  H2  UNL     1      59.703  24.537  28.825  1.00  0.00     0.162 HD
BRANCH   5   7
HETATM    7  C6  UNL     1      59.803  22.631  27.911  1.00  0.00     0.152 C 
BRANCH   7   8
HETATM    8  C5  UNL     1      58.970  21.449  28.114  1.00  0.00     0.292 C 
BRANCH   8   9
HETATM    9  N1  UNL     1      57.587  21.475  27.914  1.00  0.00     0.089 N 
BRANCH   9  10
HETATM   10  C2  UNL     1      57.279  20.093  27.381  1.00  0.00     0.268 C 
HETATM   11  C1  UNL     1      56.259  19.465  28.285  1.00  0.00     0.037 C 
ENDBRANCH   9  10
BRANCH   9  12
HETATM   12  C3  UNL     1      56.666  21.842  28.874  1.00  0.00     0.268 C 
HETATM   13  C4  UNL     1      56.160  23.251  28.746  1.00  0.00     0.037 C 
ENDBRANCH   9  12
ENDBRANCH   8   9
ENDBRANCH   7   8
ENDBRANCH   5   7
ENDBRANCH   3   5
ENDBRANCH   1   3
BRANCH   1  14
HETATM   14  N4  UNL     1      58.379  24.422  31.317  1.00  0.00    -0.309 N 
HETATM   15  C8  UNL     1      57.300  24.773  31.812  1.00  0.00     0.116 C 
ATOM     16  H4  UNL     1      58.750  25.133  30.687  1.00  0.00     0.186 HD
BRANCH  15  17
HETATM   17  C9  UNL     1      56.509  23.959  32.764  1.00  0.00    -0.016 C 
HETATM   18  C10 UNL     1      55.379  23.113  32.338  1.00  0.00     0.052 C 
HETATM   19  C11 UNL     1      56.871  24.015  34.033  1.00  0.00     0.054 C 
HETATM   20  C12 UNL     1      56.263  23.319  35.165  1.00  0.00     0.069 C 
HETATM   21  O1  UNL     1      57.973  24.832  34.391  1.00  0.00    -0.350 OA
HETATM   22  C13 UNL     1      57.421  22.688  35.950  1.00  0.00    -0.010 C 
HETATM   23  C14 UNL     1      56.754  21.824  37.011  1.00  0.00     0.010 C 
HETATM   24  C15 UNL     1      58.341  23.721  36.507  1.00  0.00     0.036 C 
HETATM   25  C16 UNL     1      58.287  25.029  35.754  1.00  0.00     0.124 C 
HETATM   26  C17 UNL     1      57.357  26.040  36.400  1.00  0.00     0.040 C 
ENDBRANCH  15  17
ENDBRANCH   1  14
TORSDOF 9
ENDMDL
MODEL 3
REMARK VINA RESULT: -6.226921552      0.914      1.534
REMARK  9 active torsions:
REMARK  status: ('A' for Active; 'I' for Inactive)
REMARK    1  A    between atoms: C2_2  and  N1_3 
REMARK    2  A    between atoms: N1_3  and  C3_4 
REMARK    3  A    between atoms: N1_3  and  C5_6 
REMARK    4  A    between atoms: C5_6  and  C6_7 
REMARK    5  A    between atoms: C6_7  and  N2_8 
REMARK    6  A    between atoms: N2_8  and  C7_10 
REMARK    7  A    between atoms: C7_10  and  N3_12 
REMARK    8  A    between atoms: N3_12  and  N4_14 
REMARK    9  A    between atoms: C8_16  and  C9_17 
ROOT
HETATM    1  N3  UNL     1      59.106  23.499  31.282  1.00  0.00    -0.277 N 
ATOM      2  H3  UNL     1      59.061  22.864  32.079  1.00  0.00     0.189 HD
ENDROOT
BRANCH   1   3
HETATM    3  C7  UNL     1      60.117  23.330  30.284  1.00  0.00     0.186 C 
HETATM    4  S1  UNL     1      61.027  21.981  30.318  1.00  0.00    -0.040 SA
BRANCH   3   5
HETATM    5  N2  UNL     1      60.365  24.323  29.301  1.00  0.00    -0.364 N 
ATOM      6  H2  UNL     1      60.764  25.219  29.582  1.00  0.00     0.162 HD
BRANCH   5   7
HETATM    7  C6  UNL     1      60.067  24.090  27.933  1.00  0.00     0.152 C 
BRANCH   7   8
HETATM    8  C5  UNL     1      58.682  23.732  27.640  1.00  0.00     0.292 C 
BRANCH   8   9
HETATM    9  N1  UNL     1      58.310  22.426  27.305  1.00  0.00     0.089 N 
BRANCH   9  10
HETATM   10  C2  UNL     1      59.568  21.842  26.701  1.00  0.00     0.268 C 
HETATM   11  C1  UNL     1      59.213  21.272  25.359  1.00  0.00     0.037 C 
ENDBRANCH   9  10
BRANCH   9  12
HETATM   12  C3  UNL     1      57.730  21.531  28.180  1.00  0.00     0.268 C 
HETATM   13  C4  UNL     1      56.552  22.074  28.939  1.00  0.00     0.037 C 
ENDBRANCH   9  12
ENDBRANCH   8   9
ENDBRANCH   7   8
ENDBRANCH   5   7
ENDBRANCH   3   5
ENDBRANCH   1   3
BRANCH   1  14
HETATM   14  N4  UNL     1      58.220  24.495  31.163  1.00  0.00    -0.309 N 
HETATM   15  C8  UNL     1      57.118  24.789  31.645  1.00  0.00     0.116 C 
ATOM     16  H4  UNL     1      58.536  25.201  30.497  1.00  0.00     0.186 HD
BRANCH  15  17
HETATM   17  C9  UNL     1      56.391  23.967  32.640  1.00  0.00    -0.016 C 
HETATM   18  C10 UNL     1      55.256  23.098  32.274  1.00  0.00     0.052 C 
HETATM   19  C11 UNL     1      56.813  24.038  33.889  1.00  0.00     0.054 C 
HETATM   20  C12 UNL     1      56.276  23.337  35.053  1.00  0.00     0.069 C 
HETATM   21  O1  UNL     1      57.916  24.877  34.188  1.00  0.00    -0.350 OA
HETATM   22  C13 UNL     1      57.482  22.733  35.783  1.00  0.00    -0.010 C 
HETATM   23  C14 UNL     1      56.885  21.863  36.880  1.00  0.00     0.010 C 
HETATM   24  C15 UNL     1      58.409  23.786  36.288  1.00  0.00     0.036 C 
HETATM   25  C16 UNL     1      58.293  25.088  35.532  1.00  0.00     0.124 C 
HETATM   26  C17 UNL     1      57.378  26.086  36.218  1.00  0.00     0.040 C 
ENDBRANCH  15  17
ENDBRANCH   1  14
TORSDOF 9
ENDMDL
MODEL 4
REMARK VINA RESULT: -6.178276498      2.507      7.525
REMARK  9 active torsions:
REMARK  status: ('A' for Active; 'I' for Inactive)
REMARK    1  A    between atoms: C2_2  and  N1_3 
REMARK    2  A    between atoms: N1_3  and  C3_4 
REMARK    3  A    between atoms: N1_3  and  C5_6 
REMARK    4  A    between atoms: C5_6  and  C6_7 
REMARK    5  A    between atoms: C6_7  and  N2_8 
REMARK    6  A    between atoms: N2_8  and  C7_10 
REMARK    7  A    between atoms: C7_10  and  N3_12 
REMARK    8  A    between atoms: N3_12  and  N4_14 
REMARK    9  A    between atoms: C8_16  and  C9_17 
ROOT
HETATM    1  N3  UNL     1      56.927  23.589  30.307  1.00  0.00    -0.277 N 
ATOM      2  H3  UNL     1      56.798  22.582  30.402  1.00  0.00     0.189 HD
ENDROOT
BRANCH   1   3
HETATM    3  C7  UNL     1      56.998  24.418  31.471  1.00  0.00     0.186 C 
HETATM    4  S1  UNL     1      58.116  25.599  31.519  1.00  0.00    -0.040 SA
BRANCH   3   5
HETATM    5  N2  UNL     1      56.148  24.206  32.588  1.00  0.00    -0.364 N 
ATOM      6  H2  UNL     1      55.478  24.928  32.854  1.00  0.00     0.162 HD
BRANCH   5   7
HETATM    7  C6  UNL     1      56.216  23.005  33.341  1.00  0.00     0.152 C 
BRANCH   7   8
HETATM    8  C5  UNL     1      56.924  23.095  34.614  1.00  0.00     0.292 C 
BRANCH   8   9
HETATM    9  N1  UNL     1      56.754  24.180  35.480  1.00  0.00     0.089 N 
BRANCH   9  10
HETATM   10  C2  UNL     1      56.167  23.551  36.725  1.00  0.00     0.268 C 
HETATM   11  C1  UNL     1      56.986  22.338  37.059  1.00  0.00     0.037 C 
ENDBRANCH   9  10
BRANCH   9  12
HETATM   12  C3  UNL     1      57.746  25.079  35.811  1.00  0.00     0.268 C 
HETATM   13  C4  UNL     1      57.658  26.397  35.095  1.00  0.00     0.037 C 
ENDBRANCH   9  12
ENDBRANCH   8   9
ENDBRANCH   7   8
ENDBRANCH   5   7
ENDBRANCH   3   5
ENDBRANCH   1   3
BRANCH   1  14
HETATM   14  N4  UNL     1      57.031  24.144  29.093  1.00  0.00    -0.309 N 
HETATM   15  C8  UNL     1      57.610  23.890  28.028  1.00  0.00     0.116 C 
ATOM     16  H4  UNL     1      56.490  25.006  29.028  1.00  0.00     0.186 HD
BRANCH  15  17
HETATM   17  C9  UNL     1      58.474  22.708  27.804  1.00  0.00    -0.016 C 
HETATM   18  C10 UNL     1      59.940  22.811  27.670  1.00  0.00     0.052 C 
HETATM   19  C11 UNL     1      57.870  21.536  27.737  1.00  0.00     0.054 C 
HETATM   20  C12 UNL     1      58.483  20.227  27.523  1.00  0.00     0.069 C 
HETATM   21  O1  UNL     1      56.461  21.488  27.886  1.00  0.00    -0.350 OA
HETATM   22  C13 UNL     1      57.888  19.297  28.588  1.00  0.00    -0.010 C 
HETATM   23  C14 UNL     1      58.672  17.999  28.462  1.00  0.00     0.010 C 
HETATM   24  C15 UNL     1      56.416  19.130  28.419  1.00  0.00     0.036 C 
HETATM   25  C16 UNL     1      55.774  20.273  27.670  1.00  0.00     0.124 C 
HETATM   26  C17 UNL     1      55.605  19.984  26.189  1.00  0.00     0.040 C 
ENDBRANCH  15  17
ENDBRANCH   1  14
TORSDOF 9
ENDMDL
MODEL 5
REMARK VINA RESULT: -6.131787630      2.811      4.431
REMARK  9 active torsions:
REMARK  status: ('A' for Active; 'I' for Inactive)
REMARK    1  A    between atoms: C2_2  and  N1_3 
REMARK    2  A    between atoms: N1_3  and  C3_4 
REMARK    3  A    between atoms: N1_3  and  C5_6 
REMARK    4  A    between atoms: C5_6  and  C6_7 
REMARK    5  A    between atoms: C6_7  and  N2_8 
REMARK    6  A    between atoms: N2_8  and  C7_10 
REMARK    7  A    between atoms: C7_10  and  N3_12 
REMARK    8  A    between atoms: N3_12  and  N4_14 
REMARK    9  A    between atoms: C8_16  and  C9_17 
ROOT
HETATM    1  N3  UNL     1      57.158  23.448  34.568  1.00  0.00    -0.277 N 
ATOM      2  H3  UNL     1      56.486  22.682  34.520  1.00  0.00     0.189 HD
ENDROOT
BRANCH   1   3
HETATM    3  C7  UNL     1      57.056  24.553  33.664  1.00  0.00     0.186 C 
HETATM    4  S1  UNL     1      57.784  25.953  34.061  1.00  0.00    -0.040 SA
BRANCH   3   5
HETATM    5  N2  UNL     1      56.306  24.463  32.462  1.00  0.00    -0.364 N 
ATOM      6  H2  UNL     1      55.307  24.666  32.478  1.00  0.00     0.162 HD
BRANCH   5   7
HETATM    7  C6  UNL     1      56.925  24.095  31.240  1.00  0.00     0.152 C 
BRANCH   7   8
HETATM    8  C5  UNL     1      56.283  23.006  30.509  1.00  0.00     0.292 C 
BRANCH   8   9
HETATM    9  N1  UNL     1      56.413  22.866  29.124  1.00  0.00     0.089 N 
BRANCH   9  10
HETATM   10  C2  UNL     1      57.096  24.147  28.700  1.00  0.00     0.268 C 
HETATM   11  C1  UNL     1      58.243  23.784  27.803  1.00  0.00     0.037 C 
ENDBRANCH   9  10
BRANCH   9  12
HETATM   12  C3  UNL     1      56.988  21.778  28.499  1.00  0.00     0.268 C 
HETATM   13  C4  UNL     1      56.031  20.665  28.178  1.00  0.00     0.037 C 
ENDBRANCH   9  12
ENDBRANCH   8   9
ENDBRANCH   7   8
ENDBRANCH   5   7
ENDBRANCH   3   5
ENDBRANCH   1   3
BRANCH   1  14
HETATM   14  N4  UNL     1      58.141  23.427  35.476  1.00  0.00    -0.309 N 
HETATM   15  C8  UNL     1      58.258  23.647  36.689  1.00  0.00     0.116 C 
ATOM     16  H4  UNL     1      59.031  23.156  35.059  1.00  0.00     0.186 HD
BRANCH  15  17
HETATM   17  C9  UNL     1      57.147  24.060  37.578  1.00  0.00    -0.016 C 
HETATM   18  C10 UNL     1      56.761  25.472  37.763  1.00  0.00     0.052 C 
HETATM   19  C11 UNL     1      56.498  23.094  38.203  1.00  0.00     0.054 C 
HETATM   20  C12 UNL     1      55.376  23.228  39.129  1.00  0.00     0.069 C 
HETATM   21  O1  UNL     1      56.898  21.752  37.982  1.00  0.00    -0.350 OA
HETATM   22  C13 UNL     1      54.320  22.213  38.671  1.00  0.00    -0.010 C 
HETATM   23  C14 UNL     1      53.098  22.498  39.532  1.00  0.00     0.010 C 
HETATM   24  C15 UNL     1      54.817  20.811  38.775  1.00  0.00     0.036 C 
HETATM   25  C16 UNL     1      56.324  20.714  38.748  1.00  0.00     0.124 C 
HETATM   26  C17 UNL     1      56.933  20.643  40.136  1.00  0.00     0.040 C 
ENDBRANCH  15  17
ENDBRANCH   1  14
TORSDOF 9
ENDMDL
