MODEL 1
REMARK VINA RESULT: -5.895076567      0.000      0.000
REMARK  9 active torsions:
REMARK  status: ('A' for Active; 'I' for Inactive)
REMARK    1  A    between atoms: N1_1  and  N2_4 
REMARK    2  A    between atoms: N2_4  and  C1_5 
REMARK    3  A    between atoms: C1_5  and  N3_6 
REMARK    4  A    between atoms: C1_5  and  C2_10 
REMARK    5  A    between atoms: C2_10  and  C3_11 
REMARK    6  A    between atoms: C3_11  and  N4_12 
REMARK    7  A    between atoms: C3_11  and  C9_27 
REMARK    8  A    between atoms: N4_12  and  C4_14 
REMARK       I    between atoms: C9_27  and  N9_29 
REMARK    9  A    between atoms: N9_29  and  C10_31 
ROOT
HETATM    1  C3  UNL     1      33.213  16.718  12.593  1.00  0.00     0.179 C 
ENDROOT
BRANCH   1   2
HETATM    2  C2  UNL     1      32.912  17.794  13.625  1.00  0.00     0.086 C 
BRANCH   2   3
HETATM    3  C1  UNL     1      34.075  18.223  14.444  1.00  0.00     0.297 C 
BRANCH   3   4
HETATM    4  N2  UNL     1      35.243  17.490  13.942  1.00  0.00    -0.115 NA
BRANCH   4   5
HETATM    5  N1  UNL     1      36.347  18.328  13.818  1.00  0.00    -0.346 N 
ATOM      6  H12 UNL     1      36.643  18.983  14.542  1.00  0.00     0.172 HD
ATOM      7  H11 UNL     1      36.809  18.198  12.918  1.00  0.00     0.172 HD
ENDBRANCH   4   5
ENDBRANCH   3   4
BRANCH   3   8
HETATM    8  N3  UNL     1      34.377  19.614  14.404  1.00  0.00    -0.060 N 
ATOM      9  H33 UNL     1      33.542  20.199  14.418  1.00  0.00     0.276 HD
ATOM     10  H32 UNL     1      34.796  19.952  15.270  1.00  0.00     0.276 HD
ATOM     11  H31 UNL     1      34.964  19.786  13.588  1.00  0.00     0.276 HD
ENDBRANCH   3   8
ENDBRANCH   2   3
ENDBRANCH   1   2
BRANCH   1  12
HETATM   12  N4  UNL     1      32.665  15.510  13.105  1.00  0.00    -0.361 N 
ATOM     13  H4  UNL     1      33.289  15.009  13.738  1.00  0.00     0.162 HD
BRANCH  12  14
HETATM   14  C4  UNL     1      31.561  14.943  12.928  1.00  0.00     0.134 A 
HETATM   15  N5  UNL     1      30.544  15.229  13.762  1.00  0.00    -0.337 N 
HETATM   16  C5  UNL     1      29.325  14.647  13.620  1.00  0.00     0.183 A 
ATOM     17  H5  UNL     1      30.692  15.899  14.517  1.00  0.00     0.168 HD
HETATM   18  N6  UNL     1      29.086  13.760  12.639  1.00  0.00    -0.337 N 
HETATM   19  C6  UNL     1      30.067  13.431  11.770  1.00  0.00     0.138 A 
ATOM     20  H6  UNL     1      28.163  13.335  12.550  1.00  0.00     0.168 HD
HETATM   21  N7  UNL     1      30.091  12.594  10.726  1.00  0.00    -0.337 N 
HETATM   22  C8  UNL     1      31.325  14.037  11.924  1.00  0.00     0.122 A 
HETATM   23  C7  UNL     1      31.323  12.636  10.197  1.00  0.00     0.182 A 
ATOM     24  H7  UNL     1      29.312  12.026  10.392  1.00  0.00     0.168 HD
HETATM   25  N8  UNL     1      32.055  13.512  10.930  1.00  0.00    -0.346 N 
ATOM     26  H8  UNL     1      33.033  13.741  10.748  1.00  0.00     0.167 HD
ENDBRANCH  12  14
ENDBRANCH   1  12
BRANCH   1  27
HETATM   27  C9  UNL     1      32.783  17.046  11.238  1.00  0.00     0.258 C 
HETATM   28  O1  UNL     1      33.233  16.415  10.253  1.00  0.00    -0.270 OA
HETATM   29  N9  UNL     1      31.847  18.080  10.952  1.00  0.00    -0.155 N 
ATOM     30  H9  UNL     1      31.992  18.998  11.371  1.00  0.00     0.187 HD
BRANCH  29  31
HETATM   31  C10 UNL     1      30.831  17.909  10.191  1.00  0.00     0.716 A 
HETATM   32  N10 UNL     1      29.978  16.878  10.266  1.00  0.00    -0.115 N 
HETATM   33  N11 UNL     1      29.059  17.034   9.329  1.00  0.00    -0.213 N 
ATOM     34  H10 UNL     1      30.029  16.106  10.930  1.00  0.00     0.207 HD
HETATM   35  N12 UNL     1      29.295  18.140   8.649  1.00  0.00    -0.213 N 
ATOM     36  H11 UNL     1      28.283  16.395   9.157  1.00  0.00     0.210 HD
HETATM   37  N13 UNL     1      30.389  18.678   9.182  1.00  0.00    -0.115 N 
ATOM     38  H12 UNL     1      28.749  18.508   7.870  1.00  0.00     0.210 HD
ATOM     39  H13 UNL     1      30.826  19.545   8.872  1.00  0.00     0.207 HD
ENDBRANCH  29  31
ENDBRANCH   1  27
TORSDOF 9
ENDMDL
MODEL 2
REMARK VINA RESULT: -5.670033273      2.925      5.261
REMARK  9 active torsions:
REMARK  status: ('A' for Active; 'I' for Inactive)
REMARK    1  A    between atoms: N1_1  and  N2_4 
REMARK    2  A    between atoms: N2_4  and  C1_5 
REMARK    3  A    between atoms: C1_5  and  N3_6 
REMARK    4  A    between atoms: C1_5  and  C2_10 
REMARK    5  A    between atoms: C2_10  and  C3_11 
REMARK    6  A    between atoms: C3_11  and  N4_12 
REMARK    7  A    between atoms: C3_11  and  C9_27 
REMARK    8  A    between atoms: N4_12  and  C4_14 
REMARK       I    between atoms: C9_27  and  N9_29 
REMARK    9  A    between atoms: N9_29  and  C10_31 
ROOT
HETATM    1  C3  UNL     1      30.200  18.814   9.686  1.00  0.00     0.179 C 
ENDROOT
BRANCH   1   2
HETATM    2  C2  UNL     1      28.985  18.083   9.135  1.00  0.00     0.086 C 
BRANCH   2   3
HETATM    3  C1  UNL     1      28.092  17.485  10.162  1.00  0.00     0.297 C 
BRANCH   3   4
HETATM    4  N2  UNL     1      28.412  16.055  10.224  1.00  0.00    -0.115 NA
BRANCH   4   5
HETATM    5  N1  UNL     1      28.451  15.493   8.951  1.00  0.00    -0.346 N 
ATOM      6  H12 UNL     1      28.582  16.036   8.098  1.00  0.00     0.172 HD
ATOM      7  H11 UNL     1      28.333  14.481   8.992  1.00  0.00     0.172 HD
ENDBRANCH   4   5
ENDBRANCH   3   4
BRANCH   3   8
HETATM    8  N3  UNL     1      28.218  18.023  11.474  1.00  0.00    -0.060 N 
ATOM      9  H33 UNL     1      28.284  17.301  12.191  1.00  0.00     0.276 HD
ATOM     10  H32 UNL     1      29.125  18.460  11.636  1.00  0.00     0.276 HD
ATOM     11  H31 UNL     1      27.439  18.662  11.630  1.00  0.00     0.276 HD
ENDBRANCH   3   8
ENDBRANCH   2   3
ENDBRANCH   1   2
BRANCH   1  12
HETATM   12  N4  UNL     1      31.212  17.830   9.860  1.00  0.00    -0.361 N 
ATOM     13  H4  UNL     1      31.628  17.507   8.986  1.00  0.00     0.162 HD
BRANCH  12  14
HETATM   14  C4  UNL     1      31.691  17.285  10.882  1.00  0.00     0.134 A 
HETATM   15  N5  UNL     1      32.104  18.064  11.899  1.00  0.00    -0.337 N 
HETATM   16  C5  UNL     1      32.632  17.531  13.031  1.00  0.00     0.183 A 
ATOM     17  H5  UNL     1      32.020  19.078  11.817  1.00  0.00     0.168 HD
HETATM   18  N6  UNL     1      32.762  16.202  13.182  1.00  0.00    -0.337 N 
HETATM   19  C6  UNL     1      32.364  15.368  12.196  1.00  0.00     0.138 A 
ATOM     20  H6  UNL     1      33.160  15.823  14.041  1.00  0.00     0.168 HD
HETATM   21  N7  UNL     1      32.383  14.032  12.095  1.00  0.00    -0.337 N 
HETATM   22  C8  UNL     1      31.821  15.927  11.027  1.00  0.00     0.122 A 
HETATM   23  C7  UNL     1      31.870  13.707  10.899  1.00  0.00     0.182 A 
ATOM     24  H7  UNL     1      32.726  13.380  12.800  1.00  0.00     0.168 HD
HETATM   25  N8  UNL     1      31.534  14.860  10.268  1.00  0.00    -0.346 N 
ATOM     26  H8  UNL     1      31.118  14.909   9.337  1.00  0.00     0.167 HD
ENDBRANCH  12  14
ENDBRANCH   1  12
BRANCH   1  27
HETATM   27  C9  UNL     1      30.614  19.970   8.899  1.00  0.00     0.258 C 
HETATM   28  O1  UNL     1      29.998  20.289   7.855  1.00  0.00    -0.270 OA
HETATM   29  N9  UNL     1      31.720  20.794   9.254  1.00  0.00    -0.155 N 
ATOM     30  H9  UNL     1      32.607  20.345   9.482  1.00  0.00     0.187 HD
BRANCH  29  31
HETATM   31  C10 UNL     1      31.651  22.071   9.302  1.00  0.00     0.716 A 
HETATM   32  N10 UNL     1      32.380  22.853  10.109  1.00  0.00    -0.115 N 
HETATM   33  N11 UNL     1      32.042  24.110   9.882  1.00  0.00    -0.213 N 
ATOM     34  H10 UNL     1      33.076  22.534  10.783  1.00  0.00     0.207 HD
HETATM   35  N12 UNL     1      31.111  24.163   8.948  1.00  0.00    -0.213 N 
ATOM     36  H11 UNL     1      32.441  24.920  10.358  1.00  0.00     0.210 HD
HETATM   37  N13 UNL     1      30.871  22.904   8.591  1.00  0.00    -0.115 N 
ATOM     38  H12 UNL     1      30.666  25.001   8.575  1.00  0.00     0.210 HD
ATOM     39  H13 UNL     1      30.196  22.614   7.884  1.00  0.00     0.207 HD
ENDBRANCH  29  31
ENDBRANCH   1  27
TORSDOF 9
ENDMDL
MODEL 3
REMARK VINA RESULT: -5.616043112      1.936      2.436
REMARK  9 active torsions:
REMARK  status: ('A' for Active; 'I' for Inactive)
REMARK    1  A    between atoms: N1_1  and  N2_4 
REMARK    2  A    between atoms: N2_4  and  C1_5 
REMARK    3  A    between atoms: C1_5  and  N3_6 
REMARK    4  A    between atoms: C1_5  and  C2_10 
REMARK    5  A    between atoms: C2_10  and  C3_11 
REMARK    6  A    between atoms: C3_11  and  N4_12 
REMARK    7  A    between atoms: C3_11  and  C9_27 
REMARK    8  A    between atoms: N4_12  and  C4_14 
REMARK       I    between atoms: C9_27  and  N9_29 
REMARK    9  A    between atoms: N9_29  and  C10_31 
ROOT
HETATM    1  C3  UNL     1      33.272  16.953  13.603  1.00  0.00     0.179 C 
ENDROOT
BRANCH   1   2
HETATM    2  C2  UNL     1      33.436  18.426  13.949  1.00  0.00     0.086 C 
BRANCH   2   3
HETATM    3  C1  UNL     1      34.597  18.740  14.823  1.00  0.00     0.297 C 
BRANCH   3   4
HETATM    4  N2  UNL     1      35.641  17.758  14.514  1.00  0.00    -0.115 NA
BRANCH   4   5
HETATM    5  N1  UNL     1      36.664  18.331  13.764  1.00  0.00    -0.346 N 
ATOM      6  H12 UNL     1      36.704  19.323  13.528  1.00  0.00     0.172 HD
ATOM      7  H11 UNL     1      37.354  17.633  13.488  1.00  0.00     0.172 HD
ENDBRANCH   4   5
ENDBRANCH   3   4
BRANCH   3   8
HETATM    8  N3  UNL     1      35.153  20.041  14.662  1.00  0.00    -0.060 N 
ATOM      9  H33 UNL     1      34.696  20.741  15.246  1.00  0.00     0.276 HD
ATOM     10  H32 UNL     1      36.089  20.122  15.059  1.00  0.00     0.276 HD
ATOM     11  H31 UNL     1      35.124  20.276  13.670  1.00  0.00     0.276 HD
ENDBRANCH   3   8
ENDBRANCH   2   3
ENDBRANCH   1   2
BRANCH   1  12
HETATM   12  N4  UNL     1      32.367  16.418  14.561  1.00  0.00    -0.361 N 
ATOM     13  H4  UNL     1      31.640  17.071  14.852  1.00  0.00     0.162 HD
BRANCH  12  14
HETATM   14  C4  UNL     1      32.293  15.296  15.116  1.00  0.00     0.134 A 
HETATM   15  N5  UNL     1      33.013  15.077  16.232  1.00  0.00    -0.337 N 
HETATM   16  C5  UNL     1      32.973  13.881  16.877  1.00  0.00     0.183 A 
ATOM     17  H5  UNL     1      33.601  15.824  16.601  1.00  0.00     0.168 HD
HETATM   18  N6  UNL     1      32.212  12.870  16.427  1.00  0.00    -0.337 N 
HETATM   19  C6  UNL     1      31.466  13.031  15.310  1.00  0.00     0.138 A 
ATOM     20  H6  UNL     1      32.196  11.981  16.927  1.00  0.00     0.168 HD
HETATM   21  N7  UNL     1      30.639  12.200  14.663  1.00  0.00    -0.337 N 
HETATM   22  C8  UNL     1      31.513  14.268  14.648  1.00  0.00     0.122 A 
HETATM   23  C7  UNL     1      30.148  12.858  13.603  1.00  0.00     0.182 A 
ATOM     24  H7  UNL     1      30.421  11.239  14.929  1.00  0.00     0.168 HD
HETATM   25  N8  UNL     1      30.684  14.105  13.608  1.00  0.00    -0.346 N 
ATOM     26  H8  UNL     1      30.482  14.823  12.912  1.00  0.00     0.167 HD
ENDBRANCH  12  14
ENDBRANCH   1  12
BRANCH   1  27
HETATM   27  C9  UNL     1      32.899  16.699  12.216  1.00  0.00     0.258 C 
HETATM   28  O1  UNL     1      32.913  15.534  11.753  1.00  0.00    -0.270 OA
HETATM   29  N9  UNL     1      32.505  17.730  11.318  1.00  0.00    -0.155 N 
ATOM     30  H9  UNL     1      33.089  18.563  11.246  1.00  0.00     0.187 HD
BRANCH  29  31
HETATM   31  C10 UNL     1      31.448  17.660  10.598  1.00  0.00     0.716 A 
HETATM   32  N10 UNL     1      30.538  16.679  10.659  1.00  0.00    -0.115 N 
HETATM   33  N11 UNL     1      29.591  16.940   9.775  1.00  0.00    -0.213 N 
ATOM     34  H10 UNL     1      30.570  15.871  11.280  1.00  0.00     0.207 HD
HETATM   35  N12 UNL     1      29.864  18.064   9.142  1.00  0.00    -0.213 N 
ATOM     36  H11 UNL     1      28.770  16.358   9.607  1.00  0.00     0.210 HD
HETATM   37  N13 UNL     1      31.011  18.508   9.651  1.00  0.00    -0.115 N 
ATOM     38  H12 UNL     1      29.308  18.505   8.409  1.00  0.00     0.210 HD
ATOM     39  H13 UNL     1      31.486  19.363   9.366  1.00  0.00     0.207 HD
ENDBRANCH  29  31
ENDBRANCH   1  27
TORSDOF 9
ENDMDL
MODEL 4
REMARK VINA RESULT: -5.592857639      0.450      1.811
REMARK  9 active torsions:
REMARK  status: ('A' for Active; 'I' for Inactive)
REMARK    1  A    between atoms: N1_1  and  N2_4 
REMARK    2  A    between atoms: N2_4  and  C1_5 
REMARK    3  A    between atoms: C1_5  and  N3_6 
REMARK    4  A    between atoms: C1_5  and  C2_10 
REMARK    5  A    between atoms: C2_10  and  C3_11 
REMARK    6  A    between atoms: C3_11  and  N4_12 
REMARK    7  A    between atoms: C3_11  and  C9_27 
REMARK    8  A    between atoms: N4_12  and  C4_14 
REMARK       I    between atoms: C9_27  and  N9_29 
REMARK    9  A    between atoms: N9_29  and  C10_31 
ROOT
HETATM    1  C3  UNL     1      33.210  16.634  12.559  1.00  0.00     0.179 C 
ENDROOT
BRANCH   1   2
HETATM    2  C2  UNL     1      32.845  17.589  13.686  1.00  0.00     0.086 C 
BRANCH   2   3
HETATM    3  C1  UNL     1      33.999  18.117  14.459  1.00  0.00     0.297 C 
BRANCH   3   4
HETATM    4  N2  UNL     1      35.194  17.416  13.976  1.00  0.00    -0.115 NA
BRANCH   4   5
HETATM    5  N1  UNL     1      36.262  18.294  13.816  1.00  0.00    -0.346 N 
ATOM      6  H12 UNL     1      36.812  18.661  14.592  1.00  0.00     0.172 HD
ATOM      7  H11 UNL     1      36.413  18.514  12.832  1.00  0.00     0.172 HD
ENDBRANCH   4   5
ENDBRANCH   3   4
BRANCH   3   8
HETATM    8  N3  UNL     1      34.231  19.517  14.339  1.00  0.00    -0.060 N 
ATOM      9  H33 UNL     1      34.566  19.937  15.206  1.00  0.00     0.276 HD
ATOM     10  H32 UNL     1      35.042  19.734  13.760  1.00  0.00     0.276 HD
ATOM     11  H31 UNL     1      33.374  19.951  13.997  1.00  0.00     0.276 HD
ENDBRANCH   3   8
ENDBRANCH   2   3
ENDBRANCH   1   2
BRANCH   1  12
HETATM   12  N4  UNL     1      32.698  15.361  12.935  1.00  0.00    -0.361 N 
ATOM     13  H4  UNL     1      33.029  15.034  13.843  1.00  0.00     0.162 HD
BRANCH  12  14
HETATM   14  C4  UNL     1      31.918  14.563  12.363  1.00  0.00     0.134 A 
HETATM   15  N5  UNL     1      32.383  13.825  11.338  1.00  0.00    -0.337 N 
HETATM   16  C5  UNL     1      31.585  12.945  10.679  1.00  0.00     0.183 A 
ATOM     17  H5  UNL     1      33.356  13.929  11.049  1.00  0.00     0.168 HD
HETATM   18  N6  UNL     1      30.298  12.775  11.026  1.00  0.00    -0.337 N 
HETATM   19  C6  UNL     1      29.773  13.489  12.047  1.00  0.00     0.138 A 
ATOM     20  H6  UNL     1      29.716  12.109  10.518  1.00  0.00     0.168 HD
HETATM   21  N7  UNL     1      28.546  13.510  12.583  1.00  0.00    -0.337 N 
HETATM   22  C8  UNL     1      30.604  14.398  12.723  1.00  0.00     0.122 A 
HETATM   23  C7  UNL     1      28.554  14.403  13.584  1.00  0.00     0.182 A 
ATOM     24  H7  UNL     1      27.749  12.948  12.284  1.00  0.00     0.168 HD
HETATM   25  N8  UNL     1      29.802  14.929  13.656  1.00  0.00    -0.346 N 
ATOM     26  H8  UNL     1      30.093  15.636  14.332  1.00  0.00     0.167 HD
ENDBRANCH  12  14
ENDBRANCH   1  12
BRANCH   1  27
HETATM   27  C9  UNL     1      32.795  17.081  11.234  1.00  0.00     0.258 C 
HETATM   28  O1  UNL     1      33.310  16.589  10.202  1.00  0.00    -0.270 OA
HETATM   29  N9  UNL     1      31.804  18.082  11.029  1.00  0.00    -0.155 N 
ATOM     30  H9  UNL     1      31.879  18.956  11.549  1.00  0.00     0.187 HD
BRANCH  29  31
HETATM   31  C10 UNL     1      30.821  17.934  10.222  1.00  0.00     0.716 A 
HETATM   32  N10 UNL     1      29.963  16.904  10.232  1.00  0.00    -0.115 N 
HETATM   33  N11 UNL     1      29.086  17.088   9.262  1.00  0.00    -0.213 N 
ATOM     34  H10 UNL     1      29.984  16.115  10.878  1.00  0.00     0.207 HD
HETATM   35  N12 UNL     1      29.353  18.210   8.622  1.00  0.00    -0.213 N 
ATOM     36  H11 UNL     1      28.316  16.456   9.041  1.00  0.00     0.210 HD
HETATM   37  N13 UNL     1      30.424  18.731   9.216  1.00  0.00    -0.115 N 
ATOM     38  H12 UNL     1      28.841  18.600   7.831  1.00  0.00     0.210 HD
ATOM     39  H13 UNL     1      30.875  19.605   8.947  1.00  0.00     0.207 HD
ENDBRANCH  29  31
ENDBRANCH   1  27
TORSDOF 9
ENDMDL
MODEL 5
REMARK VINA RESULT: -5.543167807      3.148      4.639
REMARK  9 active torsions:
REMARK  status: ('A' for Active; 'I' for Inactive)
REMARK    1  A    between atoms: N1_1  and  N2_4 
REMARK    2  A    between atoms: N2_4  and  C1_5 
REMARK    3  A    between atoms: C1_5  and  N3_6 
REMARK    4  A    between atoms: C1_5  and  C2_10 
REMARK    5  A    between atoms: C2_10  and  C3_11 
REMARK    6  A    between atoms: C3_11  and  N4_12 
REMARK    7  A    between atoms: C3_11  and  C9_27 
REMARK    8  A    between atoms: N4_12  and  C4_14 
REMARK       I    between atoms: C9_27  and  N9_29 
REMARK    9  A    between atoms: N9_29  and  C10_31 
ROOT
HETATM    1  C3  UNL     1      30.641  19.303  10.140  1.00  0.00     0.179 C 
ENDROOT
BRANCH   1   2
HETATM    2  C2  UNL     1      29.360  19.391  10.957  1.00  0.00     0.086 C 
BRANCH   2   3
HETATM    3  C1  UNL     1      29.396  20.363  12.080  1.00  0.00     0.297 C 
BRANCH   3   4
HETATM    4  N2  UNL     1      30.636  20.109  12.823  1.00  0.00    -0.115 NA
BRANCH   4   5
HETATM    5  N1  UNL     1      31.350  21.286  13.026  1.00  0.00    -0.346 N 
ATOM      6  H12 UNL     1      32.022  21.661  12.356  1.00  0.00     0.172 HD
ATOM      7  H11 UNL     1      31.113  21.712  13.921  1.00  0.00     0.172 HD
ENDBRANCH   4   5
ENDBRANCH   3   4
BRANCH   3   8
HETATM    8  N3  UNL     1      29.380  21.736  11.706  1.00  0.00    -0.060 N 
ATOM      9  H33 UNL     1      28.747  22.294  12.279  1.00  0.00     0.276 HD
ATOM     10  H32 UNL     1      30.245  22.221  11.947  1.00  0.00     0.276 HD
ATOM     11  H31 UNL     1      29.162  21.790  10.711  1.00  0.00     0.276 HD
ENDBRANCH   3   8
ENDBRANCH   2   3
ENDBRANCH   1   2
BRANCH   1  12
HETATM   12  N4  UNL     1      31.026  17.934  10.149  1.00  0.00    -0.361 N 
ATOM     13  H4  UNL     1      30.717  17.413   9.329  1.00  0.00     0.162 HD
BRANCH  12  14
HETATM   14  C4  UNL     1      31.673  17.246  10.974  1.00  0.00     0.134 A 
HETATM   15  N5  UNL     1      32.433  17.876  11.889  1.00  0.00    -0.337 N 
HETATM   16  C5  UNL     1      33.157  17.184  12.807  1.00  0.00     0.183 A 
ATOM     17  H5  UNL     1      32.466  18.895  11.893  1.00  0.00     0.168 HD
HETATM   18  N6  UNL     1      33.142  15.840  12.838  1.00  0.00    -0.337 N 
HETATM   19  C6  UNL     1      32.399  15.151  11.944  1.00  0.00     0.138 A 
ATOM     20  H6  UNL     1      33.693  15.340  13.536  1.00  0.00     0.168 HD
HETATM   21  N7  UNL     1      32.213  13.837  11.762  1.00  0.00    -0.337 N 
HETATM   22  C8  UNL     1      31.654  15.874  10.997  1.00  0.00     0.122 A 
HETATM   23  C7  UNL     1      31.373  13.684  10.728  1.00  0.00     0.182 A 
ATOM     24  H7  UNL     1      32.635  13.088  12.311  1.00  0.00     0.168 HD
HETATM   25  N8  UNL     1      31.044  14.921  10.278  1.00  0.00    -0.346 N 
ATOM     26  H8  UNL     1      30.414  15.103   9.496  1.00  0.00     0.167 HD
ENDBRANCH  12  14
ENDBRANCH   1  12
BRANCH   1  27
HETATM   27  C9  UNL     1      30.547  19.892   8.809  1.00  0.00     0.258 C 
HETATM   28  O1  UNL     1      29.731  19.447   7.968  1.00  0.00    -0.270 OA
HETATM   29  N9  UNL     1      31.356  20.985   8.386  1.00  0.00    -0.155 N 
ATOM     30  H9  UNL     1      32.363  20.933   8.540  1.00  0.00     0.187 HD
BRANCH  29  31
HETATM   31  C10 UNL     1      30.877  22.030   7.822  1.00  0.00     0.716 A 
HETATM   32  N10 UNL     1      30.771  23.236   8.397  1.00  0.00    -0.115 N 
HETATM   33  N11 UNL     1      30.234  24.065   7.520  1.00  0.00    -0.213 N 
ATOM     34  H10 UNL     1      31.056  23.473   9.347  1.00  0.00     0.207 HD
HETATM   35  N12 UNL     1      29.989  23.427   6.391  1.00  0.00    -0.213 N 
ATOM     36  H11 UNL     1      30.039  25.052   7.689  1.00  0.00     0.210 HD
HETATM   37  N13 UNL     1      30.385  22.172   6.580  1.00  0.00    -0.115 N 
ATOM     38  H12 UNL     1      29.576  23.819   5.544  1.00  0.00     0.210 HD
ATOM     39  H13 UNL     1      30.326  21.428   5.885  1.00  0.00     0.207 HD
ENDBRANCH  29  31
ENDBRANCH   1  27
TORSDOF 9
ENDMDL
