MODEL 1
REMARK VINA RESULT: -6.360761750      0.000      0.000
REMARK  14 active torsions:
REMARK  status: ('A' for Active; 'I' for Inactive)
REMARK    1  A    between atoms: O1_2  and  C2_3 
REMARK    2  A    between atoms: C4_5  and  C5_6 
REMARK    3  A    between atoms: C5_6  and  O2_7 
REMARK    4  A    between atoms: C5_6  and  N1_9 
REMARK    5  A    between atoms: N1_9  and  C6_12 
REMARK    6  A    between atoms: C6_12  and  C7_13 
REMARK    7  A    between atoms: C6_12  and  C9_19 
REMARK    8  A    between atoms: C7_13  and  C8_14 
REMARK    9  A    between atoms: C8_14  and  O3_15 
REMARK   10  A    between atoms: C8_14  and  O4_17 
REMARK   11  A    between atoms: C11_21  and  O5_22 
REMARK   12  A    between atoms: C13_24  and  O6_25 
REMARK   13  A    between atoms: C17_31  and  O9_32 
REMARK   14  A    between atoms: C19_34  and  O10_35 
ROOT
HETATM    1  N1  UNL     1      20.629  37.298  10.277  1.00  0.00    -0.034 N 
ATOM      2  H11 UNL     1      20.588  38.209   9.821  1.00  0.00     0.281 HD
ATOM      3  H12 UNL     1      21.451  36.925   9.802  1.00  0.00     0.281 HD
ENDROOT
BRANCH   1   4
HETATM    4  C5  UNL     1      19.450  36.509  10.003  1.00  0.00     0.354 C 
BRANCH   4   5
HETATM    5  C4  UNL     1      19.362  36.000   8.636  1.00  0.00     0.003 A 
HETATM    6  C3  UNL     1      19.846  34.708   8.416  1.00  0.00     0.051 A 
HETATM    7  C2  UNL     1      19.827  34.109   7.181  1.00  0.00     0.104 A 
HETATM    8  C19 UNL     1      19.299  34.836   6.125  1.00  0.00     0.133 A 
HETATM    9  C17 UNL     1      18.802  36.128   6.291  1.00  0.00     0.104 A 
HETATM   10  C16 UNL     1      18.848  36.677   7.552  1.00  0.00     0.051 A 
BRANCH   7  11
HETATM   11  O1  UNL     1      20.313  32.817   6.971  1.00  0.00    -0.353 OA
HETATM   12  C1  UNL     1      20.502  31.994   8.110  1.00  0.00     0.210 C 
ENDBRANCH   7  11
BRANCH   8  13
HETATM   13  O10 UNL     1      19.256  34.282   4.873  1.00  0.00    -0.356 OA
ATOM     14  H10 UNL     1      18.866  34.768   4.156  1.00  0.00     0.218 HD
ENDBRANCH   8  13
BRANCH   9  15
HETATM   15  O9  UNL     1      18.287  36.804   5.197  1.00  0.00    -0.353 OA
HETATM   16  C18 UNL     1      16.931  36.892   4.873  1.00  0.00     0.210 C 
ENDBRANCH   9  15
ENDBRANCH   4   5
BRANCH   4  17
HETATM   17  O2  UNL     1      18.280  37.250  10.234  1.00  0.00    -0.366 OA
ATOM     18  H2  UNL     1      18.542  38.037  10.698  1.00  0.00     0.212 HD
ENDBRANCH   4  17
ENDBRANCH   1   4
BRANCH   1  19
HETATM   19  C6  UNL     1      20.844  37.421  11.693  1.00  0.00     0.250 C 
BRANCH  19  20
HETATM   20  C7  UNL     1      20.361  36.283  12.521  1.00  0.00     0.100 C 
BRANCH  20  21
HETATM   21  C8  UNL     1      19.507  36.617  13.688  1.00  0.00     0.256 C 
BRANCH  21  22
HETATM   22  O3  UNL     1      18.447  37.452  13.459  1.00  0.00    -0.371 OA
ATOM     23  H3  UNL     1      17.700  37.366  14.041  1.00  0.00     0.212 HD
ENDBRANCH  21  22
BRANCH  21  24
HETATM   24  O4  UNL     1      20.354  37.265  14.621  1.00  0.00    -0.371 OA
ATOM     25  H4  UNL     1      19.779  37.712  15.231  1.00  0.00     0.212 HD
ENDBRANCH  21  24
ENDBRANCH  20  21
ENDBRANCH  19  20
BRANCH  19  26
HETATM   26  C9  UNL     1      22.250  37.781  12.012  1.00  0.00     0.090 A 
HETATM   27  C10 UNL     1      22.521  38.902  12.764  1.00  0.00     0.074 A 
HETATM   28  C11 UNL     1      23.808  39.296  13.099  1.00  0.00     0.110 A 
HETATM   29  C13 UNL     1      24.853  38.514  12.646  1.00  0.00     0.178 A 
HETATM   30  C15 UNL     1      24.530  37.402  11.896  1.00  0.00     0.324 A 
HETATM   31  O7  UNL     1      25.511  36.705  11.495  1.00  0.00    -0.257 OA
HETATM   32  O8  UNL     1      23.278  37.072  11.606  1.00  0.00    -0.276 OA
BRANCH  28  33
HETATM   33  O5  UNL     1      24.043  40.429  13.858  1.00  0.00    -0.353 OA
HETATM   34  C12 UNL     1      23.129  40.790  14.873  1.00  0.00     0.210 C 
ENDBRANCH  28  33
BRANCH  29  35
HETATM   35  O6  UNL     1      26.149  38.861  12.950  1.00  0.00    -0.348 OA
HETATM   36  C14 UNL     1      26.985  39.422  11.955  1.00  0.00     0.210 C 
ENDBRANCH  29  35
ENDBRANCH  19  26
ENDBRANCH   1  19
TORSDOF 14
ENDMDL
MODEL 2
REMARK VINA RESULT: -6.355377814      0.748      1.914
REMARK  14 active torsions:
REMARK  status: ('A' for Active; 'I' for Inactive)
REMARK    1  A    between atoms: O1_2  and  C2_3 
REMARK    2  A    between atoms: C4_5  and  C5_6 
REMARK    3  A    between atoms: C5_6  and  O2_7 
REMARK    4  A    between atoms: C5_6  and  N1_9 
REMARK    5  A    between atoms: N1_9  and  C6_12 
REMARK    6  A    between atoms: C6_12  and  C7_13 
REMARK    7  A    between atoms: C6_12  and  C9_19 
REMARK    8  A    between atoms: C7_13  and  C8_14 
REMARK    9  A    between atoms: C8_14  and  O3_15 
REMARK   10  A    between atoms: C8_14  and  O4_17 
REMARK   11  A    between atoms: C11_21  and  O5_22 
REMARK   12  A    between atoms: C13_24  and  O6_25 
REMARK   13  A    between atoms: C17_31  and  O9_32 
REMARK   14  A    between atoms: C19_34  and  O10_35 
ROOT
HETATM    1  N1  UNL     1      20.913  37.272  10.397  1.00  0.00    -0.034 N 
ATOM      2  H11 UNL     1      20.911  38.143   9.868  1.00  0.00     0.281 HD
ATOM      3  H12 UNL     1      21.719  36.827   9.958  1.00  0.00     0.281 HD
ENDROOT
BRANCH   1   4
HETATM    4  C5  UNL     1      19.702  36.514  10.184  1.00  0.00     0.354 C 
BRANCH   4   5
HETATM    5  C4  UNL     1      19.534  36.004   8.825  1.00  0.00     0.003 A 
HETATM    6  C3  UNL     1      19.933  34.685   8.597  1.00  0.00     0.051 A 
HETATM    7  C2  UNL     1      19.833  34.082   7.368  1.00  0.00     0.104 A 
HETATM    8  C19 UNL     1      19.310  34.833   6.326  1.00  0.00     0.133 A 
HETATM    9  C17 UNL     1      18.896  36.153   6.501  1.00  0.00     0.104 A 
HETATM   10  C16 UNL     1      19.021  36.705   7.755  1.00  0.00     0.051 A 
BRANCH   7  11
HETATM   11  O1  UNL     1      20.235  32.762   7.149  1.00  0.00    -0.353 OA
HETATM   12  C1  UNL     1      19.610  31.750   7.921  1.00  0.00     0.210 C 
ENDBRANCH   7  11
BRANCH   8  13
HETATM   13  O10 UNL     1      19.189  34.276   5.081  1.00  0.00    -0.356 OA
ATOM     14  H10 UNL     1      19.632  34.677   4.341  1.00  0.00     0.218 HD
ENDBRANCH   8  13
BRANCH   9  15
HETATM   15  O9  UNL     1      18.382  36.853   5.422  1.00  0.00    -0.353 OA
HETATM   16  C18 UNL     1      17.043  36.849   5.027  1.00  0.00     0.210 C 
ENDBRANCH   9  15
ENDBRANCH   4   5
BRANCH   4  17
HETATM   17  O2  UNL     1      18.564  37.286  10.469  1.00  0.00    -0.366 OA
ATOM     18  H2  UNL     1      18.721  37.704  11.308  1.00  0.00     0.212 HD
ENDBRANCH   4  17
ENDBRANCH   1   4
BRANCH   1  19
HETATM   19  C6  UNL     1      21.132  37.503  11.799  1.00  0.00     0.250 C 
BRANCH  19  20
HETATM   20  C7  UNL     1      20.692  36.411  12.710  1.00  0.00     0.100 C 
BRANCH  20  21
HETATM   21  C8  UNL     1      19.836  36.799  13.858  1.00  0.00     0.256 C 
BRANCH  21  22
HETATM   22  O3  UNL     1      18.716  37.532  13.574  1.00  0.00    -0.371 OA
ATOM     23  H3  UNL     1      18.499  38.235  14.176  1.00  0.00     0.212 HD
ENDBRANCH  21  22
BRANCH  21  24
HETATM   24  O4  UNL     1      20.650  37.592  14.704  1.00  0.00    -0.371 OA
ATOM     25  H4  UNL     1      20.058  38.029  15.304  1.00  0.00     0.212 HD
ENDBRANCH  21  24
ENDBRANCH  20  21
ENDBRANCH  19  20
BRANCH  19  26
HETATM   26  C9  UNL     1      22.526  37.931  12.080  1.00  0.00     0.090 A 
HETATM   27  C10 UNL     1      23.583  37.143  11.682  1.00  0.00     0.074 A 
HETATM   28  C11 UNL     1      24.909  37.481  11.911  1.00  0.00     0.110 A 
HETATM   29  C13 UNL     1      25.159  38.669  12.572  1.00  0.00     0.178 A 
HETATM   30  C15 UNL     1      24.067  39.423  12.950  1.00  0.00     0.324 A 
HETATM   31  O7  UNL     1      24.331  40.507  13.554  1.00  0.00    -0.257 OA
HETATM   32  O8  UNL     1      22.818  39.050  12.704  1.00  0.00    -0.276 OA
BRANCH  28  33
HETATM   33  O5  UNL     1      25.946  36.665  11.497  1.00  0.00    -0.353 OA
HETATM   34  C12 UNL     1      26.818  36.103  12.456  1.00  0.00     0.210 C 
ENDBRANCH  28  33
BRANCH  29  35
HETATM   35  O6  UNL     1      26.456  39.051  12.824  1.00  0.00    -0.348 OA
HETATM   36  C14 UNL     1      27.240  39.625  11.794  1.00  0.00     0.210 C 
ENDBRANCH  29  35
ENDBRANCH  19  26
ENDBRANCH   1  19
TORSDOF 14
ENDMDL
MODEL 3
REMARK VINA RESULT: -6.097726970      0.750      2.415
REMARK  14 active torsions:
REMARK  status: ('A' for Active; 'I' for Inactive)
REMARK    1  A    between atoms: O1_2  and  C2_3 
REMARK    2  A    between atoms: C4_5  and  C5_6 
REMARK    3  A    between atoms: C5_6  and  O2_7 
REMARK    4  A    between atoms: C5_6  and  N1_9 
REMARK    5  A    between atoms: N1_9  and  C6_12 
REMARK    6  A    between atoms: C6_12  and  C7_13 
REMARK    7  A    between atoms: C6_12  and  C9_19 
REMARK    8  A    between atoms: C7_13  and  C8_14 
REMARK    9  A    between atoms: C8_14  and  O3_15 
REMARK   10  A    between atoms: C8_14  and  O4_17 
REMARK   11  A    between atoms: C11_21  and  O5_22 
REMARK   12  A    between atoms: C13_24  and  O6_25 
REMARK   13  A    between atoms: C17_31  and  O9_32 
REMARK   14  A    between atoms: C19_34  and  O10_35 
ROOT
HETATM    1  N1  UNL     1      20.637  36.103  10.876  1.00  0.00    -0.034 N 
ATOM      2  H11 UNL     1      21.556  35.881  10.495  1.00  0.00     0.281 HD
ATOM      3  H12 UNL     1      20.326  35.155  11.090  1.00  0.00     0.281 HD
ENDROOT
BRANCH   1   4
HETATM    4  C5  UNL     1      19.788  36.734   9.893  1.00  0.00     0.354 C 
BRANCH   4   5
HETATM    5  C4  UNL     1      19.618  35.973   8.657  1.00  0.00     0.003 A 
HETATM    6  C3  UNL     1      19.174  36.684   7.539  1.00  0.00     0.051 A 
HETATM    7  C2  UNL     1      18.969  36.093   6.317  1.00  0.00     0.104 A 
HETATM    8  C19 UNL     1      19.222  34.734   6.213  1.00  0.00     0.133 A 
HETATM    9  C17 UNL     1      19.668  33.978   7.297  1.00  0.00     0.104 A 
HETATM   10  C16 UNL     1      19.854  34.625   8.497  1.00  0.00     0.051 A 
BRANCH   7  11
HETATM   11  O1  UNL     1      18.524  36.812   5.206  1.00  0.00    -0.353 OA
HETATM   12  C1  UNL     1      17.124  36.923   5.013  1.00  0.00     0.210 C 
ENDBRANCH   7  11
BRANCH   8  13
HETATM   13  O10 UNL     1      19.034  34.097   5.014  1.00  0.00    -0.356 OA
ATOM     14  H10 UNL     1      19.731  34.094   4.368  1.00  0.00     0.218 HD
ENDBRANCH   8  13
BRANCH   9  15
HETATM   15  O9  UNL     1      19.903  32.624   7.130  1.00  0.00    -0.353 OA
HETATM   16  C18 UNL     1      19.332  31.608   7.901  1.00  0.00     0.210 C 
ENDBRANCH   9  15
ENDBRANCH   4   5
BRANCH   4  17
HETATM   17  O2  UNL     1      20.287  37.994   9.526  1.00  0.00    -0.366 OA
ATOM     18  H2  UNL     1      19.534  38.547   9.357  1.00  0.00     0.212 HD
ENDBRANCH   4  17
ENDBRANCH   1   4
BRANCH   1  19
HETATM   19  C6  UNL     1      20.734  36.911  12.061  1.00  0.00     0.250 C 
BRANCH  19  20
HETATM   20  C7  UNL     1      20.186  36.303  13.304  1.00  0.00     0.100 C 
BRANCH  20  21
HETATM   21  C8  UNL     1      18.713  36.347  13.480  1.00  0.00     0.256 C 
BRANCH  21  22
HETATM   22  O3  UNL     1      17.951  36.131  12.365  1.00  0.00    -0.371 OA
ATOM     23  H3  UNL     1      17.028  35.950  12.504  1.00  0.00     0.212 HD
ENDBRANCH  21  22
BRANCH  21  24
HETATM   24  O4  UNL     1      18.413  37.652  13.944  1.00  0.00    -0.371 OA
ATOM     25  H4  UNL     1      17.465  37.702  13.992  1.00  0.00     0.212 HD
ENDBRANCH  21  24
ENDBRANCH  20  21
ENDBRANCH  19  20
BRANCH  19  26
HETATM   26  C9  UNL     1      22.108  37.439  12.262  1.00  0.00     0.090 A 
HETATM   27  C10 UNL     1      22.301  38.617  12.947  1.00  0.00     0.074 A 
HETATM   28  C11 UNL     1      23.555  39.167  13.171  1.00  0.00     0.110 A 
HETATM   29  C13 UNL     1      24.649  38.483  12.675  1.00  0.00     0.178 A 
HETATM   30  C15 UNL     1      24.403  37.308  11.996  1.00  0.00     0.324 A 
HETATM   31  O7  UNL     1      25.428  36.705  11.553  1.00  0.00    -0.257 OA
HETATM   32  O8  UNL     1      23.181  36.829  11.811  1.00  0.00    -0.276 OA
BRANCH  28  33
HETATM   33  O5  UNL     1      23.711  40.354  13.865  1.00  0.00    -0.353 OA
HETATM   34  C12 UNL     1      22.815  40.674  14.910  1.00  0.00     0.210 C 
ENDBRANCH  28  33
BRANCH  29  35
HETATM   35  O6  UNL     1      25.914  38.986  12.870  1.00  0.00    -0.348 OA
HETATM   36  C14 UNL     1      26.664  39.466  11.769  1.00  0.00     0.210 C 
ENDBRANCH  29  35
ENDBRANCH  19  26
ENDBRANCH   1  19
TORSDOF 14
ENDMDL
MODEL 4
REMARK VINA RESULT: -5.984424303      0.813      2.976
REMARK  14 active torsions:
REMARK  status: ('A' for Active; 'I' for Inactive)
REMARK    1  A    between atoms: O1_2  and  C2_3 
REMARK    2  A    between atoms: C4_5  and  C5_6 
REMARK    3  A    between atoms: C5_6  and  O2_7 
REMARK    4  A    between atoms: C5_6  and  N1_9 
REMARK    5  A    between atoms: N1_9  and  C6_12 
REMARK    6  A    between atoms: C6_12  and  C7_13 
REMARK    7  A    between atoms: C6_12  and  C9_19 
REMARK    8  A    between atoms: C7_13  and  C8_14 
REMARK    9  A    between atoms: C8_14  and  O3_15 
REMARK   10  A    between atoms: C8_14  and  O4_17 
REMARK   11  A    between atoms: C11_21  and  O5_22 
REMARK   12  A    between atoms: C13_24  and  O6_25 
REMARK   13  A    between atoms: C17_31  and  O9_32 
REMARK   14  A    between atoms: C19_34  and  O10_35 
ROOT
HETATM    1  N1  UNL     1      20.885  37.288  10.458  1.00  0.00    -0.034 N 
ATOM      2  H11 UNL     1      20.832  38.166   9.943  1.00  0.00     0.281 HD
ATOM      3  H12 UNL     1      21.687  36.877   9.981  1.00  0.00     0.281 HD
ENDROOT
BRANCH   1   4
HETATM    4  C5  UNL     1      19.692  36.493  10.280  1.00  0.00     0.354 C 
BRANCH   4   5
HETATM    5  C4  UNL     1      19.593  35.825   8.984  1.00  0.00     0.003 A 
HETATM    6  C3  UNL     1      19.214  36.618   7.898  1.00  0.00     0.051 A 
HETATM    7  C2  UNL     1      19.079  36.119   6.626  1.00  0.00     0.104 A 
HETATM    8  C19 UNL     1      19.336  34.770   6.437  1.00  0.00     0.133 A 
HETATM    9  C17 UNL     1      19.718  33.935   7.487  1.00  0.00     0.104 A 
HETATM   10  C16 UNL     1      19.836  34.491   8.740  1.00  0.00     0.051 A 
BRANCH   7  11
HETATM   11  O1  UNL     1      18.701  36.920   5.547  1.00  0.00    -0.353 OA
HETATM   12  C1  UNL     1      17.333  36.911   5.172  1.00  0.00     0.210 C 
ENDBRANCH   7  11
BRANCH   8  13
HETATM   13  O10 UNL     1      19.216  34.224   5.187  1.00  0.00    -0.356 OA
ATOM     14  H10 UNL     1      19.052  34.789   4.440  1.00  0.00     0.218 HD
ENDBRANCH   8  13
BRANCH   9  15
HETATM   15  O9  UNL     1      19.960  32.595   7.235  1.00  0.00    -0.353 OA
HETATM   16  C18 UNL     1      19.351  31.529   7.903  1.00  0.00     0.210 C 
ENDBRANCH   9  15
ENDBRANCH   4   5
BRANCH   4  17
HETATM   17  O2  UNL     1      18.535  37.275  10.421  1.00  0.00    -0.366 OA
ATOM     18  H2  UNL     1      18.775  38.163  10.180  1.00  0.00     0.212 HD
ENDBRANCH   4  17
ENDBRANCH   1   4
BRANCH   1  19
HETATM   19  C6  UNL     1      21.150  37.505  11.854  1.00  0.00     0.250 C 
BRANCH  19  20
HETATM   20  C7  UNL     1      20.721  36.414  12.771  1.00  0.00     0.100 C 
BRANCH  20  21
HETATM   21  C8  UNL     1      19.807  36.789  13.878  1.00  0.00     0.256 C 
BRANCH  21  22
HETATM   22  O3  UNL     1      18.714  37.543  13.549  1.00  0.00    -0.371 OA
ATOM     23  H3  UNL     1      17.900  37.076  13.399  1.00  0.00     0.212 HD
ENDBRANCH  21  22
BRANCH  21  24
HETATM   24  O4  UNL     1      20.583  37.553  14.785  1.00  0.00    -0.371 OA
ATOM     25  H4  UNL     1      21.447  37.624  14.396  1.00  0.00     0.212 HD
ENDBRANCH  21  24
ENDBRANCH  20  21
ENDBRANCH  19  20
BRANCH  19  26
HETATM   26  C9  UNL     1      22.560  37.909  12.094  1.00  0.00     0.090 A 
HETATM   27  C10 UNL     1      23.589  37.071  11.727  1.00  0.00     0.074 A 
HETATM   28  C11 UNL     1      24.927  37.384  11.921  1.00  0.00     0.110 A 
HETATM   29  C13 UNL     1      25.218  38.599  12.512  1.00  0.00     0.178 A 
HETATM   30  C15 UNL     1      24.153  39.402  12.861  1.00  0.00     0.324 A 
HETATM   31  O7  UNL     1      24.454  40.510  13.401  1.00  0.00    -0.257 OA
HETATM   32  O8  UNL     1      22.891  39.051  12.651  1.00  0.00    -0.276 OA
BRANCH  28  33
HETATM   33  O5  UNL     1      25.935  36.517  11.540  1.00  0.00    -0.353 OA
HETATM   34  C12 UNL     1      26.908  36.120  12.485  1.00  0.00     0.210 C 
ENDBRANCH  28  33
BRANCH  29  35
HETATM   35  O6  UNL     1      26.529  38.957  12.727  1.00  0.00    -0.348 OA
HETATM   36  C14 UNL     1      27.251  39.643  11.721  1.00  0.00     0.210 C 
ENDBRANCH  29  35
ENDBRANCH  19  26
ENDBRANCH   1  19
TORSDOF 14
ENDMDL
MODEL 5
REMARK VINA RESULT: -5.377407716      1.222      2.886
REMARK  14 active torsions:
REMARK  status: ('A' for Active; 'I' for Inactive)
REMARK    1  A    between atoms: O1_2  and  C2_3 
REMARK    2  A    between atoms: C4_5  and  C5_6 
REMARK    3  A    between atoms: C5_6  and  O2_7 
REMARK    4  A    between atoms: C5_6  and  N1_9 
REMARK    5  A    between atoms: N1_9  and  C6_12 
REMARK    6  A    between atoms: C6_12  and  C7_13 
REMARK    7  A    between atoms: C6_12  and  C9_19 
REMARK    8  A    between atoms: C7_13  and  C8_14 
REMARK    9  A    between atoms: C8_14  and  O3_15 
REMARK   10  A    between atoms: C8_14  and  O4_17 
REMARK   11  A    between atoms: C11_21  and  O5_22 
REMARK   12  A    between atoms: C13_24  and  O6_25 
REMARK   13  A    between atoms: C17_31  and  O9_32 
REMARK   14  A    between atoms: C19_34  and  O10_35 
ROOT
HETATM    1  N1  UNL     1      20.845  37.463  10.269  1.00  0.00    -0.034 N 
ATOM      2  H11 UNL     1      20.714  38.377   9.837  1.00  0.00     0.281 HD
ATOM      3  H12 UNL     1      21.691  37.179   9.775  1.00  0.00     0.281 HD
ENDROOT
BRANCH   1   4
HETATM    4  C5  UNL     1      19.740  36.576   9.986  1.00  0.00     0.354 C 
BRANCH   4   5
HETATM    5  C4  UNL     1      19.618  36.183   8.584  1.00  0.00     0.003 A 
HETATM    6  C3  UNL     1      18.371  36.379   7.985  1.00  0.00     0.051 A 
HETATM    7  C2  UNL     1      18.117  36.050   6.676  1.00  0.00     0.104 A 
HETATM    8  C19 UNL     1      19.157  35.505   5.940  1.00  0.00     0.133 A 
HETATM    9  C17 UNL     1      20.420  35.289   6.490  1.00  0.00     0.104 A 
HETATM   10  C16 UNL     1      20.615  35.637   7.807  1.00  0.00     0.051 A 
BRANCH   7  11
HETATM   11  O1  UNL     1      16.867  36.250   6.086  1.00  0.00    -0.353 OA
HETATM   12  C1  UNL     1      16.808  37.088   4.944  1.00  0.00     0.210 C 
ENDBRANCH   7  11
BRANCH   8  13
HETATM   13  O10 UNL     1      18.954  35.161   4.629  1.00  0.00    -0.356 OA
ATOM     14  H10 UNL     1      19.033  35.822   3.952  1.00  0.00     0.218 HD
ENDBRANCH   8  13
BRANCH   9  15
HETATM   15  O9  UNL     1      21.419  34.740   5.703  1.00  0.00    -0.353 OA
HETATM   16  C18 UNL     1      22.515  35.439   5.193  1.00  0.00     0.210 C 
ENDBRANCH   9  15
ENDBRANCH   4   5
BRANCH   4  17
HETATM   17  O2  UNL     1      18.516  37.160  10.350  1.00  0.00    -0.366 OA
ATOM     18  H2  UNL     1      18.704  37.776  11.048  1.00  0.00     0.212 HD
ENDBRANCH   4  17
ENDBRANCH   1   4
BRANCH   1  19
HETATM   19  C6  UNL     1      21.065  37.570  11.685  1.00  0.00     0.250 C 
BRANCH  19  20
HETATM   20  C7  UNL     1      20.610  36.410  12.499  1.00  0.00     0.100 C 
BRANCH  20  21
HETATM   21  C8  UNL     1      19.821  36.715  13.719  1.00  0.00     0.256 C 
BRANCH  21  22
HETATM   22  O3  UNL     1      18.650  37.399  13.542  1.00  0.00    -0.371 OA
ATOM     23  H3  UNL     1      18.634  38.304  13.834  1.00  0.00     0.212 HD
ENDBRANCH  21  22
BRANCH  21  24
HETATM   24  O4  UNL     1      20.656  37.518  14.534  1.00  0.00    -0.371 OA
ATOM     25  H4  UNL     1      20.528  38.413  14.240  1.00  0.00     0.212 HD
ENDBRANCH  21  24
ENDBRANCH  20  21
ENDBRANCH  19  20
BRANCH  19  26
HETATM   26  C9  UNL     1      22.466  37.953  12.001  1.00  0.00     0.090 A 
HETATM   27  C10 UNL     1      23.504  37.119  11.652  1.00  0.00     0.074 A 
HETATM   28  C11 UNL     1      24.834  37.414  11.916  1.00  0.00     0.110 A 
HETATM   29  C13 UNL     1      25.107  38.605  12.561  1.00  0.00     0.178 A 
HETATM   30  C15 UNL     1      24.033  39.405  12.890  1.00  0.00     0.324 A 
HETATM   31  O7  UNL     1      24.318  40.491  13.480  1.00  0.00    -0.257 OA
HETATM   32  O8  UNL     1      22.779  39.072  12.612  1.00  0.00    -0.276 OA
BRANCH  28  33
HETATM   33  O5  UNL     1      25.852  36.552  11.550  1.00  0.00    -0.353 OA
HETATM   34  C12 UNL     1      26.824  36.174  12.504  1.00  0.00     0.210 C 
ENDBRANCH  28  33
BRANCH  29  35
HETATM   35  O6  UNL     1      26.409  38.944  12.846  1.00  0.00    -0.348 OA
HETATM   36  C14 UNL     1      27.196  39.615  11.878  1.00  0.00     0.210 C 
ENDBRANCH  29  35
ENDBRANCH  19  26
ENDBRANCH   1  19
TORSDOF 14
ENDMDL
