MODEL 1
REMARK VINA RESULT: -6.311296691      0.000      0.000
REMARK  4 active torsions:
REMARK  status: ('A' for Active; 'I' for Inactive)
REMARK    1  A    between atoms: C2_2  and  C3_6 
REMARK    2  A    between atoms: C6_9  and  C8_11 
REMARK    3  A    between atoms: C8_11  and  N2_12 
REMARK    4  A    between atoms: C12_17  and  O2_18 
ROOT
HETATM    1  C3  UNL     1      13.237   9.259  27.093  1.00  0.00     0.166 C 
HETATM    2  C4  UNL     1      12.281   8.684  28.096  1.00  0.00     0.039 C 
HETATM    3  C5  UNL     1      12.492   7.220  28.340  1.00  0.00     0.016 C 
HETATM    4  C6  UNL     1      13.989   6.872  28.451  1.00  0.00     0.004 C 
HETATM    5  C7  UNL     1      14.711   7.726  29.419  1.00  0.00     0.019 C 
HETATM    6  C13 UNL     1      14.504   7.291  27.050  1.00  0.00     0.179 C 
HETATM    7  O3  UNL     1      14.423   8.630  26.975  1.00  0.00    -0.379 OA
ENDROOT
BRANCH   4   8
HETATM    8  C8  UNL     1      14.054   5.407  28.599  1.00  0.00     0.287 C 
BRANCH   8   9
HETATM    9  N2  UNL     1      15.134   4.692  27.999  1.00  0.00     0.122 N 
HETATM   10  C9  UNL     1      14.634   3.314  27.851  1.00  0.00     0.302 C 
HETATM   11  C10 UNL     1      15.747   2.314  27.697  1.00  0.00     0.198 C 
HETATM   12  O1  UNL     1      16.579   2.304  28.826  1.00  0.00    -0.385 OA
HETATM   13  C11 UNL     1      16.255   3.379  29.660  1.00  0.00     0.231 C 
HETATM   14  C12 UNL     1      16.352   4.641  28.808  1.00  0.00     0.380 C 
BRANCH  14  15
HETATM   15  O2  UNL     1      17.456   4.525  27.971  1.00  0.00    -0.366 OA
ATOM     16  H2  UNL     1      18.182   4.152  28.459  1.00  0.00     0.212 HD
ENDBRANCH  14  15
ENDBRANCH   8   9
ENDBRANCH   4   8
BRANCH   1  17
HETATM   17  C2  UNL     1      12.549   9.531  25.811  1.00  0.00     0.005 C 
HETATM   18  C1  UNL     1      13.371   9.994  24.628  1.00  0.00     0.065 C 
HETATM   19  N1  UNL     1      11.308   9.402  25.654  1.00  0.00    -0.404 N 
ATOM     20  H12 UNL     1      10.834   9.590  24.770  1.00  0.00     0.155 HD
ATOM     21  H11 UNL     1      10.754   9.090  26.452  1.00  0.00     0.155 HD
ENDBRANCH   1  17
TORSDOF 4
ENDMDL
MODEL 2
REMARK VINA RESULT: -6.191505957      1.236      1.728
REMARK  4 active torsions:
REMARK  status: ('A' for Active; 'I' for Inactive)
REMARK    1  A    between atoms: C2_2  and  C3_6 
REMARK    2  A    between atoms: C6_9  and  C8_11 
REMARK    3  A    between atoms: C8_11  and  N2_12 
REMARK    4  A    between atoms: C12_17  and  O2_18 
ROOT
HETATM    1  C3  UNL     1      12.249   8.911  27.954  1.00  0.00     0.166 C 
HETATM    2  C4  UNL     1      11.987   7.700  28.801  1.00  0.00     0.039 C 
HETATM    3  C5  UNL     1      12.995   6.610  28.599  1.00  0.00     0.016 C 
HETATM    4  C6  UNL     1      14.429   7.169  28.521  1.00  0.00     0.004 C 
HETATM    5  C7  UNL     1      14.765   8.060  29.652  1.00  0.00     0.019 C 
HETATM    6  C13 UNL     1      14.331   8.085  27.274  1.00  0.00     0.179 C 
HETATM    7  O3  UNL     1      13.531   9.116  27.593  1.00  0.00    -0.379 OA
ENDROOT
BRANCH   4   8
HETATM    8  C8  UNL     1      15.299   6.014  28.236  1.00  0.00     0.287 C 
BRANCH   8   9
HETATM    9  N2  UNL     1      14.908   4.717  28.687  1.00  0.00     0.122 N 
HETATM   10  C9  UNL     1      15.754   4.460  29.864  1.00  0.00     0.302 C 
HETATM   11  C10 UNL     1      15.851   2.995  30.192  1.00  0.00     0.198 C 
HETATM   12  O1  UNL     1      16.430   2.276  29.136  1.00  0.00    -0.385 OA
HETATM   13  C11 UNL     1      16.542   3.100  28.011  1.00  0.00     0.231 C 
HETATM   14  C12 UNL     1      15.145   3.643  27.722  1.00  0.00     0.380 C 
BRANCH  14  15
HETATM   15  O2  UNL     1      14.224   2.623  27.934  1.00  0.00    -0.366 OA
ATOM     16  H2  UNL     1      14.581   1.804  27.608  1.00  0.00     0.212 HD
ENDBRANCH  14  15
ENDBRANCH   8   9
ENDBRANCH   4   8
BRANCH   1  17
HETATM   17  C2  UNL     1      11.272   8.997  26.847  1.00  0.00     0.005 C 
HETATM   18  C1  UNL     1      11.716   9.589  25.527  1.00  0.00     0.065 C 
HETATM   19  N1  UNL     1      10.080   8.605  26.947  1.00  0.00    -0.404 N 
ATOM     20  H12 UNL     1       9.406   8.664  26.183  1.00  0.00     0.155 HD
ATOM     21  H11 UNL     1       9.781   8.205  27.836  1.00  0.00     0.155 HD
ENDBRANCH   1  17
TORSDOF 4
ENDMDL
MODEL 3
REMARK VINA RESULT: -6.143458256      1.419      1.986
REMARK  4 active torsions:
REMARK  status: ('A' for Active; 'I' for Inactive)
REMARK    1  A    between atoms: C2_2  and  C3_6 
REMARK    2  A    between atoms: C6_9  and  C8_11 
REMARK    3  A    between atoms: C8_11  and  N2_12 
REMARK    4  A    between atoms: C12_17  and  O2_18 
ROOT
HETATM    1  C3  UNL     1      12.295   9.022  26.432  1.00  0.00     0.166 C 
HETATM    2  C4  UNL     1      12.161   7.621  25.911  1.00  0.00     0.039 C 
HETATM    3  C5  UNL     1      13.293   6.729  26.322  1.00  0.00     0.016 C 
HETATM    4  C6  UNL     1      13.677   6.941  27.799  1.00  0.00     0.004 C 
HETATM    5  C7  UNL     1      12.520   6.860  28.715  1.00  0.00     0.019 C 
HETATM    6  C13 UNL     1      14.108   8.430  27.790  1.00  0.00     0.179 C 
HETATM    7  O3  UNL     1      13.006   9.167  27.568  1.00  0.00    -0.379 OA
ENDROOT
BRANCH   4   8
HETATM    8  C8  UNL     1      14.846   6.076  28.041  1.00  0.00     0.287 C 
BRANCH   8   9
HETATM    9  N2  UNL     1      14.645   4.759  28.554  1.00  0.00     0.122 N 
HETATM   10  C9  UNL     1      15.471   4.703  29.773  1.00  0.00     0.302 C 
HETATM   11  C10 UNL     1      15.784   3.291  30.189  1.00  0.00     0.198 C 
HETATM   12  O1  UNL     1      16.513   2.620  29.197  1.00  0.00    -0.385 OA
HETATM   13  C11 UNL     1      16.542   3.391  28.030  1.00  0.00     0.231 C 
HETATM   14  C12 UNL     1      15.090   3.687  27.663  1.00  0.00     0.380 C 
BRANCH  14  15
HETATM   15  O2  UNL     1      14.333   2.546  27.903  1.00  0.00    -0.366 OA
ATOM     16  H2  UNL     1      13.831   2.333  27.125  1.00  0.00     0.212 HD
ENDBRANCH  14  15
ENDBRANCH   8   9
ENDBRANCH   4   8
BRANCH   1  17
HETATM   17  C2  UNL     1      12.668   9.952  25.344  1.00  0.00     0.005 C 
HETATM   18  C1  UNL     1      11.641  10.950  24.854  1.00  0.00     0.065 C 
HETATM   19  N1  UNL     1      13.801   9.955  24.798  1.00  0.00    -0.404 N 
ATOM     20  H12 UNL     1      14.059  10.596  24.047  1.00  0.00     0.155 HD
ATOM     21  H11 UNL     1      14.493   9.283  25.128  1.00  0.00     0.155 HD
ENDBRANCH   1  17
TORSDOF 4
ENDMDL
MODEL 4
REMARK VINA RESULT: -6.103830181      3.957      6.307
REMARK  4 active torsions:
REMARK  status: ('A' for Active; 'I' for Inactive)
REMARK    1  A    between atoms: C2_2  and  C3_6 
REMARK    2  A    between atoms: C6_9  and  C8_11 
REMARK    3  A    between atoms: C8_11  and  N2_12 
REMARK    4  A    between atoms: C12_17  and  O2_18 
ROOT
HETATM    1  C3  UNL     1       7.856  11.801  27.191  1.00  0.00     0.166 C 
HETATM    2  C4  UNL     1       8.652  12.557  26.169  1.00  0.00     0.039 C 
HETATM    3  C5  UNL     1       9.970  11.914  25.855  1.00  0.00     0.016 C 
HETATM    4  C6  UNL     1       9.838  10.385  25.716  1.00  0.00     0.004 C 
HETATM    5  C7  UNL     1       8.764   9.979  24.785  1.00  0.00     0.019 C 
HETATM    6  C13 UNL     1       9.342   9.994  27.132  1.00  0.00     0.179 C 
HETATM    7  O3  UNL     1       8.096  10.477  27.271  1.00  0.00    -0.379 OA
ENDROOT
BRANCH   4   8
HETATM    8  C8  UNL     1      11.205   9.879  25.499  1.00  0.00     0.287 C 
BRANCH   8   9
HETATM    9  N2  UNL     1      11.857   9.158  26.544  1.00  0.00     0.122 N 
HETATM   10  C9  UNL     1      13.269   9.570  26.457  1.00  0.00     0.302 C 
HETATM   11  C10 UNL     1      14.193   8.590  27.127  1.00  0.00     0.198 C 
HETATM   12  O1  UNL     1      14.122   7.328  26.521  1.00  0.00    -0.385 OA
HETATM   13  C11 UNL     1      13.053   7.299  25.618  1.00  0.00     0.231 C 
HETATM   14  C12 UNL     1      11.806   7.703  26.400  1.00  0.00     0.380 C 
BRANCH  14  15
HETATM   15  O2  UNL     1      11.865   7.114  27.658  1.00  0.00    -0.366 OA
ATOM     16  H2  UNL     1      12.588   7.490  28.147  1.00  0.00     0.212 HD
ENDBRANCH  14  15
ENDBRANCH   8   9
ENDBRANCH   4   8
BRANCH   1  17
HETATM   17  C2  UNL     1       7.862  12.511  28.489  1.00  0.00     0.005 C 
HETATM   18  C1  UNL     1       8.586  13.836  28.591  1.00  0.00     0.065 C 
HETATM   19  N1  UNL     1       7.297  12.066  29.521  1.00  0.00    -0.404 N 
ATOM     20  H12 UNL     1       7.302  12.556  30.417  1.00  0.00     0.155 HD
ATOM     21  H11 UNL     1       6.809  11.174  29.452  1.00  0.00     0.155 HD
ENDBRANCH   1  17
TORSDOF 4
ENDMDL
MODEL 5
REMARK VINA RESULT: -6.097245171      2.416      3.672
REMARK  4 active torsions:
REMARK  status: ('A' for Active; 'I' for Inactive)
REMARK    1  A    between atoms: C2_2  and  C3_6 
REMARK    2  A    between atoms: C6_9  and  C8_11 
REMARK    3  A    between atoms: C8_11  and  N2_12 
REMARK    4  A    between atoms: C12_17  and  O2_18 
ROOT
HETATM    1  C3  UNL     1      10.662  10.110  25.141  1.00  0.00     0.166 C 
HETATM    2  C4  UNL     1      12.042  10.670  24.958  1.00  0.00     0.039 C 
HETATM    3  C5  UNL     1      13.038  10.113  25.930  1.00  0.00     0.016 C 
HETATM    4  C6  UNL     1      12.869   8.592  26.110  1.00  0.00     0.004 C 
HETATM    5  C7  UNL     1      12.845   7.858  24.827  1.00  0.00     0.019 C 
HETATM    6  C13 UNL     1      11.426   8.511  26.672  1.00  0.00     0.179 C 
HETATM    7  O3  UNL     1      10.589   8.880  25.687  1.00  0.00    -0.379 OA
ENDROOT
BRANCH   4   8
HETATM    8  C8  UNL     1      13.840   8.196  27.146  1.00  0.00     0.287 C 
BRANCH   8   9
HETATM    9  N2  UNL     1      13.664   6.956  27.830  1.00  0.00     0.122 N 
HETATM   10  C9  UNL     1      14.232   7.185  29.169  1.00  0.00     0.302 C 
HETATM   11  C10 UNL     1      14.586   5.901  29.869  1.00  0.00     0.198 C 
HETATM   12  O1  UNL     1      15.557   5.184  29.155  1.00  0.00    -0.385 OA
HETATM   13  C11 UNL     1      15.746   5.770  27.899  1.00  0.00     0.231 C 
HETATM   14  C12 UNL     1      14.375   5.827  27.230  1.00  0.00     0.380 C 
BRANCH  14  15
HETATM   15  O2  UNL     1      13.694   4.649  27.519  1.00  0.00    -0.366 OA
ATOM     16  H2  UNL     1      13.707   4.083  26.755  1.00  0.00     0.212 HD
ENDBRANCH  14  15
ENDBRANCH   8   9
ENDBRANCH   4   8
BRANCH   1  17
HETATM   17  C2  UNL     1       9.767  11.114  25.754  1.00  0.00     0.005 C 
HETATM   18  C1  UNL     1       8.706  10.648  26.727  1.00  0.00     0.065 C 
HETATM   19  N1  UNL     1       9.837  12.345  25.503  1.00  0.00    -0.404 N 
ATOM     20  H12 UNL     1       9.219  13.039  25.926  1.00  0.00     0.155 HD
ATOM     21  H11 UNL     1      10.552  12.660  24.848  1.00  0.00     0.155 HD
ENDBRANCH   1  17
TORSDOF 4
ENDMDL
