MODEL 1
REMARK VINA RESULT: -6.215539150      0.000      0.000
REMARK  3 active torsions:
REMARK  status: ('A' for Active; 'I' for Inactive)
REMARK    1  A    between atoms: O1_3  and  C3_4 
REMARK    2  A    between atoms: C7_8  and  C8_9 
REMARK    3  A    between atoms: C8_9  and  C9_10 
ROOT
HETATM    1  C1  UNL     1      16.577   4.778  23.521  1.00  0.00     0.045 C 
HETATM    2  C2  UNL     1      15.827   3.961  23.046  1.00  0.00     0.049 C 
HETATM    3  O1  UNL     1      14.989   3.023  22.520  1.00  0.00    -0.262 OA
ENDROOT
BRANCH   3   4
HETATM    4  C3  UNL     1      15.008   1.691  22.907  1.00  0.00     0.087 A 
HETATM    5  C4  UNL     1      15.436   1.396  24.184  1.00  0.00     0.038 A 
HETATM    6  C5  UNL     1      15.469   0.063  24.616  1.00  0.00     0.003 A 
HETATM    7  C6  UNL     1      15.077  -0.945  23.767  1.00  0.00     0.007 A 
HETATM    8  C7  UNL     1      14.647  -0.670  22.488  1.00  0.00    -0.048 A 
HETATM    9  C11 UNL     1      14.621   0.652  22.083  1.00  0.00     0.045 A 
BRANCH   8  10
HETATM   10  C8  UNL     1      14.216  -1.740  21.547  1.00  0.00     0.116 C 
BRANCH  10  11
HETATM   11  C9  UNL     1      12.816  -1.534  21.102  1.00  0.00     0.104 A 
HETATM   12  N1  UNL     1      12.362  -1.456  19.838  1.00  0.00    -0.295 N 
HETATM   13  C10 UNL     1      11.032  -1.264  19.857  1.00  0.00     0.340 A 
ATOM     14  H1  UNL     1      12.937  -1.531  18.999  1.00  0.00     0.172 HD
HETATM   15  O2  UNL     1      10.213  -1.135  18.923  1.00  0.00    -0.245 OA
HETATM   16  N2  UNL     1      10.659  -1.222  21.157  1.00  0.00    -0.250 N 
HETATM   17  N3  UNL     1      11.745  -1.387  21.895  1.00  0.00    -0.285 N 
ATOM     18  H2  UNL     1       9.710  -1.088  21.506  1.00  0.00     0.192 HD
ATOM     19  H3  UNL     1      11.764  -1.400  22.915  1.00  0.00     0.188 HD
ENDBRANCH  10  11
ENDBRANCH   8  10
ENDBRANCH   3   4
TORSDOF 3
ENDMDL
MODEL 2
REMARK VINA RESULT: -6.200252575      2.004      2.587
REMARK  3 active torsions:
REMARK  status: ('A' for Active; 'I' for Inactive)
REMARK    1  A    between atoms: O1_3  and  C3_4 
REMARK    2  A    between atoms: C7_8  and  C8_9 
REMARK    3  A    between atoms: C8_9  and  C9_10 
ROOT
HETATM    1  C1  UNL     1      16.508   4.803  23.073  1.00  0.00     0.045 C 
HETATM    2  C2  UNL     1      16.416   4.269  24.150  1.00  0.00     0.049 C 
HETATM    3  O1  UNL     1      16.300   3.650  25.360  1.00  0.00    -0.262 OA
ENDROOT
BRANCH   3   4
HETATM    4  C3  UNL     1      15.653   2.434  25.528  1.00  0.00     0.087 A 
HETATM    5  C4  UNL     1      14.919   2.247  26.679  1.00  0.00     0.038 A 
HETATM    6  C5  UNL     1      14.250   1.033  26.888  1.00  0.00     0.003 A 
HETATM    7  C6  UNL     1      14.328   0.034  25.947  1.00  0.00     0.007 A 
HETATM    8  C7  UNL     1      15.057   0.202  24.791  1.00  0.00    -0.048 A 
HETATM    9  C11 UNL     1      15.708   1.408  24.605  1.00  0.00     0.045 A 
BRANCH   8  10
HETATM   10  C8  UNL     1      15.159  -0.861  23.753  1.00  0.00     0.116 C 
BRANCH  10  11
HETATM   11  C9  UNL     1      14.329  -0.538  22.568  1.00  0.00     0.104 A 
HETATM   12  N1  UNL     1      14.753  -0.277  21.318  1.00  0.00    -0.295 N 
HETATM   13  C10 UNL     1      13.690  -0.032  20.534  1.00  0.00     0.340 A 
ATOM     14  H1  UNL     1      15.727  -0.267  21.016  1.00  0.00     0.172 HD
HETATM   15  O2  UNL     1      13.621   0.252  19.319  1.00  0.00    -0.245 OA
HETATM   16  N2  UNL     1      12.590  -0.144  21.313  1.00  0.00    -0.250 N 
HETATM   17  N3  UNL     1      12.991  -0.450  22.537  1.00  0.00    -0.285 N 
ATOM     18  H2  UNL     1      11.624  -0.015  21.012  1.00  0.00     0.192 HD
ATOM     19  H3  UNL     1      12.375  -0.596  23.336  1.00  0.00     0.188 HD
ENDBRANCH  10  11
ENDBRANCH   8  10
ENDBRANCH   3   4
TORSDOF 3
ENDMDL
MODEL 3
REMARK VINA RESULT: -6.165604681      1.752      2.734
REMARK  3 active torsions:
REMARK  status: ('A' for Active; 'I' for Inactive)
REMARK    1  A    between atoms: O1_3  and  C3_4 
REMARK    2  A    between atoms: C7_8  and  C8_9 
REMARK    3  A    between atoms: C8_9  and  C9_10 
ROOT
HETATM    1  C1  UNL     1      12.827   1.267  27.171  1.00  0.00     0.045 C 
HETATM    2  C2  UNL     1      13.752   1.795  26.605  1.00  0.00     0.049 C 
HETATM    3  O1  UNL     1      14.794   2.379  25.948  1.00  0.00    -0.262 OA
ENDROOT
BRANCH   3   4
HETATM    4  C3  UNL     1      15.066   2.150  24.607  1.00  0.00     0.087 A 
HETATM    5  C4  UNL     1      15.528   3.208  23.853  1.00  0.00     0.038 A 
HETATM    6  C5  UNL     1      15.815   3.020  22.494  1.00  0.00     0.003 A 
HETATM    7  C6  UNL     1      15.634   1.785  21.917  1.00  0.00     0.007 A 
HETATM    8  C7  UNL     1      15.172   0.717  22.653  1.00  0.00    -0.048 A 
HETATM    9  C11 UNL     1      14.896   0.925  23.993  1.00  0.00     0.045 A 
BRANCH   8  10
HETATM   10  C8  UNL     1      14.966  -0.631  22.056  1.00  0.00     0.116 C 
BRANCH  10  11
HETATM   11  C9  UNL     1      13.629  -0.742  21.425  1.00  0.00     0.104 A 
HETATM   12  N1  UNL     1      13.341  -0.732  20.111  1.00  0.00    -0.295 N 
HETATM   13  C10 UNL     1      12.013  -0.855  19.949  1.00  0.00     0.340 A 
ATOM     14  H1  UNL     1      14.023  -0.644  19.358  1.00  0.00     0.172 HD
HETATM   15  O2  UNL     1      11.317  -0.891  18.912  1.00  0.00    -0.245 OA
HETATM   16  N2  UNL     1      11.471  -0.942  21.186  1.00  0.00    -0.250 N 
HETATM   17  N3  UNL     1      12.458  -0.873  22.065  1.00  0.00    -0.285 N 
ATOM     18  H2  UNL     1      10.480  -1.044  21.403  1.00  0.00     0.192 HD
ATOM     19  H3  UNL     1      12.345  -0.914  23.078  1.00  0.00     0.188 HD
ENDBRANCH  10  11
ENDBRANCH   8  10
ENDBRANCH   3   4
TORSDOF 3
ENDMDL
MODEL 4
REMARK VINA RESULT: -6.115875754      2.310      3.839
REMARK  3 active torsions:
REMARK  status: ('A' for Active; 'I' for Inactive)
REMARK    1  A    between atoms: O1_3  and  C3_4 
REMARK    2  A    between atoms: C7_8  and  C8_9 
REMARK    3  A    between atoms: C8_9  and  C9_10 
ROOT
HETATM    1  C1  UNL     1      15.795  -1.586  26.047  1.00  0.00     0.045 C 
HETATM    2  C2  UNL     1      15.864  -0.385  26.132  1.00  0.00     0.049 C 
HETATM    3  O1  UNL     1      15.944   0.974  26.208  1.00  0.00    -0.262 OA
ENDROOT
BRANCH   3   4
HETATM    4  C3  UNL     1      15.897   1.797  25.092  1.00  0.00     0.087 A 
HETATM    5  C4  UNL     1      16.196   3.132  25.262  1.00  0.00     0.038 A 
HETATM    6  C5  UNL     1      16.161   3.999  24.160  1.00  0.00     0.003 A 
HETATM    7  C6  UNL     1      15.828   3.516  22.917  1.00  0.00     0.007 A 
HETATM    8  C7  UNL     1      15.525   2.187  22.728  1.00  0.00    -0.048 A 
HETATM    9  C11 UNL     1      15.567   1.349  23.828  1.00  0.00     0.045 A 
BRANCH   8  10
HETATM   10  C8  UNL     1      15.161   1.636  21.393  1.00  0.00     0.116 C 
BRANCH  10  11
HETATM   11  C9  UNL     1      14.506   0.311  21.518  1.00  0.00     0.104 A 
HETATM   12  N1  UNL     1      15.094  -0.898  21.483  1.00  0.00    -0.295 N 
HETATM   13  C10 UNL     1      14.155  -1.849  21.631  1.00  0.00     0.340 A 
ATOM     14  H1  UNL     1      16.092  -1.067  21.362  1.00  0.00     0.172 HD
HETATM   15  O2  UNL     1      14.253  -3.094  21.658  1.00  0.00    -0.245 OA
HETATM   16  N2  UNL     1      12.967  -1.214  21.760  1.00  0.00    -0.250 N 
HETATM   17  N3  UNL     1      13.196   0.088  21.690  1.00  0.00    -0.285 N 
ATOM     18  H2  UNL     1      12.059  -1.659  21.889  1.00  0.00     0.192 HD
ATOM     19  H3  UNL     1      12.481   0.812  21.757  1.00  0.00     0.188 HD
ENDBRANCH  10  11
ENDBRANCH   8  10
ENDBRANCH   3   4
TORSDOF 3
ENDMDL
MODEL 5
REMARK VINA RESULT: -6.083468580      2.326      3.460
REMARK  3 active torsions:
REMARK  status: ('A' for Active; 'I' for Inactive)
REMARK    1  A    between atoms: O1_3  and  C3_4 
REMARK    2  A    between atoms: C7_8  and  C8_9 
REMARK    3  A    between atoms: C8_9  and  C9_10 
ROOT
HETATM    1  C1  UNL     1      15.580   2.376  22.477  1.00  0.00     0.045 C 
HETATM    2  C2  UNL     1      15.155   1.724  21.555  1.00  0.00     0.049 C 
HETATM    3  O1  UNL     1      14.669   0.972  20.527  1.00  0.00    -0.262 OA
ENDROOT
BRANCH   3   4
HETATM    4  C3  UNL     1      13.977  -0.214  20.720  1.00  0.00     0.087 A 
HETATM    5  C4  UNL     1      14.496  -1.127  21.614  1.00  0.00     0.038 A 
HETATM    6  C5  UNL     1      13.827  -2.338  21.839  1.00  0.00     0.003 A 
HETATM    7  C6  UNL     1      12.660  -2.613  21.168  1.00  0.00     0.007 A 
HETATM    8  C7  UNL     1      12.126  -1.716  20.271  1.00  0.00    -0.048 A 
HETATM    9  C11 UNL     1      12.801  -0.526  20.065  1.00  0.00     0.045 A 
BRANCH   8  10
HETATM   10  C8  UNL     1      10.863  -1.987  19.531  1.00  0.00     0.116 C 
BRANCH  10  11
HETATM   11  C9  UNL     1       9.682  -1.874  20.421  1.00  0.00     0.104 A 
HETATM   12  N1  UNL     1       8.683  -2.762  20.572  1.00  0.00    -0.295 N 
HETATM   13  C10 UNL     1       7.805  -2.290  21.473  1.00  0.00     0.340 A 
ATOM     14  H1  UNL     1       8.606  -3.653  20.081  1.00  0.00     0.172 HD
HETATM   15  O2  UNL     1       6.742  -2.780  21.911  1.00  0.00    -0.245 OA
HETATM   16  N2  UNL     1       8.270  -1.088  21.885  1.00  0.00    -0.250 N 
HETATM   17  N3  UNL     1       9.402  -0.852  21.242  1.00  0.00    -0.285 N 
ATOM     18  H2  UNL     1       7.827  -0.474  22.568  1.00  0.00     0.192 HD
ATOM     19  H3  UNL     1       9.977  -0.016  21.355  1.00  0.00     0.188 HD
ENDBRANCH  10  11
ENDBRANCH   8  10
ENDBRANCH   3   4
TORSDOF 3
ENDMDL
