MODEL 1
REMARK VINA RESULT: -6.348263154      0.000      0.000
REMARK  4 active torsions:
REMARK  status: ('A' for Active; 'I' for Inactive)
REMARK    1  A    between atoms: C5_6  and  C6_7 
REMARK    2  A    between atoms: C6_7  and  C7_8 
REMARK    3  A    between atoms: C7_8  and  N2_9 
REMARK    4  A    between atoms: N2_9  and  C8_11 
ROOT
HETATM    1  N2  UNL     1      13.246  -0.027  21.734  1.00  0.00    -0.226 N 
ATOM      2  H2  UNL     1      13.020   0.003  22.728  1.00  0.00     0.177 HD
ENDROOT
BRANCH   1   3
HETATM    3  C7  UNL     1      14.465   0.571  21.235  1.00  0.00     0.142 C 
BRANCH   3   4
HETATM    4  C6  UNL     1      15.609   0.416  22.208  1.00  0.00     0.058 C 
BRANCH   4   5
HETATM    5  C5  UNL     1      15.803   1.649  23.022  1.00  0.00    -0.055 A 
HETATM    6  C4  UNL     1      15.842   2.870  22.384  1.00  0.00     0.007 A 
HETATM    7  C3  UNL     1      16.021   3.981  23.181  1.00  0.00     0.002 A 
HETATM    8  C2  UNL     1      16.155   3.874  24.548  1.00  0.00     0.026 A 
HETATM    9  C1  UNL     1      16.115   2.645  25.192  1.00  0.00     0.046 A 
HETATM   10  N1  UNL     1      16.259   2.602  26.593  1.00  0.00    -0.102 NA
HETATM   11  C12 UNL     1      15.936   1.526  24.408  1.00  0.00     0.033 A 
ENDBRANCH   4   5
ENDBRANCH   3   4
ENDBRANCH   1   3
BRANCH   1  12
HETATM   12  C8  UNL     1      12.456  -0.596  20.900  1.00  0.00     0.677 A 
HETATM   13  N3  UNL     1      12.685  -0.514  19.601  1.00  0.00    -0.202 N 
HETATM   14  C9  UNL     1      11.921  -1.072  18.649  1.00  0.00     0.107 A 
ATOM     15  H3  UNL     1      13.503   0.014  19.298  1.00  0.00     0.183 HD
HETATM   16  C10 UNL     1      10.817  -1.783  19.063  1.00  0.00     0.035 A 
HETATM   17  C11 UNL     1      10.538  -1.896  20.417  1.00  0.00     0.107 A 
HETATM   18  N4  UNL     1      11.371  -1.295  21.312  1.00  0.00    -0.202 N 
ATOM     19  H4  UNL     1      11.174  -1.372  22.311  1.00  0.00     0.183 HD
ENDBRANCH   1  12
TORSDOF 4
ENDMDL
MODEL 2
REMARK VINA RESULT: -6.347207597      0.054      1.173
REMARK  4 active torsions:
REMARK  status: ('A' for Active; 'I' for Inactive)
REMARK    1  A    between atoms: C5_6  and  C6_7 
REMARK    2  A    between atoms: C6_7  and  C7_8 
REMARK    3  A    between atoms: C7_8  and  N2_9 
REMARK    4  A    between atoms: N2_9  and  C8_11 
ROOT
HETATM    1  N2  UNL     1      13.201   0.019  21.693  1.00  0.00    -0.226 N 
ATOM      2  H2  UNL     1      12.934   0.081  22.676  1.00  0.00     0.177 HD
ENDROOT
BRANCH   1   3
HETATM    3  C7  UNL     1      14.445   0.589  21.227  1.00  0.00     0.142 C 
BRANCH   3   4
HETATM    4  C6  UNL     1      15.560   0.406  22.230  1.00  0.00     0.058 C 
BRANCH   4   5
HETATM    5  C5  UNL     1      15.770   1.639  23.041  1.00  0.00    -0.055 A 
HETATM    6  C4  UNL     1      15.814   2.858  22.400  1.00  0.00     0.007 A 
HETATM    7  C3  UNL     1      16.010   3.970  23.193  1.00  0.00     0.002 A 
HETATM    8  C2  UNL     1      16.154   3.864  24.560  1.00  0.00     0.026 A 
HETATM    9  C1  UNL     1      16.109   2.636  25.207  1.00  0.00     0.046 A 
HETATM   10  N1  UNL     1      16.264   2.594  26.606  1.00  0.00    -0.102 NA
HETATM   11  C12 UNL     1      15.914   1.517  24.425  1.00  0.00     0.033 A 
ENDBRANCH   4   5
ENDBRANCH   3   4
ENDBRANCH   1   3
BRANCH   1  12
HETATM   12  C8  UNL     1      12.439  -0.567  20.844  1.00  0.00     0.677 A 
HETATM   13  N3  UNL     1      11.395  -1.266  21.252  1.00  0.00    -0.202 N 
HETATM   14  C9  UNL     1      10.540  -1.914  20.446  1.00  0.00     0.107 A 
ATOM     15  H3  UNL     1      11.227  -1.319  22.257  1.00  0.00     0.183 HD
HETATM   16  C10 UNL     1      10.773  -1.840  19.091  1.00  0.00     0.035 A 
HETATM   17  C11 UNL     1      11.858  -1.117  18.616  1.00  0.00     0.107 A 
HETATM   18  N4  UNL     1      12.673  -0.491  19.510  1.00  0.00    -0.202 N 
ATOM     19  H4  UNL     1      13.473   0.044  19.171  1.00  0.00     0.183 HD
ENDBRANCH   1  12
TORSDOF 4
ENDMDL
MODEL 3
REMARK VINA RESULT: -6.190777593      1.800      2.836
REMARK  4 active torsions:
REMARK  status: ('A' for Active; 'I' for Inactive)
REMARK    1  A    between atoms: C5_6  and  C6_7 
REMARK    2  A    between atoms: C6_7  and  C7_8 
REMARK    3  A    between atoms: C7_8  and  N2_9 
REMARK    4  A    between atoms: N2_9  and  C8_11 
ROOT
HETATM    1  N2  UNL     1      15.211   1.410  21.083  1.00  0.00    -0.226 N 
ATOM      2  H2  UNL     1      15.109   1.919  20.205  1.00  0.00     0.177 HD
ENDROOT
BRANCH   1   3
HETATM    3  C7  UNL     1      16.088   1.901  22.124  1.00  0.00     0.142 C 
BRANCH   3   4
HETATM    4  C6  UNL     1      15.458   3.028  22.908  1.00  0.00     0.058 C 
BRANCH   4   5
HETATM    5  C5  UNL     1      15.467   2.744  24.371  1.00  0.00    -0.055 A 
HETATM    6  C4  UNL     1      16.320   3.460  25.183  1.00  0.00     0.007 A 
HETATM    7  C3  UNL     1      16.290   3.161  26.530  1.00  0.00     0.002 A 
HETATM    8  C2  UNL     1      15.448   2.195  27.036  1.00  0.00     0.026 A 
HETATM    9  C1  UNL     1      14.588   1.474  26.218  1.00  0.00     0.046 A 
HETATM   10  N1  UNL     1      13.753   0.498  26.797  1.00  0.00    -0.102 NA
HETATM   11  C12 UNL     1      14.608   1.762  24.871  1.00  0.00     0.033 A 
ENDBRANCH   4   5
ENDBRANCH   3   4
ENDBRANCH   1   3
BRANCH   1  12
HETATM   12  C8  UNL     1      14.566   0.322  21.289  1.00  0.00     0.677 A 
HETATM   13  N3  UNL     1      15.210  -0.789  21.603  1.00  0.00    -0.202 N 
HETATM   14  C9  UNL     1      14.629  -1.975  21.836  1.00  0.00     0.107 A 
ATOM     15  H3  UNL     1      16.227  -0.740  21.672  1.00  0.00     0.183 HD
HETATM   16  C10 UNL     1      13.256  -2.035  21.741  1.00  0.00     0.035 A 
HETATM   17  C11 UNL     1      12.539  -0.894  21.414  1.00  0.00     0.107 A 
HETATM   18  N4  UNL     1      13.215   0.268  21.194  1.00  0.00    -0.202 N 
ATOM     19  H4  UNL     1      12.696   1.113  20.953  1.00  0.00     0.183 HD
ENDBRANCH   1  12
TORSDOF 4
ENDMDL
MODEL 4
REMARK VINA RESULT: -6.178307531      1.198      1.289
REMARK  4 active torsions:
REMARK  status: ('A' for Active; 'I' for Inactive)
REMARK    1  A    between atoms: C5_6  and  C6_7 
REMARK    2  A    between atoms: C6_7  and  C7_8 
REMARK    3  A    between atoms: C7_8  and  N2_9 
REMARK    4  A    between atoms: N2_9  and  C8_11 
ROOT
HETATM    1  N2  UNL     1      13.213   0.250  21.167  1.00  0.00    -0.226 N 
ATOM      2  H2  UNL     1      12.589   1.055  21.212  1.00  0.00     0.177 HD
ENDROOT
BRANCH   1   3
HETATM    3  C7  UNL     1      14.582   0.350  21.621  1.00  0.00     0.142 C 
BRANCH   3   4
HETATM    4  C6  UNL     1      15.113   1.760  21.510  1.00  0.00     0.058 C 
BRANCH   4   5
HETATM    5  C5  UNL     1      15.519   2.295  22.840  1.00  0.00    -0.055 A 
HETATM    6  C4  UNL     1      15.857   3.627  22.948  1.00  0.00     0.007 A 
HETATM    7  C3  UNL     1      16.225   4.074  24.200  1.00  0.00     0.002 A 
HETATM    8  C2  UNL     1      16.253   3.230  25.288  1.00  0.00     0.026 A 
HETATM    9  C1  UNL     1      15.912   1.888  25.181  1.00  0.00     0.046 A 
HETATM   10  N1  UNL     1      15.962   1.076  26.331  1.00  0.00    -0.102 NA
HETATM   11  C12 UNL     1      15.542   1.428  23.936  1.00  0.00     0.033 A 
ENDBRANCH   4   5
ENDBRANCH   3   4
ENDBRANCH   1   3
BRANCH   1  12
HETATM   12  C8  UNL     1      12.801  -0.873  20.706  1.00  0.00     0.677 A 
HETATM   13  N3  UNL     1      11.978  -0.910  19.672  1.00  0.00    -0.202 N 
HETATM   14  C9  UNL     1      11.492  -2.030  19.116  1.00  0.00     0.107 A 
ATOM     15  H3  UNL     1      11.692  -0.019  19.266  1.00  0.00     0.183 HD
HETATM   16  C10 UNL     1      11.882  -3.230  19.670  1.00  0.00     0.035 A 
HETATM   17  C11 UNL     1      12.744  -3.239  20.757  1.00  0.00     0.107 A 
HETATM   18  N4  UNL     1      13.188  -2.051  21.254  1.00  0.00    -0.202 N 
ATOM     19  H4  UNL     1      13.822  -2.047  22.053  1.00  0.00     0.183 HD
ENDBRANCH   1  12
TORSDOF 4
ENDMDL
MODEL 5
REMARK VINA RESULT: -6.143013899      1.204      1.240
REMARK  4 active torsions:
REMARK  status: ('A' for Active; 'I' for Inactive)
REMARK    1  A    between atoms: C5_6  and  C6_7 
REMARK    2  A    between atoms: C6_7  and  C7_8 
REMARK    3  A    between atoms: C7_8  and  N2_9 
REMARK    4  A    between atoms: N2_9  and  C8_11 
ROOT
HETATM    1  N2  UNL     1      12.471  -0.499  21.382  1.00  0.00    -0.226 N 
ATOM      2  H2  UNL     1      12.198  -0.271  22.338  1.00  0.00     0.177 HD
ENDROOT
BRANCH   1   3
HETATM    3  C7  UNL     1      13.762  -0.100  20.866  1.00  0.00     0.142 C 
BRANCH   3   4
HETATM    4  C6  UNL     1      14.858  -0.278  21.890  1.00  0.00     0.058 C 
BRANCH   4   5
HETATM    5  C5  UNL     1      15.123   0.989  22.629  1.00  0.00    -0.055 A 
HETATM    6  C4  UNL     1      15.686   2.050  21.952  1.00  0.00     0.007 A 
HETATM    7  C3  UNL     1      15.911   3.200  22.679  1.00  0.00     0.002 A 
HETATM    8  C2  UNL     1      15.589   3.283  24.016  1.00  0.00     0.026 A 
HETATM    9  C1  UNL     1      15.022   2.215  24.699  1.00  0.00     0.046 A 
HETATM   10  N1  UNL     1      14.717   2.363  26.066  1.00  0.00    -0.102 NA
HETATM   11  C12 UNL     1      14.792   1.060  23.984  1.00  0.00     0.033 A 
ENDBRANCH   4   5
ENDBRANCH   3   4
ENDBRANCH   1   3
BRANCH   1  12
HETATM   12  C8  UNL     1      11.677  -1.146  20.611  1.00  0.00     0.677 A 
HETATM   13  N3  UNL     1      12.145  -2.075  19.796  1.00  0.00    -0.202 N 
HETATM   14  C9  UNL     1      11.399  -2.806  18.953  1.00  0.00     0.107 A 
ATOM     15  H3  UNL     1      13.150  -2.251  19.809  1.00  0.00     0.183 HD
HETATM   16  C10 UNL     1      10.043  -2.564  18.940  1.00  0.00     0.035 A 
HETATM   17  C11 UNL     1       9.508  -1.597  19.778  1.00  0.00     0.107 A 
HETATM   18  N4  UNL     1      10.343  -0.904  20.601  1.00  0.00    -0.202 N 
ATOM     19  H4  UNL     1       9.958  -0.191  21.221  1.00  0.00     0.183 HD
ENDBRANCH   1  12
TORSDOF 4
ENDMDL
