MODEL 1
REMARK VINA RESULT: -6.717569015      0.000      0.000
REMARK  5 active torsions:
REMARK  status: ('A' for Active; 'I' for Inactive)
REMARK    1  A    between atoms: C3_4  and  S1_5 
REMARK    2  A    between atoms: S1_5  and  N2_6 
REMARK    3  A    between atoms: C4_11  and  N3_12 
REMARK       I    between atoms: N3_12  and  C5_14 
REMARK    4  A    between atoms: C5_14  and  C6_16 
REMARK    5  A    between atoms: C8_24  and  N8_25 
ROOT
HETATM    1  N1  UNL     1      36.414   7.709  23.392  1.00  0.00    -0.100 NA
HETATM    2  C1  UNL     1      36.443   6.294  23.348  1.00  0.00     0.081 A 
HETATM    3  C2  UNL     1      37.476   5.597  22.801  1.00  0.00     0.056 A 
HETATM    4  C3  UNL     1      37.531   4.220  22.744  1.00  0.00     0.107 A 
HETATM    5  C4  UNL     1      36.476   3.464  23.274  1.00  0.00     0.061 A 
HETATM    6  C7  UNL     1      35.432   4.153  23.827  1.00  0.00     0.069 A 
HETATM    7  C8  UNL     1      35.415   5.550  23.864  1.00  0.00     0.129 A 
ENDROOT
BRANCH   5   8
HETATM    8  N3  UNL     1      36.577   2.066  23.213  1.00  0.00    -0.319 N 
HETATM    9  C5  UNL     1      36.799   1.162  24.245  1.00  0.00     0.292 C 
HETATM   10  O3  UNL     1      36.943   1.534  25.422  1.00  0.00    -0.264 OA
ATOM     11  H3  UNL     1      36.473   1.658  22.284  1.00  0.00     0.169 HD
BRANCH   9  12
HETATM   12  C6  UNL     1      36.865  -0.290  23.915  1.00  0.00     0.200 C 
HETATM   13  N4  UNL     1      35.915  -1.043  23.482  1.00  0.00    -0.266 N 
HETATM   14  N5  UNL     1      36.372  -2.347  23.292  1.00  0.00    -0.007 NA
ATOM     15  H4  UNL     1      34.961  -0.730  23.302  1.00  0.00     0.185 HD
HETATM   16  N6  UNL     1      37.647  -2.462  23.853  1.00  0.00    -0.007 NA
HETATM   17  N7  UNL     1      38.011  -1.122  24.022  1.00  0.00    -0.266 N 
ATOM     18  H7  UNL     1      38.960  -0.791  24.197  1.00  0.00     0.185 HD
ENDBRANCH   9  12
ENDBRANCH   5   8
BRANCH   4  19
HETATM   19  S1  UNL     1      38.886   3.432  22.009  1.00  0.00     0.259 S 
HETATM   20  O1  UNL     1      38.456   2.397  21.021  1.00  0.00    -0.201 OA
HETATM   21  O2  UNL     1      39.636   2.682  23.105  1.00  0.00    -0.201 OA
BRANCH  19  22
HETATM   22  N2  UNL     1      40.043   4.530  21.347  1.00  0.00    -0.324 N 
ATOM     23  H22 UNL     1      40.059   5.520  21.590  1.00  0.00     0.169 HD
ATOM     24  H21 UNL     1      40.697   4.089  20.699  1.00  0.00     0.169 HD
ENDBRANCH  19  22
ENDBRANCH   4  19
BRANCH   7  25
HETATM   25  N8  UNL     1      34.294   6.175  24.455  1.00  0.00    -0.114 N 
HETATM   26  O4  UNL     1      34.250   6.363  25.672  1.00  0.00    -0.532 OA
HETATM   27  O5  UNL     1      33.262   6.564  23.638  1.00  0.00    -0.532 OA
ENDBRANCH   7  25
TORSDOF 5
ENDMDL
MODEL 2
REMARK VINA RESULT: -6.546992184      2.933      6.853
REMARK  5 active torsions:
REMARK  status: ('A' for Active; 'I' for Inactive)
REMARK    1  A    between atoms: C3_4  and  S1_5 
REMARK    2  A    between atoms: S1_5  and  N2_6 
REMARK    3  A    between atoms: C4_11  and  N3_12 
REMARK       I    between atoms: N3_12  and  C5_14 
REMARK    4  A    between atoms: C5_14  and  C6_16 
REMARK    5  A    between atoms: C8_24  and  N8_25 
ROOT
HETATM    1  N1  UNL     1      39.215  -3.990  23.553  1.00  0.00    -0.100 NA
HETATM    2  C1  UNL     1      38.577  -2.726  23.582  1.00  0.00     0.081 A 
HETATM    3  C2  UNL     1      39.255  -1.566  23.803  1.00  0.00     0.056 A 
HETATM    4  C3  UNL     1      38.661  -0.322  23.836  1.00  0.00     0.107 A 
HETATM    5  C4  UNL     1      37.278  -0.211  23.635  1.00  0.00     0.061 A 
HETATM    6  C7  UNL     1      36.585  -1.370  23.411  1.00  0.00     0.069 A 
HETATM    7  C8  UNL     1      37.226  -2.611  23.385  1.00  0.00     0.129 A 
ENDROOT
BRANCH   5   8
HETATM    8  N3  UNL     1      36.713   1.072  23.659  1.00  0.00    -0.319 N 
HETATM    9  C5  UNL     1      36.035   1.708  24.693  1.00  0.00     0.292 C 
HETATM   10  O3  UNL     1      35.847   1.156  25.790  1.00  0.00    -0.264 OA
ATOM     11  H3  UNL     1      36.813   1.614  22.800  1.00  0.00     0.169 HD
BRANCH   9  12
HETATM   12  C6  UNL     1      35.526   3.090  24.465  1.00  0.00     0.200 C 
HETATM   13  N4  UNL     1      35.074   3.918  25.342  1.00  0.00    -0.266 N 
HETATM   14  N5  UNL     1      34.693   5.114  24.735  1.00  0.00    -0.007 NA
ATOM     15  H4  UNL     1      35.005   3.725  26.341  1.00  0.00     0.185 HD
HETATM   16  N6  UNL     1      34.710   4.940  23.348  1.00  0.00    -0.007 NA
HETATM   17  N7  UNL     1      35.446   3.758  23.214  1.00  0.00    -0.266 N 
ATOM     18  H7  UNL     1      35.864   3.425  22.345  1.00  0.00     0.185 HD
ENDBRANCH   9  12
ENDBRANCH   5   8
BRANCH   4  19
HETATM   19  S1  UNL     1      39.613   1.090  24.143  1.00  0.00     0.259 S 
HETATM   20  O1  UNL     1      39.240   2.219  23.238  1.00  0.00    -0.201 OA
HETATM   21  O2  UNL     1      41.064   0.750  23.814  1.00  0.00    -0.201 OA
BRANCH  19  22
HETATM   22  N2  UNL     1      39.631   1.560  25.805  1.00  0.00    -0.324 N 
ATOM     23  H22 UNL     1      38.842   1.393  26.428  1.00  0.00     0.169 HD
ATOM     24  H21 UNL     1      40.499   2.014  26.089  1.00  0.00     0.169 HD
ENDBRANCH  19  22
ENDBRANCH   4  19
BRANCH   7  25
HETATM   25  N8  UNL     1      36.429  -3.754  23.148  1.00  0.00    -0.114 N 
HETATM   26  O4  UNL     1      35.545  -4.078  23.943  1.00  0.00    -0.532 OA
HETATM   27  O5  UNL     1      36.669  -4.488  22.014  1.00  0.00    -0.532 OA
ENDBRANCH   7  25
TORSDOF 5
ENDMDL
MODEL 3
REMARK VINA RESULT: -6.508637828      2.203      6.426
REMARK  5 active torsions:
REMARK  status: ('A' for Active; 'I' for Inactive)
REMARK    1  A    between atoms: C3_4  and  S1_5 
REMARK    2  A    between atoms: S1_5  and  N2_6 
REMARK    3  A    between atoms: C4_11  and  N3_12 
REMARK       I    between atoms: N3_12  and  C5_14 
REMARK    4  A    between atoms: C5_14  and  C6_16 
REMARK    5  A    between atoms: C8_24  and  N8_25 
ROOT
HETATM    1  N1  UNL     1      39.061  -2.892  22.830  1.00  0.00    -0.100 NA
HETATM    2  C1  UNL     1      38.505  -1.604  23.028  1.00  0.00     0.081 A 
HETATM    3  C2  UNL     1      39.206  -0.459  22.802  1.00  0.00     0.056 A 
HETATM    4  C3  UNL     1      38.691   0.807  22.986  1.00  0.00     0.107 A 
HETATM    5  C4  UNL     1      37.370   0.958  23.430  1.00  0.00     0.061 A 
HETATM    6  C7  UNL     1      36.655  -0.186  23.660  1.00  0.00     0.069 A 
HETATM    7  C8  UNL     1      37.215  -1.450  23.462  1.00  0.00     0.129 A 
ENDROOT
BRANCH   5   8
HETATM    8  N3  UNL     1      36.877   2.262  23.588  1.00  0.00    -0.319 N 
HETATM    9  C5  UNL     1      36.227   2.822  24.682  1.00  0.00     0.292 C 
HETATM   10  O3  UNL     1      36.000   2.169  25.714  1.00  0.00    -0.264 OA
ATOM     11  H3  UNL     1      37.013   2.883  22.791  1.00  0.00     0.169 HD
BRANCH   9  12
HETATM   12  C6  UNL     1      35.797   4.247  24.599  1.00  0.00     0.200 C 
HETATM   13  N4  UNL     1      36.445   5.238  24.094  1.00  0.00    -0.266 N 
HETATM   14  N5  UNL     1      35.707   6.415  24.207  1.00  0.00    -0.007 NA
ATOM     15  H4  UNL     1      37.371   5.171  23.670  1.00  0.00     0.185 HD
HETATM   16  N6  UNL     1      34.606   6.177  25.036  1.00  0.00    -0.007 NA
HETATM   17  N7  UNL     1      34.568   4.779  25.072  1.00  0.00    -0.266 N 
ATOM     18  H7  UNL     1      33.774   4.224  25.392  1.00  0.00     0.185 HD
ENDBRANCH   9  12
ENDBRANCH   5   8
BRANCH   4  19
HETATM   19  S1  UNL     1      39.675   2.199  22.686  1.00  0.00     0.259 S 
HETATM   20  O1  UNL     1      39.794   3.066  23.898  1.00  0.00    -0.201 OA
HETATM   21  O2  UNL     1      38.970   3.046  21.631  1.00  0.00    -0.201 OA
BRANCH  19  22
HETATM   22  N2  UNL     1      41.213   1.819  21.999  1.00  0.00    -0.324 N 
ATOM     23  H22 UNL     1      41.949   1.355  22.530  1.00  0.00     0.169 HD
ATOM     24  H21 UNL     1      41.303   2.103  21.023  1.00  0.00     0.169 HD
ENDBRANCH  19  22
ENDBRANCH   4  19
BRANCH   7  25
HETATM   25  N8  UNL     1      36.401  -2.575  23.726  1.00  0.00    -0.114 N 
HETATM   26  O4  UNL     1      35.573  -2.958  22.897  1.00  0.00    -0.532 OA
HETATM   27  O5  UNL     1      36.558  -3.222  24.926  1.00  0.00    -0.532 OA
ENDBRANCH   7  25
TORSDOF 5
ENDMDL
MODEL 4
REMARK VINA RESULT: -6.470130118      2.327      6.374
REMARK  5 active torsions:
REMARK  status: ('A' for Active; 'I' for Inactive)
REMARK    1  A    between atoms: C3_4  and  S1_5 
REMARK    2  A    between atoms: S1_5  and  N2_6 
REMARK    3  A    between atoms: C4_11  and  N3_12 
REMARK       I    between atoms: N3_12  and  C5_14 
REMARK    4  A    between atoms: C5_14  and  C6_16 
REMARK    5  A    between atoms: C8_24  and  N8_25 
ROOT
HETATM    1  N1  UNL     1      39.008  -2.850  22.807  1.00  0.00    -0.100 NA
HETATM    2  C1  UNL     1      38.347  -1.613  23.007  1.00  0.00     0.081 A 
HETATM    3  C2  UNL     1      38.907  -0.418  22.671  1.00  0.00     0.056 A 
HETATM    4  C3  UNL     1      38.287   0.800  22.854  1.00  0.00     0.107 A 
HETATM    5  C4  UNL     1      37.004   0.845  23.416  1.00  0.00     0.061 A 
HETATM    6  C7  UNL     1      36.430  -0.349  23.756  1.00  0.00     0.069 A 
HETATM    7  C8  UNL     1      37.093  -1.563  23.555  1.00  0.00     0.129 A 
ENDROOT
BRANCH   5   8
HETATM    8  N3  UNL     1      36.400   2.102  23.570  1.00  0.00    -0.319 N 
HETATM    9  C5  UNL     1      35.807   2.652  24.699  1.00  0.00     0.292 C 
HETATM   10  O3  UNL     1      35.748   2.034  25.776  1.00  0.00    -0.264 OA
ATOM     11  H3  UNL     1      36.394   2.692  22.738  1.00  0.00     0.169 HD
BRANCH   9  12
HETATM   12  C6  UNL     1      35.229   4.023  24.603  1.00  0.00     0.200 C 
HETATM   13  N4  UNL     1      34.964   4.836  25.566  1.00  0.00    -0.266 N 
HETATM   14  N5  UNL     1      34.432   6.025  25.070  1.00  0.00    -0.007 NA
ATOM     15  H4  UNL     1      35.123   4.637  26.554  1.00  0.00     0.185 HD
HETATM   16  N6  UNL     1      34.145   5.857  23.712  1.00  0.00    -0.007 NA
HETATM   17  N7  UNL     1      34.859   4.694  23.407  1.00  0.00    -0.266 N 
ATOM     18  H7  UNL     1      35.081   4.374  22.464  1.00  0.00     0.185 HD
ENDBRANCH   9  12
ENDBRANCH   5   8
BRANCH   4  19
HETATM   19  S1  UNL     1      39.097   2.264  22.409  1.00  0.00     0.259 S 
HETATM   20  O1  UNL     1      39.220   3.203  23.564  1.00  0.00    -0.201 OA
HETATM   21  O2  UNL     1      38.228   2.978  21.378  1.00  0.00    -0.201 OA
BRANCH  19  22
HETATM   22  N2  UNL     1      40.607   2.000  21.614  1.00  0.00    -0.324 N 
ATOM     23  H22 UNL     1      41.499   2.046  22.106  1.00  0.00     0.169 HD
ATOM     24  H21 UNL     1      40.512   1.797  20.618  1.00  0.00     0.169 HD
ENDBRANCH  19  22
ENDBRANCH   4  19
BRANCH   7  25
HETATM   25  N8  UNL     1      36.422  -2.746  23.938  1.00  0.00    -0.114 N 
HETATM   26  O4  UNL     1      36.676  -3.290  25.014  1.00  0.00    -0.532 OA
HETATM   27  O5  UNL     1      35.485  -3.267  23.081  1.00  0.00    -0.532 OA
ENDBRANCH   7  25
TORSDOF 5
ENDMDL
MODEL 5
REMARK VINA RESULT: -6.252402131      2.103      6.157
REMARK  5 active torsions:
REMARK  status: ('A' for Active; 'I' for Inactive)
REMARK    1  A    between atoms: C3_4  and  S1_5 
REMARK    2  A    between atoms: S1_5  and  N2_6 
REMARK    3  A    between atoms: C4_11  and  N3_12 
REMARK       I    between atoms: N3_12  and  C5_14 
REMARK    4  A    between atoms: C5_14  and  C6_16 
REMARK    5  A    between atoms: C8_24  and  N8_25 
ROOT
HETATM    1  N1  UNL     1      39.735   0.001  23.198  1.00  0.00    -0.100 NA
HETATM    2  C1  UNL     1      38.841   1.096  23.273  1.00  0.00     0.081 A 
HETATM    3  C2  UNL     1      39.237   2.383  23.067  1.00  0.00     0.056 A 
HETATM    4  C3  UNL     1      38.390   3.469  23.134  1.00  0.00     0.107 A 
HETATM    5  C4  UNL     1      37.034   3.270  23.429  1.00  0.00     0.061 A 
HETATM    6  C7  UNL     1      36.623   1.982  23.637  1.00  0.00     0.069 A 
HETATM    7  C8  UNL     1      37.515   0.909  23.561  1.00  0.00     0.129 A 
ENDROOT
BRANCH   5   8
HETATM    8  N3  UNL     1      36.200   4.398  23.470  1.00  0.00    -0.319 N 
HETATM    9  C5  UNL     1      35.298   4.780  24.456  1.00  0.00     0.292 C 
HETATM   10  O3  UNL     1      35.126   4.104  25.485  1.00  0.00    -0.264 OA
ATOM     11  H3  UNL     1      36.265   5.023  22.667  1.00  0.00     0.169 HD
BRANCH   9  12
HETATM   12  C6  UNL     1      34.522   6.038  24.261  1.00  0.00     0.200 C 
HETATM   13  N4  UNL     1      34.489   6.788  23.215  1.00  0.00    -0.266 N 
HETATM   14  N5  UNL     1      33.643   7.878  23.421  1.00  0.00    -0.007 NA
ATOM     15  H4  UNL     1      35.009   6.611  22.356  1.00  0.00     0.185 HD
HETATM   16  N6  UNL     1      33.290   7.922  24.773  1.00  0.00    -0.007 NA
HETATM   17  N7  UNL     1      33.662   6.647  25.212  1.00  0.00    -0.266 N 
ATOM     18  H7  UNL     1      33.359   6.218  26.087  1.00  0.00     0.185 HD
ENDBRANCH   9  12
ENDBRANCH   5   8
BRANCH   4  19
HETATM   19  S1  UNL     1      39.001   5.067  22.872  1.00  0.00     0.259 S 
HETATM   20  O1  UNL     1      38.441   6.043  23.856  1.00  0.00    -0.201 OA
HETATM   21  O2  UNL     1      38.517   5.528  21.501  1.00  0.00    -0.201 OA
BRANCH  19  22
HETATM   22  N2  UNL     1      40.724   5.139  22.785  1.00  0.00    -0.324 N 
ATOM     23  H22 UNL     1      41.258   5.921  23.161  1.00  0.00     0.169 HD
ATOM     24  H21 UNL     1      41.141   4.329  22.325  1.00  0.00     0.169 HD
ENDBRANCH  19  22
ENDBRANCH   4  19
BRANCH   7  25
HETATM   25  N8  UNL     1      37.000  -0.387  23.792  1.00  0.00    -0.114 N 
HETATM   26  O4  UNL     1      36.503  -0.679  24.881  1.00  0.00    -0.532 OA
HETATM   27  O5  UNL     1      37.072  -1.304  22.774  1.00  0.00    -0.532 OA
ENDBRANCH   7  25
TORSDOF 5
ENDMDL
