MODEL 1
REMARK VINA RESULT: -7.196455255      0.000      0.000
REMARK  10 active torsions:
REMARK  status: ('A' for Active; 'I' for Inactive)
REMARK    1  A    between atoms: C2_2  and  C3_3 
REMARK    2  A    between atoms: C3_3  and  C4_4 
REMARK    3  A    between atoms: C4_4  and  N1_5 
REMARK       I    between atoms: N1_5  and  C5_7 
REMARK    4  A    between atoms: C5_7  and  C6_9 
REMARK    5  A    between atoms: N2_14  and  C11_15 
REMARK    6  A    between atoms: C11_15  and  C12_16 
REMARK    7  A    between atoms: C12_16  and  O2_17 
REMARK    8  A    between atoms: C12_16  and  C13_19 
REMARK    9  A    between atoms: C13_19  and  N3_20 
REMARK       I    between atoms: N3_20  and  C14_22 
REMARK   10  A    between atoms: C17_29  and  C18_30 
ROOT
HETATM    1  C4  UNL     1      -0.318  20.165  18.295  1.00  0.00     0.131 C 
HETATM    2  C10 UNL     1      -1.253  19.381  19.186  1.00  0.00     0.113 C 
HETATM    3  N2  UNL     1      -0.640  18.377  19.951  1.00  0.00    -0.288 N 
HETATM    4  C16 UNL     1       0.246  18.712  20.949  1.00  0.00     0.326 C 
HETATM    5  O4  UNL     1       0.321  17.960  21.989  1.00  0.00    -0.246 OA
HETATM    6  N4  UNL     1       1.154  19.798  21.063  1.00  0.00    -0.330 N 
ATOM      7  H4  UNL     1       1.440  20.061  22.006  1.00  0.00     0.165 HD
HETATM    8  C17 UNL     1       1.715  20.571  19.972  1.00  0.00     0.167 C 
HETATM    9  C28 UNL     1       0.587  21.018  19.170  1.00  0.00     0.183 C 
HETATM   10  O5  UNL     1       0.243  22.156  19.119  1.00  0.00    -0.292 OA
ENDROOT
BRANCH   1  11
HETATM   11  C3  UNL     1       0.614  19.278  17.560  1.00  0.00     0.071 C 
BRANCH  11  12
HETATM   12  C2  UNL     1       1.305  19.773  16.386  1.00  0.00    -0.034 C 
HETATM   13  C1  UNL     1       2.474  20.369  16.282  1.00  0.00     0.007 C 
ENDBRANCH  11  12
ENDBRANCH   1  11
BRANCH   1  14
HETATM   14  N1  UNL     1      -1.120  21.017  17.480  1.00  0.00    -0.339 N 
HETATM   15  C5  UNL     1      -2.128  20.657  16.591  1.00  0.00     0.226 C 
HETATM   16  O1  UNL     1      -2.435  19.457  16.431  1.00  0.00    -0.273 OA
ATOM     17  H1  UNL     1      -0.931  22.017  17.558  1.00  0.00     0.164 HD
BRANCH  15  18
HETATM   18  C6  UNL     1      -2.865  21.670  15.812  1.00  0.00     0.030 C 
HETATM   19  C7  UNL     1      -2.899  23.019  16.527  1.00  0.00     0.024 C 
HETATM   20  C8  UNL     1      -4.296  21.283  15.553  1.00  0.00     0.024 C 
HETATM   21  C9  UNL     1      -2.219  21.927  14.463  1.00  0.00     0.024 C 
ENDBRANCH  15  18
ENDBRANCH   1  14
BRANCH   3  22
HETATM   22  C11 UNL     1      -1.162  17.076  19.920  1.00  0.00     0.107 C 
BRANCH  22  23
HETATM   23  C12 UNL     1      -0.815  16.279  18.688  1.00  0.00     0.175 C 
BRANCH  23  24
HETATM   24  O2  UNL     1      -0.077  15.138  18.997  1.00  0.00    -0.389 OA
ATOM     25  H2  UNL     1       0.839  15.232  18.762  1.00  0.00     0.210 HD
ENDBRANCH  23  24
BRANCH  23  26
HETATM   26  C13 UNL     1      -2.074  15.801  18.002  1.00  0.00     0.159 C 
BRANCH  26  27
HETATM   27  N3  UNL     1      -1.864  15.256  16.700  1.00  0.00    -0.359 N 
HETATM   28  C14 UNL     1      -1.691  13.883  16.496  1.00  0.00     0.213 C 
HETATM   29  C15 UNL     1      -1.470  13.369  15.103  1.00  0.00     0.117 C 
HETATM   30  O3  UNL     1      -1.710  13.042  17.429  1.00  0.00    -0.274 OA
ATOM     31  H3  UNL     1      -1.840  15.885  15.897  1.00  0.00     0.162 HD
ENDBRANCH  26  27
ENDBRANCH  23  26
ENDBRANCH  22  23
ENDBRANCH   3  22
BRANCH   8  32
HETATM   32  C18 UNL     1       2.677  21.579  20.453  1.00  0.00    -0.012 C 
HETATM   33  C19 UNL     1       3.196  22.503  19.371  1.00  0.00     0.016 C 
HETATM   34  C20 UNL     1       4.363  23.342  19.842  1.00  0.00    -0.013 C 
HETATM   35  C21 UNL     1       3.779  24.298  20.884  1.00  0.00     0.009 C 
HETATM   36  C25 UNL     1       5.490  22.530  20.401  1.00  0.00     0.009 C 
HETATM   37  C22 UNL     1       3.248  23.470  21.989  1.00  0.00    -0.013 C 
HETATM   38  C23 UNL     1       4.403  22.688  22.605  1.00  0.00     0.009 C 
HETATM   39  C27 UNL     1       2.205  22.454  21.587  1.00  0.00     0.016 C 
HETATM   40  C24 UNL     1       4.920  21.743  21.571  1.00  0.00    -0.013 C 
HETATM   41  C26 UNL     1       3.876  20.829  20.996  1.00  0.00     0.016 C 
ENDBRANCH   8  32
TORSDOF 10
ENDMDL
MODEL 2
REMARK VINA RESULT: -7.156166931      3.057      4.466
REMARK  10 active torsions:
REMARK  status: ('A' for Active; 'I' for Inactive)
REMARK    1  A    between atoms: C2_2  and  C3_3 
REMARK    2  A    between atoms: C3_3  and  C4_4 
REMARK    3  A    between atoms: C4_4  and  N1_5 
REMARK       I    between atoms: N1_5  and  C5_7 
REMARK    4  A    between atoms: C5_7  and  C6_9 
REMARK    5  A    between atoms: N2_14  and  C11_15 
REMARK    6  A    between atoms: C11_15  and  C12_16 
REMARK    7  A    between atoms: C12_16  and  O2_17 
REMARK    8  A    between atoms: C12_16  and  C13_19 
REMARK    9  A    between atoms: C13_19  and  N3_20 
REMARK       I    between atoms: N3_20  and  C14_22 
REMARK   10  A    between atoms: C17_29  and  C18_30 
ROOT
HETATM    1  C4  UNL     1       0.532  19.911  20.315  1.00  0.00     0.131 C 
HETATM    2  C10 UNL     1      -0.578  19.195  19.580  1.00  0.00     0.113 C 
HETATM    3  N2  UNL     1      -0.760  17.852  19.945  1.00  0.00    -0.288 N 
HETATM    4  C16 UNL     1      -1.207  17.532  21.205  1.00  0.00     0.326 C 
HETATM    5  O4  UNL     1      -1.935  16.484  21.358  1.00  0.00    -0.246 OA
HETATM    6  N4  UNL     1      -1.010  18.178  22.456  1.00  0.00    -0.330 N 
ATOM      7  H4  UNL     1      -1.704  17.997  23.181  1.00  0.00     0.165 HD
HETATM    8  C17 UNL     1       0.080  19.068  22.804  1.00  0.00     0.167 C 
HETATM    9  C28 UNL     1       0.118  20.087  21.767  1.00  0.00     0.183 C 
HETATM   10  O5  UNL     1      -0.190  21.220  21.965  1.00  0.00    -0.292 OA
ENDROOT
BRANCH   1  11
HETATM   11  C3  UNL     1       1.764  19.092  20.382  1.00  0.00     0.071 C 
BRANCH  11  12
HETATM   12  C2  UNL     1       3.061  19.732  20.281  1.00  0.00    -0.034 C 
HETATM   13  C1  UNL     1       3.665  20.555  21.112  1.00  0.00     0.007 C 
ENDBRANCH  11  12
ENDBRANCH   1  11
BRANCH   1  14
HETATM   14  N1  UNL     1       0.683  21.194  19.711  1.00  0.00    -0.339 N 
HETATM   15  C5  UNL     1       0.866  21.495  18.366  1.00  0.00     0.226 C 
HETATM   16  O1  UNL     1       0.910  20.585  17.511  1.00  0.00    -0.273 OA
ATOM     17  H1  UNL     1       0.654  21.992  20.347  1.00  0.00     0.164 HD
BRANCH  15  18
HETATM   18  C6  UNL     1       1.014  22.888  17.902  1.00  0.00     0.030 C 
HETATM   19  C7  UNL     1       0.319  23.873  18.839  1.00  0.00     0.024 C 
HETATM   20  C8  UNL     1       0.434  23.114  16.532  1.00  0.00     0.024 C 
HETATM   21  C9  UNL     1       2.469  23.315  17.849  1.00  0.00     0.024 C 
ENDBRANCH  15  18
ENDBRANCH   1  14
BRANCH   3  22
HETATM   22  C11 UNL     1      -0.798  16.869  18.946  1.00  0.00     0.107 C 
BRANCH  22  23
HETATM   23  C12 UNL     1      -1.555  17.253  17.700  1.00  0.00     0.175 C 
BRANCH  23  24
HETATM   24  O2  UNL     1      -0.716  17.362  16.593  1.00  0.00    -0.389 OA
ATOM     25  H2  UNL     1      -1.055  17.972  15.948  1.00  0.00     0.210 HD
ENDBRANCH  23  24
BRANCH  23  26
HETATM   26  C13 UNL     1      -2.576  16.192  17.360  1.00  0.00     0.159 C 
BRANCH  26  27
HETATM   27  N3  UNL     1      -2.257  15.417  16.205  1.00  0.00    -0.359 N 
HETATM   28  C14 UNL     1      -1.885  14.072  16.301  1.00  0.00     0.213 C 
HETATM   29  C15 UNL     1      -1.557  13.309  15.051  1.00  0.00     0.117 C 
HETATM   30  O3  UNL     1      -1.808  13.456  17.394  1.00  0.00    -0.274 OA
ATOM     31  H3  UNL     1      -2.301  15.855  15.285  1.00  0.00     0.162 HD
ENDBRANCH  26  27
ENDBRANCH  23  26
ENDBRANCH  22  23
ENDBRANCH   3  22
BRANCH   8  32
HETATM   32  C18 UNL     1       0.006  19.500  24.211  1.00  0.00    -0.012 C 
HETATM   33  C19 UNL     1       1.247  20.214  24.704  1.00  0.00     0.016 C 
HETATM   34  C20 UNL     1       1.242  20.408  26.204  1.00  0.00    -0.013 C 
HETATM   35  C21 UNL     1       0.118  21.408  26.479  1.00  0.00     0.009 C 
HETATM   36  C25 UNL     1       1.053  19.133  26.966  1.00  0.00     0.009 C 
HETATM   37  C22 UNL     1      -1.145  20.782  26.026  1.00  0.00    -0.013 C 
HETATM   38  C23 UNL     1      -1.376  19.516  26.843  1.00  0.00     0.009 C 
HETATM   39  C27 UNL     1      -1.172  20.369  24.574  1.00  0.00     0.016 C 
HETATM   40  C24 UNL     1      -0.281  18.554  26.520  1.00  0.00    -0.013 C 
HETATM   41  C26 UNL     1      -0.141  18.251  25.056  1.00  0.00     0.016 C 
ENDBRANCH   8  32
TORSDOF 10
ENDMDL
MODEL 3
REMARK VINA RESULT: -7.049711070      0.436      1.183
REMARK  10 active torsions:
REMARK  status: ('A' for Active; 'I' for Inactive)
REMARK    1  A    between atoms: C2_2  and  C3_3 
REMARK    2  A    between atoms: C3_3  and  C4_4 
REMARK    3  A    between atoms: C4_4  and  N1_5 
REMARK       I    between atoms: N1_5  and  C5_7 
REMARK    4  A    between atoms: C5_7  and  C6_9 
REMARK    5  A    between atoms: N2_14  and  C11_15 
REMARK    6  A    between atoms: C11_15  and  C12_16 
REMARK    7  A    between atoms: C12_16  and  O2_17 
REMARK    8  A    between atoms: C12_16  and  C13_19 
REMARK    9  A    between atoms: C13_19  and  N3_20 
REMARK       I    between atoms: N3_20  and  C14_22 
REMARK   10  A    between atoms: C17_29  and  C18_30 
ROOT
HETATM    1  C4  UNL     1      -0.113  20.208  18.293  1.00  0.00     0.131 C 
HETATM    2  C10 UNL     1      -1.120  19.475  19.149  1.00  0.00     0.113 C 
HETATM    3  N2  UNL     1      -0.585  18.452  19.948  1.00  0.00    -0.288 N 
HETATM    4  C16 UNL     1       0.271  18.757  20.980  1.00  0.00     0.326 C 
HETATM    5  O4  UNL     1       0.269  18.013  22.028  1.00  0.00    -0.246 OA
HETATM    6  N4  UNL     1       1.221  19.803  21.124  1.00  0.00    -0.330 N 
ATOM      7  H4  UNL     1       1.479  20.062  22.076  1.00  0.00     0.165 HD
HETATM    8  C17 UNL     1       1.862  20.540  20.053  1.00  0.00     0.167 C 
HETATM    9  C28 UNL     1       0.790  21.028  19.200  1.00  0.00     0.183 C 
HETATM   10  O5  UNL     1       0.499  22.180  19.125  1.00  0.00    -0.292 OA
ENDROOT
BRANCH   1  11
HETATM   11  C3  UNL     1       0.808  19.274  17.605  1.00  0.00     0.071 C 
BRANCH  11  12
HETATM   12  C2  UNL     1       1.470  19.683  16.382  1.00  0.00    -0.034 C 
HETATM   13  C1  UNL     1       2.518  20.459  16.207  1.00  0.00     0.007 C 
ENDBRANCH  11  12
ENDBRANCH   1  11
BRANCH   1  14
HETATM   14  N1  UNL     1      -0.842  21.086  17.437  1.00  0.00    -0.339 N 
HETATM   15  C5  UNL     1      -1.876  20.772  16.562  1.00  0.00     0.226 C 
HETATM   16  O1  UNL     1      -2.283  19.596  16.455  1.00  0.00    -0.273 OA
ATOM     17  H1  UNL     1      -0.570  22.069  17.471  1.00  0.00     0.164 HD
BRANCH  15  18
HETATM   18  C6  UNL     1      -2.526  21.807  15.736  1.00  0.00     0.030 C 
HETATM   19  C7  UNL     1      -1.785  22.026  14.418  1.00  0.00     0.024 C 
HETATM   20  C8  UNL     1      -2.594  23.146  16.419  1.00  0.00     0.024 C 
HETATM   21  C9  UNL     1      -3.945  21.423  15.360  1.00  0.00     0.024 C 
ENDBRANCH  15  18
ENDBRANCH   1  14
BRANCH   3  22
HETATM   22  C11 UNL     1      -1.162  17.175  19.904  1.00  0.00     0.107 C 
BRANCH  22  23
HETATM   23  C12 UNL     1      -0.811  16.357  18.688  1.00  0.00     0.175 C 
BRANCH  23  24
HETATM   24  O2  UNL     1      -0.051  15.235  19.017  1.00  0.00    -0.389 OA
ATOM     25  H2  UNL     1       0.329  14.825  18.248  1.00  0.00     0.210 HD
ENDBRANCH  23  24
BRANCH  23  26
HETATM   26  C13 UNL     1      -2.066  15.842  18.022  1.00  0.00     0.159 C 
BRANCH  26  27
HETATM   27  N3  UNL     1      -1.859  15.291  16.722  1.00  0.00    -0.359 N 
HETATM   28  C14 UNL     1      -1.703  13.915  16.523  1.00  0.00     0.213 C 
HETATM   29  C15 UNL     1      -1.485  13.394  15.133  1.00  0.00     0.117 C 
HETATM   30  O3  UNL     1      -1.735  13.077  17.459  1.00  0.00    -0.274 OA
ATOM     31  H3  UNL     1      -1.825  15.916  15.918  1.00  0.00     0.162 HD
ENDBRANCH  26  27
ENDBRANCH  23  26
ENDBRANCH  22  23
ENDBRANCH   3  22
BRANCH   8  32
HETATM   32  C18 UNL     1       2.847  21.509  20.567  1.00  0.00    -0.012 C 
HETATM   33  C19 UNL     1       2.253  22.851  20.945  1.00  0.00     0.016 C 
HETATM   34  C20 UNL     1       3.315  23.893  21.216  1.00  0.00    -0.013 C 
HETATM   35  C21 UNL     1       4.015  23.434  22.496  1.00  0.00     0.009 C 
HETATM   36  C25 UNL     1       4.280  24.065  20.083  1.00  0.00     0.009 C 
HETATM   37  C22 UNL     1       4.632  22.120  22.210  1.00  0.00    -0.013 C 
HETATM   38  C23 UNL     1       5.662  22.299  21.102  1.00  0.00     0.009 C 
HETATM   39  C27 UNL     1       3.675  21.050  21.740  1.00  0.00     0.016 C 
HETATM   40  C24 UNL     1       4.937  22.711  19.863  1.00  0.00    -0.013 C 
HETATM   41  C26 UNL     1       3.839  21.772  19.452  1.00  0.00     0.016 C 
ENDBRANCH   8  32
TORSDOF 10
ENDMDL
MODEL 4
REMARK VINA RESULT: -6.886998174      0.934      1.065
REMARK  10 active torsions:
REMARK  status: ('A' for Active; 'I' for Inactive)
REMARK    1  A    between atoms: C2_2  and  C3_3 
REMARK    2  A    between atoms: C3_3  and  C4_4 
REMARK    3  A    between atoms: C4_4  and  N1_5 
REMARK       I    between atoms: N1_5  and  C5_7 
REMARK    4  A    between atoms: C5_7  and  C6_9 
REMARK    5  A    between atoms: N2_14  and  C11_15 
REMARK    6  A    between atoms: C11_15  and  C12_16 
REMARK    7  A    between atoms: C12_16  and  O2_17 
REMARK    8  A    between atoms: C12_16  and  C13_19 
REMARK    9  A    between atoms: C13_19  and  N3_20 
REMARK       I    between atoms: N3_20  and  C14_22 
REMARK   10  A    between atoms: C17_29  and  C18_30 
ROOT
HETATM    1  C4  UNL     1       0.331  20.578  17.800  1.00  0.00     0.131 C 
HETATM    2  C10 UNL     1      -0.679  19.700  18.502  1.00  0.00     0.113 C 
HETATM    3  N2  UNL     1      -0.136  18.599  19.183  1.00  0.00    -0.288 N 
HETATM    4  C16 UNL     1       0.662  18.793  20.286  1.00  0.00     0.326 C 
HETATM    5  O4  UNL     1       0.646  17.916  21.225  1.00  0.00    -0.246 OA
HETATM    6  N4  UNL     1       1.560  19.845  20.614  1.00  0.00    -0.330 N 
ATOM      7  H4  UNL     1       1.765  19.982  21.603  1.00  0.00     0.165 HD
HETATM    8  C17 UNL     1       2.214  20.742  19.681  1.00  0.00     0.167 C 
HETATM    9  C28 UNL     1       1.160  21.301  18.851  1.00  0.00     0.183 C 
HETATM   10  O5  UNL     1       0.824  22.441  18.916  1.00  0.00    -0.292 OA
ENDROOT
BRANCH   1  11
HETATM   11  C3  UNL     1       1.320  19.779  17.040  1.00  0.00     0.071 C 
BRANCH  11  12
HETATM   12  C2  UNL     1       2.018  20.375  15.918  1.00  0.00    -0.034 C 
HETATM   13  C1  UNL     1       3.290  20.687  15.784  1.00  0.00     0.007 C 
ENDBRANCH  11  12
ENDBRANCH   1  11
BRANCH   1  14
HETATM   14  N1  UNL     1      -0.397  21.537  17.036  1.00  0.00    -0.339 N 
HETATM   15  C5  UNL     1      -1.481  21.320  16.193  1.00  0.00     0.226 C 
HETATM   16  O1  UNL     1      -1.942  20.170  16.033  1.00  0.00    -0.273 OA
ATOM     17  H1  UNL     1      -0.082  22.504  17.117  1.00  0.00     0.164 HD
BRANCH  15  18
HETATM   18  C6  UNL     1      -2.123  22.429  15.462  1.00  0.00     0.030 C 
HETATM   19  C7  UNL     1      -1.426  23.762  15.732  1.00  0.00     0.024 C 
HETATM   20  C8  UNL     1      -3.569  22.617  15.833  1.00  0.00     0.024 C 
HETATM   21  C9  UNL     1      -2.068  22.225  13.960  1.00  0.00     0.024 C 
ENDBRANCH  15  18
ENDBRANCH   1  14
BRANCH   3  22
HETATM   22  C11 UNL     1      -0.656  17.320  18.943  1.00  0.00     0.107 C 
BRANCH  22  23
HETATM   23  C12 UNL     1      -1.578  17.219  17.754  1.00  0.00     0.175 C 
BRANCH  23  24
HETATM   24  O2  UNL     1      -0.893  17.366  16.549  1.00  0.00    -0.389 OA
ATOM     25  H2  UNL     1      -1.434  17.767  15.879  1.00  0.00     0.210 HD
ENDBRANCH  23  24
BRANCH  23  26
HETATM   26  C13 UNL     1      -2.229  15.856  17.711  1.00  0.00     0.159 C 
BRANCH  26  27
HETATM   27  N3  UNL     1      -2.115  15.188  16.455  1.00  0.00    -0.359 N 
HETATM   28  C14 UNL     1      -1.677  13.863  16.364  1.00  0.00     0.213 C 
HETATM   29  C15 UNL     1      -1.574  13.214  15.014  1.00  0.00     0.117 C 
HETATM   30  O3  UNL     1      -1.359  13.173  17.365  1.00  0.00    -0.274 OA
ATOM     31  H3  UNL     1      -2.361  15.690  15.603  1.00  0.00     0.162 HD
ENDBRANCH  26  27
ENDBRANCH  23  26
ENDBRANCH  22  23
ENDBRANCH   3  22
BRANCH   8  32
HETATM   32  C18 UNL     1       3.134  21.668  20.366  1.00  0.00    -0.012 C 
HETATM   33  C19 UNL     1       4.277  22.155  19.500  1.00  0.00     0.016 C 
HETATM   34  C20 UNL     1       5.334  22.885  20.300  1.00  0.00    -0.013 C 
HETATM   35  C21 UNL     1       4.663  24.176  20.773  1.00  0.00     0.009 C 
HETATM   36  C25 UNL     1       5.870  22.083  21.445  1.00  0.00     0.009 C 
HETATM   37  C22 UNL     1       3.527  23.787  21.637  1.00  0.00    -0.013 C 
HETATM   38  C23 UNL     1       4.072  23.025  22.839  1.00  0.00     0.009 C 
HETATM   39  C27 UNL     1       2.502  22.889  20.986  1.00  0.00     0.016 C 
HETATM   40  C24 UNL     1       4.684  21.758  22.340  1.00  0.00    -0.013 C 
HETATM   41  C26 UNL     1       3.756  20.908  21.520  1.00  0.00     0.016 C 
ENDBRANCH   8  32
TORSDOF 10
ENDMDL
MODEL 5
REMARK VINA RESULT: -6.721129677      3.395      5.037
REMARK  10 active torsions:
REMARK  status: ('A' for Active; 'I' for Inactive)
REMARK    1  A    between atoms: C2_2  and  C3_3 
REMARK    2  A    between atoms: C3_3  and  C4_4 
REMARK    3  A    between atoms: C4_4  and  N1_5 
REMARK       I    between atoms: N1_5  and  C5_7 
REMARK    4  A    between atoms: C5_7  and  C6_9 
REMARK    5  A    between atoms: N2_14  and  C11_15 
REMARK    6  A    between atoms: C11_15  and  C12_16 
REMARK    7  A    between atoms: C12_16  and  O2_17 
REMARK    8  A    between atoms: C12_16  and  C13_19 
REMARK    9  A    between atoms: C13_19  and  N3_20 
REMARK       I    between atoms: N3_20  and  C14_22 
REMARK   10  A    between atoms: C17_29  and  C18_30 
ROOT
HETATM    1  C4  UNL     1       0.744  20.808  20.945  1.00  0.00     0.131 C 
HETATM    2  C10 UNL     1      -0.244  20.123  20.029  1.00  0.00     0.113 C 
HETATM    3  N2  UNL     1      -0.335  18.732  20.190  1.00  0.00    -0.288 N 
HETATM    4  C16 UNL     1      -0.841  18.202  21.354  1.00  0.00     0.326 C 
HETATM    5  O4  UNL     1      -1.484  17.090  21.301  1.00  0.00    -0.246 OA
HETATM    6  N4  UNL     1      -0.789  18.674  22.693  1.00  0.00    -0.330 N 
ATOM      7  H4  UNL     1      -1.515  18.339  23.327  1.00  0.00     0.165 HD
HETATM    8  C17 UNL     1       0.192  19.585  23.249  1.00  0.00     0.167 C 
HETATM    9  C28 UNL     1       0.215  20.742  22.369  1.00  0.00     0.183 C 
HETATM   10  O5  UNL     1      -0.203  21.808  22.694  1.00  0.00    -0.292 OA
ENDROOT
BRANCH   1  11
HETATM   11  C3  UNL     1       2.035  20.084  21.000  1.00  0.00     0.071 C 
BRANCH  11  12
HETATM   12  C2  UNL     1       3.210  20.745  21.535  1.00  0.00    -0.034 C 
HETATM   13  C1  UNL     1       4.259  21.238  20.913  1.00  0.00     0.007 C 
ENDBRANCH  11  12
ENDBRANCH   1  11
BRANCH   1  14
HETATM   14  N1  UNL     1       0.827  22.173  20.538  1.00  0.00    -0.339 N 
HETATM   15  C5  UNL     1       1.228  22.679  19.306  1.00  0.00     0.226 C 
HETATM   16  O1  UNL     1       1.571  21.911  18.384  1.00  0.00    -0.273 OA
ATOM     17  H1  UNL     1       0.557  22.864  21.238  1.00  0.00     0.164 HD
BRANCH  15  18
HETATM   18  C6  UNL     1       1.263  24.131  19.046  1.00  0.00     0.030 C 
HETATM   19  C7  UNL     1       2.683  24.622  18.771  1.00  0.00     0.024 C 
HETATM   20  C8  UNL     1       0.742  24.946  20.199  1.00  0.00     0.024 C 
HETATM   21  C9  UNL     1       0.445  24.507  17.825  1.00  0.00     0.024 C 
ENDBRANCH  15  18
ENDBRANCH   1  14
BRANCH   3  22
HETATM   22  C11 UNL     1      -0.216  17.902  19.066  1.00  0.00     0.107 C 
BRANCH  22  23
HETATM   23  C12 UNL     1      -1.106  18.269  17.906  1.00  0.00     0.175 C 
BRANCH  23  24
HETATM   24  O2  UNL     1      -0.454  18.119  16.683  1.00  0.00    -0.389 OA
ATOM     25  H2  UNL     1      -0.908  18.571  15.981  1.00  0.00     0.210 HD
ENDBRANCH  23  24
BRANCH  23  26
HETATM   26  C13 UNL     1      -2.312  17.359  17.862  1.00  0.00     0.159 C 
BRANCH  26  27
HETATM   27  N3  UNL     1      -2.043  16.007  18.233  1.00  0.00    -0.359 N 
HETATM   28  C14 UNL     1      -1.698  15.039  17.285  1.00  0.00     0.213 C 
HETATM   29  C15 UNL     1      -1.430  13.632  17.734  1.00  0.00     0.117 C 
HETATM   30  O3  UNL     1      -1.599  15.284  16.056  1.00  0.00    -0.274 OA
ATOM     31  H3  UNL     1      -2.104  15.741  19.215  1.00  0.00     0.162 HD
ENDBRANCH  26  27
ENDBRANCH  23  26
ENDBRANCH  22  23
ENDBRANCH   3  22
BRANCH   8  32
HETATM   32  C18 UNL     1      -0.019  19.804  24.691  1.00  0.00    -0.012 C 
HETATM   33  C19 UNL     1       1.115  20.537  25.377  1.00  0.00     0.016 C 
HETATM   34  C20 UNL     1       0.988  20.513  26.884  1.00  0.00    -0.013 C 
HETATM   35  C21 UNL     1      -0.239  21.370  27.200  1.00  0.00     0.009 C 
HETATM   36  C25 UNL     1       0.862  19.131  27.446  1.00  0.00     0.009 C 
HETATM   37  C22 UNL     1      -1.405  20.716  26.564  1.00  0.00    -0.013 C 
HETATM   38  C23 UNL     1      -1.577  19.333  27.178  1.00  0.00     0.009 C 
HETATM   39  C27 UNL     1      -1.294  20.515  25.072  1.00  0.00     0.016 C 
HETATM   40  C24 UNL     1      -0.379  18.517  26.818  1.00  0.00    -0.013 C 
HETATM   41  C26 UNL     1      -0.111  18.439  25.342  1.00  0.00     0.016 C 
ENDBRANCH   8  32
TORSDOF 10
ENDMDL
