MODEL 1
REMARK VINA RESULT: -7.624547985      0.000      0.000
REMARK  9 active torsions:
REMARK  status: ('A' for Active; 'I' for Inactive)
REMARK    1  A    between atoms: C2_2  and  C3_3 
REMARK    2  A    between atoms: C3_3  and  C4_4 
REMARK    3  A    between atoms: C4_4  and  C5_5 
REMARK    4  A    between atoms: C7_7  and  N1_8 
REMARK       I    between atoms: N1_8  and  C8_10 
REMARK    5  A    between atoms: C11_16  and  C12_17 
REMARK    6  A    between atoms: C12_17  and  N3_18 
REMARK    7  A    between atoms: C21_28  and  N4_29 
REMARK       I    between atoms: N4_29  and  C22_31 
REMARK    8  A    between atoms: C22_31  and  C23_33 
REMARK    9  A    between atoms: C23_33  and  C24_34 
ROOT
HETATM    1  C12 UNL     1      -0.760   0.548  20.244  1.00  0.00     0.272 C 
ENDROOT
BRANCH   1   2
HETATM    2  C11 UNL     1       0.688   0.562  20.111  1.00  0.00     0.208 C 
HETATM    3  N2  UNL     1       1.410  -0.657  20.326  1.00  0.00    -0.308 N 
HETATM    4  C5  UNL     1       1.841  -1.217  19.049  1.00  0.00     0.114 C 
HETATM    5  C10 UNL     1       1.912  -1.586  21.290  1.00  0.00     0.245 C 
HETATM    6  C6  UNL     1       3.263  -1.646  19.343  1.00  0.00     0.089 C 
HETATM    7  N5  UNL     1       1.816  -0.105  18.153  1.00  0.00    -0.332 N 
HETATM    8  C7  UNL     1       3.158  -2.166  20.751  1.00  0.00     0.181 C 
HETATM    9  C28 UNL     1       1.054   0.924  18.695  1.00  0.00     0.244 C 
ATOM     10  H5  UNL     1       2.288  -0.071  17.250  1.00  0.00     0.165 HD
HETATM   11  O5  UNL     1       0.691   2.007  18.154  1.00  0.00    -0.271 OA
HETATM   12  O2  UNL     1       1.463  -1.919  22.408  1.00  0.00    -0.271 OA
BRANCH   4  13
HETATM   13  C4  UNL     1       0.949  -2.312  18.580  1.00  0.00     0.054 C 
BRANCH  13  14
HETATM   14  C3  UNL     1       1.062  -2.503  17.086  1.00  0.00     0.004 C 
BRANCH  14  15
HETATM   15  C2  UNL     1       1.066  -3.987  16.738  1.00  0.00    -0.004 C 
HETATM   16  C1  UNL     1       2.019  -4.744  17.666  1.00  0.00     0.005 C 
ENDBRANCH  14  15
ENDBRANCH  13  14
ENDBRANCH   4  13
BRANCH   8  17
HETATM   17  N1  UNL     1       3.229  -3.601  20.852  1.00  0.00    -0.348 N 
HETATM   18  C8  UNL     1       4.476  -4.273  20.854  1.00  0.00     0.214 C 
HETATM   19  C9  UNL     1       4.499  -5.747  20.961  1.00  0.00     0.117 C 
HETATM   20  O1  UNL     1       5.576  -3.659  20.769  1.00  0.00    -0.274 OA
ATOM     21  H1  UNL     1       2.367  -4.143  20.923  1.00  0.00     0.163 HD
ENDBRANCH   8  17
ENDBRANCH   1   2
BRANCH   1  22
HETATM   22  N3  UNL     1      -1.487   0.961  21.359  1.00  0.00    -0.067 N 
HETATM   23  C13 UNL     1      -2.917   0.830  21.153  1.00  0.00     0.272 C 
HETATM   24  C14 UNL     1      -1.095   0.500  22.638  1.00  0.00     0.237 C 
HETATM   25  C15 UNL     1      -0.075   1.349  23.358  1.00  0.00     0.033 C 
HETATM   26  C16 UNL     1      -0.550   2.617  23.925  1.00  0.00     0.001 C 
HETATM   27  C17 UNL     1      -0.341   2.757  25.431  1.00  0.00     0.013 C 
HETATM   28  C20 UNL     1      -2.029   2.872  23.804  1.00  0.00     0.084 C 
HETATM   29  C18 UNL     1      -1.210   3.978  25.755  1.00  0.00     0.079 C 
HETATM   30  C19 UNL     1      -2.202   4.059  24.660  1.00  0.00     0.133 C 
HETATM   31  O3  UNL     1      -3.002   4.947  24.512  1.00  0.00    -0.297 OA
HETATM   32  C21 UNL     1      -2.323   3.080  22.352  1.00  0.00     0.122 C 
HETATM   33  C27 UNL     1      -1.327   2.452  21.442  1.00  0.00     0.263 C 
BRANCH  32  34
HETATM   34  N4  UNL     1      -2.269   4.525  22.064  1.00  0.00    -0.354 N 
HETATM   35  C22 UNL     1      -3.096   5.139  21.083  1.00  0.00     0.218 C 
HETATM   36  O4  UNL     1      -3.921   4.489  20.400  1.00  0.00    -0.274 OA
ATOM     37  H4  UNL     1      -1.615   5.106  22.588  1.00  0.00     0.162 HD
BRANCH  35  38
HETATM   38  C23 UNL     1      -2.975   6.595  20.861  1.00  0.00     0.107 C 
BRANCH  38  39
HETATM   39  C24 UNL     1      -2.258   6.846  19.557  1.00  0.00    -0.006 A 
HETATM   40  C25 UNL     1      -1.792   8.252  19.278  1.00  0.00     0.005 A 
HETATM   41  C26 UNL     1      -0.809   7.187  19.654  1.00  0.00     0.005 A 
ENDBRANCH  38  39
ENDBRANCH  35  38
ENDBRANCH  32  34
ENDBRANCH   1  22
TORSDOF 9
ENDMDL
MODEL 2
REMARK VINA RESULT: -7.531579192      2.573      9.176
REMARK  9 active torsions:
REMARK  status: ('A' for Active; 'I' for Inactive)
REMARK    1  A    between atoms: C2_2  and  C3_3 
REMARK    2  A    between atoms: C3_3  and  C4_4 
REMARK    3  A    between atoms: C4_4  and  C5_5 
REMARK    4  A    between atoms: C7_7  and  N1_8 
REMARK       I    between atoms: N1_8  and  C8_10 
REMARK    5  A    between atoms: C11_16  and  C12_17 
REMARK    6  A    between atoms: C12_17  and  N3_18 
REMARK    7  A    between atoms: C21_28  and  N4_29 
REMARK       I    between atoms: N4_29  and  C22_31 
REMARK    8  A    between atoms: C22_31  and  C23_33 
REMARK    9  A    between atoms: C23_33  and  C24_34 
ROOT
HETATM    1  C12 UNL     1      -0.703   1.074  20.519  1.00  0.00     0.272 C 
ENDROOT
BRANCH   1   2
HETATM    2  C11 UNL     1      -0.445   2.191  21.413  1.00  0.00     0.208 C 
HETATM    3  N2  UNL     1      -1.173   3.410  21.220  1.00  0.00    -0.308 N 
HETATM    4  C5  UNL     1      -2.213   3.540  22.236  1.00  0.00     0.114 C 
HETATM    5  C10 UNL     1      -1.316   4.597  20.435  1.00  0.00     0.245 C 
HETATM    6  C6  UNL     1      -2.097   4.996  22.638  1.00  0.00     0.089 C 
HETATM    7  N5  UNL     1      -1.779   2.681  23.292  1.00  0.00    -0.332 N 
HETATM    8  C7  UNL     1      -1.803   5.669  21.324  1.00  0.00     0.181 C 
HETATM    9  C28 UNL     1      -0.816   1.797  22.820  1.00  0.00     0.244 C 
ATOM     10  H5  UNL     1      -2.124   2.713  24.251  1.00  0.00     0.165 HD
HETATM   11  O5  UNL     1      -0.293   0.810  23.410  1.00  0.00    -0.271 OA
HETATM   12  O2  UNL     1      -1.097   4.799  19.221  1.00  0.00    -0.271 OA
BRANCH   4  13
HETATM   13  C4  UNL     1      -3.554   3.142  21.729  1.00  0.00     0.054 C 
BRANCH  13  14
HETATM   14  C3  UNL     1      -4.604   3.276  22.806  1.00  0.00     0.004 C 
BRANCH  14  15
HETATM   15  C2  UNL     1      -5.697   4.244  22.368  1.00  0.00    -0.004 C 
HETATM   16  C1  UNL     1      -5.818   4.245  20.842  1.00  0.00     0.005 C 
ENDBRANCH  14  15
ENDBRANCH  13  14
ENDBRANCH   4  13
BRANCH   8  17
HETATM   17  N1  UNL     1      -2.912   6.417  20.789  1.00  0.00    -0.348 N 
HETATM   18  C8  UNL     1      -2.701   7.602  20.041  1.00  0.00     0.214 C 
HETATM   19  C9  UNL     1      -3.870   8.335  19.511  1.00  0.00     0.117 C 
HETATM   20  O1  UNL     1      -1.547   8.059  19.808  1.00  0.00    -0.274 OA
ATOM     21  H1  UNL     1      -3.864   6.089  20.950  1.00  0.00     0.163 HD
ENDBRANCH   8  17
ENDBRANCH   1   2
BRANCH   1  22
HETATM   22  N3  UNL     1       0.235   0.431  19.713  1.00  0.00    -0.067 N 
HETATM   23  C13 UNL     1       0.552   1.202  18.527  1.00  0.00     0.272 C 
HETATM   24  C14 UNL     1       1.397  -0.108  20.316  1.00  0.00     0.237 C 
HETATM   25  C15 UNL     1       1.282  -1.531  20.808  1.00  0.00     0.033 C 
HETATM   26  C16 UNL     1       1.282  -2.586  19.788  1.00  0.00     0.001 C 
HETATM   27  C17 UNL     1       2.397  -3.619  19.942  1.00  0.00     0.013 C 
HETATM   28  C20 UNL     1       1.499  -2.124  18.371  1.00  0.00     0.084 C 
HETATM   29  C18 UNL     1       2.336  -4.349  18.596  1.00  0.00     0.079 C 
HETATM   30  C19 UNL     1       1.687  -3.402  17.661  1.00  0.00     0.133 C 
HETATM   31  O3  UNL     1       1.376  -3.651  16.525  1.00  0.00    -0.297 OA
HETATM   32  C21 UNL     1       0.286  -1.342  17.973  1.00  0.00     0.122 C 
HETATM   33  C27 UNL     1      -0.459  -0.763  19.124  1.00  0.00     0.263 C 
BRANCH  32  34
HETATM   34  N4  UNL     1      -0.660  -2.253  17.303  1.00  0.00    -0.354 N 
HETATM   35  C22 UNL     1      -1.535  -1.818  16.269  1.00  0.00     0.218 C 
HETATM   36  O4  UNL     1      -1.555  -0.632  15.863  1.00  0.00    -0.274 OA
ATOM     37  H4  UNL     1      -0.690  -3.230  17.592  1.00  0.00     0.162 HD
BRANCH  35  38
HETATM   38  C23 UNL     1      -2.451  -2.799  15.653  1.00  0.00     0.107 C 
BRANCH  38  39
HETATM   39  C24 UNL     1      -1.680  -3.669  14.689  1.00  0.00    -0.006 A 
HETATM   40  C25 UNL     1      -2.341  -4.009  13.377  1.00  0.00     0.005 A 
HETATM   41  C26 UNL     1      -1.221  -3.016  13.429  1.00  0.00     0.005 A 
ENDBRANCH  38  39
ENDBRANCH  35  38
ENDBRANCH  32  34
ENDBRANCH   1  22
TORSDOF 9
ENDMDL
MODEL 3
REMARK VINA RESULT: -7.322131398      2.856      4.063
REMARK  9 active torsions:
REMARK  status: ('A' for Active; 'I' for Inactive)
REMARK    1  A    between atoms: C2_2  and  C3_3 
REMARK    2  A    between atoms: C3_3  and  C4_4 
REMARK    3  A    between atoms: C4_4  and  C5_5 
REMARK    4  A    between atoms: C7_7  and  N1_8 
REMARK       I    between atoms: N1_8  and  C8_10 
REMARK    5  A    between atoms: C11_16  and  C12_17 
REMARK    6  A    between atoms: C12_17  and  N3_18 
REMARK    7  A    between atoms: C21_28  and  N4_29 
REMARK       I    between atoms: N4_29  and  C22_31 
REMARK    8  A    between atoms: C22_31  and  C23_33 
REMARK    9  A    between atoms: C23_33  and  C24_34 
ROOT
HETATM    1  C12 UNL     1      -0.012   0.051  19.677  1.00  0.00     0.272 C 
ENDROOT
BRANCH   1   2
HETATM    2  C11 UNL     1       0.231  -1.355  19.398  1.00  0.00     0.208 C 
HETATM    3  N2  UNL     1      -0.579  -2.012  18.415  1.00  0.00    -0.308 N 
HETATM    4  C5  UNL     1       0.179  -2.195  17.182  1.00  0.00     0.114 C 
HETATM    5  C10 UNL     1      -1.853  -2.590  18.120  1.00  0.00     0.245 C 
HETATM    6  C6  UNL     1      -0.182  -3.611  16.783  1.00  0.00     0.089 C 
HETATM    7  N5  UNL     1       1.544  -2.110  17.594  1.00  0.00    -0.332 N 
HETATM    8  C7  UNL     1      -1.637  -3.690  17.160  1.00  0.00     0.181 C 
HETATM    9  C28 UNL     1       1.625  -1.519  18.850  1.00  0.00     0.244 C 
ATOM     10  H5  UNL     1       2.341  -2.436  17.048  1.00  0.00     0.165 HD
HETATM   11  O5  UNL     1       2.654  -1.156  19.486  1.00  0.00    -0.271 OA
HETATM   12  O2  UNL     1      -2.994  -2.299  18.538  1.00  0.00    -0.271 OA
BRANCH   4  13
HETATM   13  C4  UNL     1      -0.144  -1.163  16.159  1.00  0.00     0.054 C 
BRANCH  13  14
HETATM   14  C3  UNL     1       0.335  -1.584  14.791  1.00  0.00     0.004 C 
BRANCH  14  15
HETATM   15  C2  UNL     1      -0.779  -1.424  13.763  1.00  0.00    -0.004 C 
HETATM   16  C1  UNL     1      -0.981  -2.732  12.995  1.00  0.00     0.005 C 
ENDBRANCH  14  15
ENDBRANCH  13  14
ENDBRANCH   4  13
BRANCH   8  17
HETATM   17  N1  UNL     1      -2.535  -3.672  16.033  1.00  0.00    -0.348 N 
HETATM   18  C8  UNL     1      -3.154  -4.860  15.572  1.00  0.00     0.214 C 
HETATM   19  C9  UNL     1      -4.069  -4.791  14.414  1.00  0.00     0.117 C 
HETATM   20  O1  UNL     1      -2.954  -5.982  16.116  1.00  0.00    -0.274 OA
ATOM     21  H1  UNL     1      -2.728  -2.789  15.559  1.00  0.00     0.163 HD
ENDBRANCH   8  17
ENDBRANCH   1   2
BRANCH   1  22
HETATM   22  N3  UNL     1      -0.815   0.561  20.696  1.00  0.00    -0.067 N 
HETATM   23  C13 UNL     1      -2.197   0.700  20.281  1.00  0.00     0.272 C 
HETATM   24  C14 UNL     1      -0.708   0.003  21.992  1.00  0.00     0.237 C 
HETATM   25  C15 UNL     1       0.326   0.631  22.896  1.00  0.00     0.033 C 
HETATM   26  C16 UNL     1       0.003   1.950  23.455  1.00  0.00     0.001 C 
HETATM   27  C17 UNL     1       0.004   2.010  24.980  1.00  0.00     0.013 C 
HETATM   28  C20 UNL     1      -1.372   2.475  23.136  1.00  0.00     0.084 C 
HETATM   29  C18 UNL     1      -0.673   3.361  25.241  1.00  0.00     0.079 C 
HETATM   30  C19 UNL     1      -1.459   3.651  24.020  1.00  0.00     0.133 C 
HETATM   31  O3  UNL     1      -2.056   4.674  23.806  1.00  0.00    -0.297 OA
HETATM   32  C21 UNL     1      -1.401   2.772  21.669  1.00  0.00     0.122 C 
HETATM   33  C27 UNL     1      -0.406   1.995  20.881  1.00  0.00     0.263 C 
BRANCH  32  34
HETATM   34  N4  UNL     1      -1.048   4.189  21.470  1.00  0.00    -0.354 N 
HETATM   35  C22 UNL     1      -1.690   5.004  20.497  1.00  0.00     0.218 C 
HETATM   36  O4  UNL     1      -2.594   4.568  19.747  1.00  0.00    -0.274 OA
ATOM     37  H4  UNL     1      -0.318   4.600  22.050  1.00  0.00     0.162 HD
BRANCH  35  38
HETATM   38  C23 UNL     1      -1.273   6.416  20.366  1.00  0.00     0.107 C 
BRANCH  38  39
HETATM   39  C24 UNL     1      -2.186   7.121  19.392  1.00  0.00    -0.006 A 
HETATM   40  C25 UNL     1      -3.288   7.975  19.966  1.00  0.00     0.005 A 
HETATM   41  C26 UNL     1      -2.081   8.608  19.345  1.00  0.00     0.005 A 
ENDBRANCH  38  39
ENDBRANCH  35  38
ENDBRANCH  32  34
ENDBRANCH   1  22
TORSDOF 9
ENDMDL
MODEL 4
REMARK VINA RESULT: -7.256844030      1.805      3.766
REMARK  9 active torsions:
REMARK  status: ('A' for Active; 'I' for Inactive)
REMARK    1  A    between atoms: C2_2  and  C3_3 
REMARK    2  A    between atoms: C3_3  and  C4_4 
REMARK    3  A    between atoms: C4_4  and  C5_5 
REMARK    4  A    between atoms: C7_7  and  N1_8 
REMARK       I    between atoms: N1_8  and  C8_10 
REMARK    5  A    between atoms: C11_16  and  C12_17 
REMARK    6  A    between atoms: C12_17  and  N3_18 
REMARK    7  A    between atoms: C21_28  and  N4_29 
REMARK       I    between atoms: N4_29  and  C22_31 
REMARK    8  A    between atoms: C22_31  and  C23_33 
REMARK    9  A    between atoms: C23_33  and  C24_34 
ROOT
HETATM    1  C12 UNL     1      -0.342  -0.066  21.405  1.00  0.00     0.272 C 
ENDROOT
BRANCH   1   2
HETATM    2  C11 UNL     1      -0.570  -1.333  20.728  1.00  0.00     0.208 C 
HETATM    3  N2  UNL     1      -0.273  -1.429  19.330  1.00  0.00    -0.308 N 
HETATM    4  C5  UNL     1       0.971  -2.166  19.130  1.00  0.00     0.114 C 
HETATM    5  C10 UNL     1      -0.692  -1.107  18.001  1.00  0.00     0.245 C 
HETATM    6  C6  UNL     1       0.631  -3.074  17.967  1.00  0.00     0.089 C 
HETATM    7  N5  UNL     1       1.130  -2.916  20.336  1.00  0.00    -0.332 N 
HETATM    8  C7  UNL     1      -0.229  -2.187  17.108  1.00  0.00     0.181 C 
HETATM    9  C28 UNL     1       0.321  -2.387  21.334  1.00  0.00     0.244 C 
ATOM     10  H5  UNL     1       1.747  -3.720  20.447  1.00  0.00     0.165 HD
HETATM   11  O5  UNL     1       0.281  -2.688  22.561  1.00  0.00    -0.271 OA
HETATM   12  O2  UNL     1      -1.334  -0.126  17.567  1.00  0.00    -0.271 OA
BRANCH   4  13
HETATM   13  C4  UNL     1       2.132  -1.265  18.894  1.00  0.00     0.054 C 
BRANCH  13  14
HETATM   14  C3  UNL     1       3.379  -2.057  18.578  1.00  0.00     0.004 C 
BRANCH  14  15
HETATM   15  C2  UNL     1       4.397  -1.920  19.705  1.00  0.00    -0.004 C 
HETATM   16  C1  UNL     1       5.057  -3.272  19.985  1.00  0.00     0.005 C 
ENDBRANCH  14  15
ENDBRANCH  13  14
ENDBRANCH   4  13
BRANCH   8  17
HETATM   17  N1  UNL     1       0.423  -1.720  15.911  1.00  0.00    -0.348 N 
HETATM   18  C8  UNL     1      -0.291  -1.582  14.695  1.00  0.00     0.214 C 
HETATM   19  C9  UNL     1       0.421  -1.098  13.494  1.00  0.00     0.117 C 
HETATM   20  O1  UNL     1      -1.520  -1.858  14.597  1.00  0.00    -0.274 OA
ATOM     21  H1  UNL     1       1.416  -1.484  15.939  1.00  0.00     0.163 HD
ENDBRANCH   8  17
ENDBRANCH   1   2
BRANCH   1  22
HETATM   22  N3  UNL     1      -1.308   0.709  22.045  1.00  0.00    -0.067 N 
HETATM   23  C13 UNL     1      -2.539   0.783  21.282  1.00  0.00     0.272 C 
HETATM   24  C14 UNL     1      -1.553   0.493  23.422  1.00  0.00     0.237 C 
HETATM   25  C15 UNL     1      -0.702   1.296  24.376  1.00  0.00     0.033 C 
HETATM   26  C16 UNL     1      -1.022   2.723  24.509  1.00  0.00     0.001 C 
HETATM   27  C17 UNL     1      -1.366   3.166  25.929  1.00  0.00     0.013 C 
HETATM   28  C20 UNL     1      -2.233   3.194  23.748  1.00  0.00     0.084 C 
HETATM   29  C18 UNL     1      -1.958   4.559  25.687  1.00  0.00     0.079 C 
HETATM   30  C19 UNL     1      -2.412   4.557  24.278  1.00  0.00     0.133 C 
HETATM   31  O3  UNL     1      -2.848   5.511  23.687  1.00  0.00    -0.297 OA
HETATM   32  C21 UNL     1      -1.897   3.111  22.291  1.00  0.00     0.122 C 
HETATM   33  C27 UNL     1      -0.823   2.129  21.978  1.00  0.00     0.263 C 
BRANCH  32  34
HETATM   34  N4  UNL     1      -1.379   4.420  21.854  1.00  0.00    -0.354 N 
HETATM   35  C22 UNL     1      -1.745   5.008  20.611  1.00  0.00     0.218 C 
HETATM   36  O4  UNL     1      -2.529   4.449  19.810  1.00  0.00    -0.274 OA
ATOM     37  H4  UNL     1      -0.736   4.923  22.464  1.00  0.00     0.162 HD
BRANCH  35  38
HETATM   38  C23 UNL     1      -1.178   6.325  20.254  1.00  0.00     0.107 C 
BRANCH  38  39
HETATM   39  C24 UNL     1      -2.140   7.057  19.350  1.00  0.00    -0.006 A 
HETATM   40  C25 UNL     1      -3.200   7.906  20.003  1.00  0.00     0.005 A 
HETATM   41  C26 UNL     1      -2.026   8.544  19.327  1.00  0.00     0.005 A 
ENDBRANCH  38  39
ENDBRANCH  35  38
ENDBRANCH  32  34
ENDBRANCH   1  22
TORSDOF 9
ENDMDL
MODEL 5
REMARK VINA RESULT: -6.967995049      2.383      9.397
REMARK  9 active torsions:
REMARK  status: ('A' for Active; 'I' for Inactive)
REMARK    1  A    between atoms: C2_2  and  C3_3 
REMARK    2  A    between atoms: C3_3  and  C4_4 
REMARK    3  A    between atoms: C4_4  and  C5_5 
REMARK    4  A    between atoms: C7_7  and  N1_8 
REMARK       I    between atoms: N1_8  and  C8_10 
REMARK    5  A    between atoms: C11_16  and  C12_17 
REMARK    6  A    between atoms: C12_17  and  N3_18 
REMARK    7  A    between atoms: C21_28  and  N4_29 
REMARK       I    between atoms: N4_29  and  C22_31 
REMARK    8  A    between atoms: C22_31  and  C23_33 
REMARK    9  A    between atoms: C23_33  and  C24_34 
ROOT
HETATM    1  C12 UNL     1      -1.139  -0.074  20.272  1.00  0.00     0.272 C 
ENDROOT
BRANCH   1   2
HETATM    2  C11 UNL     1      -1.590   1.278  19.980  1.00  0.00     0.208 C 
HETATM    3  N2  UNL     1      -2.401   1.956  20.948  1.00  0.00    -0.308 N 
HETATM    4  C5  UNL     1      -1.607   2.955  21.656  1.00  0.00     0.114 C 
HETATM    5  C10 UNL     1      -3.701   2.082  21.530  1.00  0.00     0.245 C 
HETATM    6  C6  UNL     1      -2.544   4.144  21.705  1.00  0.00     0.089 C 
HETATM    7  N5  UNL     1      -0.504   3.207  20.784  1.00  0.00    -0.332 N 
HETATM    8  C7  UNL     1      -3.880   3.490  21.933  1.00  0.00     0.181 C 
HETATM    9  C28 UNL     1      -0.393   2.184  19.850  1.00  0.00     0.244 C 
ATOM     10  H5  UNL     1       0.111   4.019  20.838  1.00  0.00     0.165 HD
HETATM   11  O5  UNL     1       0.524   1.983  19.004  1.00  0.00    -0.271 OA
HETATM   12  O2  UNL     1      -4.595   1.228  21.712  1.00  0.00    -0.271 OA
BRANCH   4  13
HETATM   13  C4  UNL     1      -1.147   2.474  22.987  1.00  0.00     0.054 C 
BRANCH  13  14
HETATM   14  C3  UNL     1      -0.267   3.500  23.662  1.00  0.00     0.004 C 
BRANCH  14  15
HETATM   15  C2  UNL     1       0.724   2.819  24.599  1.00  0.00    -0.004 C 
HETATM   16  C1  UNL     1       0.034   2.444  25.912  1.00  0.00     0.005 C 
ENDBRANCH  14  15
ENDBRANCH  13  14
ENDBRANCH   4  13
BRANCH   8  17
HETATM   17  N1  UNL     1      -4.393   3.658  23.269  1.00  0.00    -0.348 N 
HETATM   18  C8  UNL     1      -5.689   4.188  23.493  1.00  0.00     0.214 C 
HETATM   19  C9  UNL     1      -6.173   4.341  24.881  1.00  0.00     0.117 C 
HETATM   20  O1  UNL     1      -6.451   4.536  22.548  1.00  0.00    -0.274 OA
ATOM     21  H1  UNL     1      -3.815   3.392  24.066  1.00  0.00     0.163 HD
ENDBRANCH   8  17
ENDBRANCH   1   2
BRANCH   1  22
HETATM   22  N3  UNL     1      -1.310  -1.191  19.457  1.00  0.00    -0.067 N 
HETATM   23  C13 UNL     1      -1.864  -2.316  20.186  1.00  0.00     0.272 C 
HETATM   24  C14 UNL     1      -1.929  -1.027  18.194  1.00  0.00     0.237 C 
HETATM   25  C15 UNL     1      -1.003  -0.699  17.046  1.00  0.00     0.033 C 
HETATM   26  C16 UNL     1      -0.172  -1.794  16.533  1.00  0.00     0.001 C 
HETATM   27  C17 UNL     1      -0.370  -2.101  15.050  1.00  0.00     0.013 C 
HETATM   28  C20 UNL     1      -0.417  -3.145  17.152  1.00  0.00     0.084 C 
HETATM   29  C18 UNL     1       0.348  -3.448  14.910  1.00  0.00     0.079 C 
HETATM   30  C19 UNL     1       0.369  -4.028  16.272  1.00  0.00     0.133 C 
HETATM   31  O3  UNL     1       0.935  -5.044  16.585  1.00  0.00    -0.297 OA
HETATM   32  C21 UNL     1       0.053  -3.071  18.571  1.00  0.00     0.122 C 
HETATM   33  C27 UNL     1       0.067  -1.690  19.127  1.00  0.00     0.263 C 
BRANCH  32  34
HETATM   34  N4  UNL     1       1.450  -3.538  18.628  1.00  0.00    -0.354 N 
HETATM   35  C22 UNL     1       1.986  -4.204  19.765  1.00  0.00     0.218 C 
HETATM   36  O4  UNL     1       1.304  -4.435  20.790  1.00  0.00    -0.274 OA
ATOM     37  H4  UNL     1       2.055  -3.377  17.823  1.00  0.00     0.162 HD
BRANCH  35  38
HETATM   38  C23 UNL     1       3.398  -4.638  19.734  1.00  0.00     0.107 C 
BRANCH  38  39
HETATM   39  C24 UNL     1       4.219  -3.740  20.629  1.00  0.00    -0.006 A 
HETATM   40  C25 UNL     1       5.678  -3.567  20.292  1.00  0.00     0.005 A 
HETATM   41  C26 UNL     1       4.700  -2.464  20.024  1.00  0.00     0.005 A 
ENDBRANCH  38  39
ENDBRANCH  35  38
ENDBRANCH  32  34
ENDBRANCH   1  22
TORSDOF 9
ENDMDL
