MODEL 1
REMARK VINA RESULT: -6.708034415      0.000      0.000
REMARK  11 active torsions:
REMARK  status: ('A' for Active; 'I' for Inactive)
REMARK    1  A    between atoms: C2_2  and  C3_3 
REMARK    2  A    between atoms: C3_3  and  C4_4 
REMARK    3  A    between atoms: C4_4  and  C5_5 
REMARK    4  A    between atoms: C12_17  and  C13_18 
REMARK    5  A    between atoms: C17_25  and  C18_26 
REMARK    6  A    between atoms: C18_26  and  C19_27 
REMARK    7  A    between atoms: C19_27  and  C20_28 
REMARK    8  A    between atoms: C24_34  and  C25_35 
REMARK    9  A    between atoms: C25_35  and  C26_36 
REMARK   10  A    between atoms: C26_36  and  C27_37 
REMARK   11  A    between atoms: C27_37  and  N5_38 
ROOT
HETATM    1  C5  UNL     1      -1.403  19.193  23.428  1.00  0.00     0.178 C 
HETATM    2  N1  UNL     1       0.046  19.193  23.392  1.00  0.00    -0.346 N 
ATOM      3  H1  UNL     1       0.501  18.302  23.192  1.00  0.00     0.163 HD
HETATM    4  C6  UNL     1       0.883  20.296  23.604  1.00  0.00     0.241 C 
HETATM    5  O1  UNL     1       1.922  20.056  24.315  1.00  0.00    -0.271 OA
HETATM    6  C7  UNL     1       0.695  21.654  23.109  1.00  0.00     0.179 C 
HETATM    7  C8  UNL     1      -0.140  22.518  24.078  1.00  0.00     0.037 C 
HETATM    8  C9  UNL     1       0.848  22.558  25.222  1.00  0.00     0.022 C 
HETATM    9  C10 UNL     1       2.157  22.724  24.527  1.00  0.00     0.127 C 
HETATM   10  N2  UNL     1       1.869  22.490  23.107  1.00  0.00    -0.337 N 
HETATM   11  C11 UNL     1       2.563  22.999  21.997  1.00  0.00     0.243 C 
HETATM   12  O2  UNL     1       2.811  24.273  21.915  1.00  0.00    -0.271 OA
HETATM   13  C12 UNL     1       3.088  22.255  20.835  1.00  0.00     0.180 C 
HETATM   14  N3  UNL     1       2.875  20.837  20.858  1.00  0.00    -0.346 N 
ATOM     15  H3  UNL     1       3.274  20.356  21.665  1.00  0.00     0.163 HD
HETATM   16  C16 UNL     1       2.208  20.009  19.949  1.00  0.00     0.241 C 
HETATM   17  O3  UNL     1       2.874  19.029  19.437  1.00  0.00    -0.271 OA
HETATM   18  C17 UNL     1       0.795  20.102  19.476  1.00  0.00     0.178 C 
HETATM   19  N4  UNL     1       0.514  19.119  18.459  1.00  0.00    -0.342 N 
HETATM   20  C22 UNL     1       0.866  19.432  17.088  1.00  0.00     0.153 C 
HETATM   21  C23 UNL     1      -0.059  17.834  18.672  1.00  0.00     0.241 C 
HETATM   22  O4  UNL     1       0.259  16.916  17.810  1.00  0.00    -0.271 OA
HETATM   23  C24 UNL     1      -0.951  17.382  19.712  1.00  0.00     0.191 C 
HETATM   24  N8  UNL     1      -1.853  18.340  20.284  1.00  0.00    -0.124 NA
HETATM   25  N9  UNL     1      -2.448  17.900  21.457  1.00  0.00    -0.271 N 
ATOM     26  H9  UNL     1      -3.369  17.473  21.357  1.00  0.00     0.185 HD
HETATM   27  C29 UNL     1      -1.944  17.968  22.754  1.00  0.00     0.256 C 
HETATM   28  O5  UNL     1      -1.938  16.888  23.443  1.00  0.00    -0.270 OA
ENDROOT
BRANCH  23  29
HETATM   29  C25 UNL     1      -1.820  16.243  19.194  1.00  0.00     0.034 C 
BRANCH  29  30
HETATM   30  C26 UNL     1      -2.786  16.653  18.136  1.00  0.00     0.022 C 
BRANCH  30  31
HETATM   31  C27 UNL     1      -2.703  15.614  17.016  1.00  0.00     0.122 C 
BRANCH  31  32
HETATM   32  N5  UNL     1      -1.707  14.619  17.301  1.00  0.00    -0.367 N 
HETATM   33  C28 UNL     1      -1.328  13.777  16.402  1.00  0.00     0.196 C 
HETATM   34  N6  UNL     1      -1.890  13.811  15.096  1.00  0.00    -0.067 NA
HETATM   35  N7  UNL     1      -0.346  12.791  16.675  1.00  0.00    -0.067 NA
ATOM     36  H5  UNL     1      -1.292  14.579  18.232  1.00  0.00     0.161 HD
ENDBRANCH  31  32
ENDBRANCH  30  31
ENDBRANCH  29  30
ENDBRANCH  23  29
BRANCH  18  37
HETATM   37  C18 UNL     1       0.433  21.482  18.979  1.00  0.00     0.035 C 
BRANCH  37  38
HETATM   38  C19 UNL     1      -1.012  21.797  19.299  1.00  0.00     0.002 C 
BRANCH  38  39
HETATM   39  C20 UNL     1      -1.818  21.954  17.999  1.00  0.00    -0.004 C 
HETATM   40  C21 UNL     1      -2.688  20.737  17.774  1.00  0.00     0.005 C 
ENDBRANCH  38  39
ENDBRANCH  37  38
ENDBRANCH  18  37
BRANCH   1  41
HETATM   41  C4  UNL     1      -1.772  19.096  24.920  1.00  0.00     0.035 C 
BRANCH  41  42
HETATM   42  C3  UNL     1      -3.130  19.782  25.046  1.00  0.00     0.002 C 
BRANCH  42  43
HETATM   43  C2  UNL     1      -4.044  18.829  25.818  1.00  0.00    -0.004 C 
HETATM   44  C1  UNL     1      -5.074  18.226  24.880  1.00  0.00     0.005 C 
ENDBRANCH  42  43
ENDBRANCH  41  42
ENDBRANCH   1  41
BRANCH  13  45
HETATM   45  C13 UNL     1       4.610  22.432  20.747  1.00  0.00     0.009 C 
HETATM   46  C14 UNL     1       5.235  21.446  21.710  1.00  0.00     0.012 C 
HETATM   47  C15 UNL     1       5.153  22.183  19.385  1.00  0.00     0.012 C 
ENDBRANCH  13  45
TORSDOF 11
ENDMDL
MODEL 2
REMARK VINA RESULT: -6.658735670      1.684      2.168
REMARK  11 active torsions:
REMARK  status: ('A' for Active; 'I' for Inactive)
REMARK    1  A    between atoms: C2_2  and  C3_3 
REMARK    2  A    between atoms: C3_3  and  C4_4 
REMARK    3  A    between atoms: C4_4  and  C5_5 
REMARK    4  A    between atoms: C12_17  and  C13_18 
REMARK    5  A    between atoms: C17_25  and  C18_26 
REMARK    6  A    between atoms: C18_26  and  C19_27 
REMARK    7  A    between atoms: C19_27  and  C20_28 
REMARK    8  A    between atoms: C24_34  and  C25_35 
REMARK    9  A    between atoms: C25_35  and  C26_36 
REMARK   10  A    between atoms: C26_36  and  C27_37 
REMARK   11  A    between atoms: C27_37  and  N5_38 
ROOT
HETATM    1  C5  UNL     1      -1.584  19.050  24.093  1.00  0.00     0.178 C 
HETATM    2  N1  UNL     1      -0.146  18.952  24.253  1.00  0.00    -0.346 N 
ATOM      3  H1  UNL     1       0.300  18.108  23.892  1.00  0.00     0.163 HD
HETATM    4  C6  UNL     1       0.690  19.901  24.854  1.00  0.00     0.241 C 
HETATM    5  O1  UNL     1       1.602  19.414  25.611  1.00  0.00    -0.271 OA
HETATM    6  C7  UNL     1       0.628  21.350  24.708  1.00  0.00     0.179 C 
HETATM    7  C8  UNL     1      -0.309  22.002  25.746  1.00  0.00     0.037 C 
HETATM    8  C9  UNL     1       0.499  21.680  26.983  1.00  0.00     0.022 C 
HETATM    9  C10 UNL     1       1.902  21.918  26.538  1.00  0.00     0.127 C 
HETATM   10  N2  UNL     1       1.819  22.070  25.080  1.00  0.00    -0.337 N 
HETATM   11  C11 UNL     1       2.690  22.789  24.243  1.00  0.00     0.243 C 
HETATM   12  O2  UNL     1       2.994  24.020  24.529  1.00  0.00    -0.271 OA
HETATM   13  C12 UNL     1       3.354  22.324  23.010  1.00  0.00     0.180 C 
HETATM   14  N3  UNL     1       3.087  20.965  22.635  1.00  0.00    -0.346 N 
ATOM     15  H3  UNL     1       3.343  20.269  23.335  1.00  0.00     0.163 HD
HETATM   16  C16 UNL     1       2.533  20.444  21.462  1.00  0.00     0.241 C 
HETATM   17  O3  UNL     1       3.230  19.578  20.807  1.00  0.00    -0.271 OA
HETATM   18  C17 UNL     1       1.209  20.757  20.844  1.00  0.00     0.178 C 
HETATM   19  N4  UNL     1       1.047  20.085  19.578  1.00  0.00    -0.342 N 
HETATM   20  C22 UNL     1       1.610  20.706  18.395  1.00  0.00     0.153 C 
HETATM   21  C23 UNL     1       0.401  18.834  19.372  1.00  0.00     0.241 C 
HETATM   22  O4  UNL     1       0.809  18.141  18.353  1.00  0.00    -0.271 OA
HETATM   23  C24 UNL     1      -0.652  18.202  20.130  1.00  0.00     0.191 C 
HETATM   24  N8  UNL     1      -1.592  19.050  20.804  1.00  0.00    -0.124 NA
HETATM   25  N9  UNL     1      -2.371  18.375  21.732  1.00  0.00    -0.271 N 
ATOM     26  H9  UNL     1      -3.282  18.056  21.403  1.00  0.00     0.185 HD
HETATM   27  C29 UNL     1      -2.063  18.077  23.058  1.00  0.00     0.256 C 
HETATM   28  O5  UNL     1      -2.200  16.862  23.437  1.00  0.00    -0.270 OA
ENDROOT
BRANCH  23  29
HETATM   29  C25 UNL     1      -1.475  17.298  19.222  1.00  0.00     0.034 C 
BRANCH  29  30
HETATM   30  C26 UNL     1      -1.381  15.850  19.565  1.00  0.00     0.022 C 
BRANCH  30  31
HETATM   31  C27 UNL     1      -1.521  15.063  18.260  1.00  0.00     0.122 C 
BRANCH  31  32
HETATM   32  N5  UNL     1      -0.408  14.177  18.064  1.00  0.00    -0.367 N 
HETATM   33  C28 UNL     1      -0.424  13.279  17.140  1.00  0.00     0.196 C 
HETATM   34  N6  UNL     1      -1.550  13.143  16.283  1.00  0.00    -0.067 NA
HETATM   35  N7  UNL     1       0.671  12.399  16.940  1.00  0.00    -0.067 NA
ATOM     36  H5  UNL     1       0.410  14.259  18.668  1.00  0.00     0.161 HD
ENDBRANCH  31  32
ENDBRANCH  30  31
ENDBRANCH  29  30
ENDBRANCH  23  29
BRANCH  18  37
HETATM   37  C18 UNL     1       0.977  22.241  20.677  1.00  0.00     0.035 C 
BRANCH  37  38
HETATM   38  C19 UNL     1      -0.325  22.648  21.331  1.00  0.00     0.002 C 
BRANCH  38  39
HETATM   39  C20 UNL     1      -0.133  23.953  22.122  1.00  0.00    -0.004 C 
HETATM   40  C21 UNL     1       0.974  24.779  21.503  1.00  0.00     0.005 C 
ENDBRANCH  38  39
ENDBRANCH  37  38
ENDBRANCH  18  37
BRANCH   1  41
HETATM   41  C4  UNL     1      -2.174  18.609  25.445  1.00  0.00     0.035 C 
BRANCH  41  42
HETATM   42  C3  UNL     1      -3.157  19.710  25.836  1.00  0.00     0.002 C 
BRANCH  42  43
HETATM   43  C2  UNL     1      -3.022  19.915  27.346  1.00  0.00    -0.004 C 
HETATM   44  C1  UNL     1      -1.944  19.002  27.899  1.00  0.00     0.005 C 
ENDBRANCH  42  43
ENDBRANCH  41  42
ENDBRANCH   1  41
BRANCH  13  45
HETATM   45  C13 UNL     1       4.877  22.404  23.176  1.00  0.00     0.009 C 
HETATM   46  C14 UNL     1       5.247  21.542  24.363  1.00  0.00     0.012 C 
HETATM   47  C15 UNL     1       5.624  21.924  21.983  1.00  0.00     0.012 C 
ENDBRANCH  13  45
TORSDOF 11
ENDMDL
MODEL 3
REMARK VINA RESULT: -6.623920838      1.152      1.337
REMARK  11 active torsions:
REMARK  status: ('A' for Active; 'I' for Inactive)
REMARK    1  A    between atoms: C2_2  and  C3_3 
REMARK    2  A    between atoms: C3_3  and  C4_4 
REMARK    3  A    between atoms: C4_4  and  C5_5 
REMARK    4  A    between atoms: C12_17  and  C13_18 
REMARK    5  A    between atoms: C17_25  and  C18_26 
REMARK    6  A    between atoms: C18_26  and  C19_27 
REMARK    7  A    between atoms: C19_27  and  C20_28 
REMARK    8  A    between atoms: C24_34  and  C25_35 
REMARK    9  A    between atoms: C25_35  and  C26_36 
REMARK   10  A    between atoms: C26_36  and  C27_37 
REMARK   11  A    between atoms: C27_37  and  N5_38 
ROOT
HETATM    1  C5  UNL     1      -1.511  18.822  24.179  1.00  0.00     0.178 C 
HETATM    2  N1  UNL     1      -0.062  18.832  24.231  1.00  0.00    -0.346 N 
ATOM      3  H1  UNL     1       0.414  17.976  23.947  1.00  0.00     0.163 HD
HETATM    4  C6  UNL     1       0.748  19.901  24.633  1.00  0.00     0.241 C 
HETATM    5  O1  UNL     1       1.745  19.576  25.368  1.00  0.00    -0.271 OA
HETATM    6  C7  UNL     1       0.573  21.311  24.305  1.00  0.00     0.179 C 
HETATM    7  C8  UNL     1      -0.328  22.040  25.324  1.00  0.00     0.037 C 
HETATM    8  C9  UNL     1       0.590  21.937  26.522  1.00  0.00     0.022 C 
HETATM    9  C10 UNL     1       1.936  22.196  25.935  1.00  0.00     0.127 C 
HETATM   10  N2  UNL     1       1.736  22.145  24.481  1.00  0.00    -0.337 N 
HETATM   11  C11 UNL     1       2.489  22.795  23.490  1.00  0.00     0.243 C 
HETATM   12  O2  UNL     1       2.727  24.070  23.587  1.00  0.00    -0.271 OA
HETATM   13  C12 UNL     1       3.091  22.209  22.276  1.00  0.00     0.180 C 
HETATM   14  N3  UNL     1       2.893  20.798  22.104  1.00  0.00    -0.346 N 
ATOM     15  H3  UNL     1       3.248  20.219  22.865  1.00  0.00     0.163 HD
HETATM   16  C16 UNL     1       2.291  20.092  21.058  1.00  0.00     0.241 C 
HETATM   17  O3  UNL     1       2.997  19.188  20.466  1.00  0.00    -0.271 OA
HETATM   18  C17 UNL     1       0.907  20.239  20.517  1.00  0.00     0.178 C 
HETATM   19  N4  UNL     1       0.699  19.394  19.366  1.00  0.00    -0.342 N 
HETATM   20  C22 UNL     1       1.128  19.883  18.070  1.00  0.00     0.153 C 
HETATM   21  C23 UNL     1       0.129  18.091  19.378  1.00  0.00     0.241 C 
HETATM   22  O4  UNL     1       0.508  17.292  18.427  1.00  0.00    -0.271 OA
HETATM   23  C24 UNL     1      -0.818  17.505  20.296  1.00  0.00     0.191 C 
HETATM   24  N8  UNL     1      -1.763  18.378  20.930  1.00  0.00    -0.124 NA
HETATM   25  N9  UNL     1      -2.422  17.789  21.998  1.00  0.00    -0.271 N 
ATOM     26  H9  UNL     1      -3.330  17.375  21.790  1.00  0.00     0.185 HD
HETATM   27  C29 UNL     1      -1.997  17.692  23.322  1.00  0.00     0.256 C 
HETATM   28  O5  UNL     1      -2.019  16.532  23.866  1.00  0.00    -0.270 OA
ENDROOT
BRANCH  23  29
HETATM   29  C25 UNL     1      -1.641  16.439  19.585  1.00  0.00     0.034 C 
BRANCH  29  30
HETATM   30  C26 UNL     1      -2.563  16.980  18.546  1.00  0.00     0.022 C 
BRANCH  30  31
HETATM   31  C27 UNL     1      -2.556  15.997  17.373  1.00  0.00     0.122 C 
BRANCH  31  32
HETATM   32  N5  UNL     1      -1.596  14.948  17.579  1.00  0.00    -0.367 N 
HETATM   33  C28 UNL     1      -1.368  14.064  16.670  1.00  0.00     0.196 C 
HETATM   34  N6  UNL     1      -2.064  14.105  15.430  1.00  0.00    -0.067 NA
HETATM   35  N7  UNL     1      -0.423  13.024  16.864  1.00  0.00    -0.067 NA
ATOM     36  H5  UNL     1      -1.086  14.902  18.461  1.00  0.00     0.161 HD
ENDBRANCH  31  32
ENDBRANCH  30  31
ENDBRANCH  29  30
ENDBRANCH  23  29
BRANCH  18  37
HETATM   37  C18 UNL     1       0.560  21.671  20.179  1.00  0.00     0.035 C 
BRANCH  37  38
HETATM   38  C19 UNL     1      -0.896  21.947  20.484  1.00  0.00     0.002 C 
BRANCH  38  39
HETATM   39  C20 UNL     1      -1.653  22.279  19.189  1.00  0.00    -0.004 C 
HETATM   40  C21 UNL     1      -2.482  21.092  18.750  1.00  0.00     0.005 C 
ENDBRANCH  38  39
ENDBRANCH  37  38
ENDBRANCH  18  37
BRANCH   1  41
HETATM   41  C4  UNL     1      -1.967  18.532  25.621  1.00  0.00     0.035 C 
BRANCH  41  42
HETATM   42  C3  UNL     1      -2.977  19.628  25.954  1.00  0.00     0.002 C 
BRANCH  42  43
HETATM   43  C2  UNL     1      -2.743  20.025  27.412  1.00  0.00    -0.004 C 
HETATM   44  C1  UNL     1      -1.605  19.208  27.996  1.00  0.00     0.005 C 
ENDBRANCH  42  43
ENDBRANCH  41  42
ENDBRANCH   1  41
BRANCH  13  45
HETATM   45  C13 UNL     1       4.613  22.401  22.304  1.00  0.00     0.009 C 
HETATM   46  C14 UNL     1       5.154  21.555  23.436  1.00  0.00     0.012 C 
HETATM   47  C15 UNL     1       5.280  21.993  21.039  1.00  0.00     0.012 C 
ENDBRANCH  13  45
TORSDOF 11
ENDMDL
MODEL 4
REMARK VINA RESULT: -6.594390400      3.514      7.976
REMARK  11 active torsions:
REMARK  status: ('A' for Active; 'I' for Inactive)
REMARK    1  A    between atoms: C2_2  and  C3_3 
REMARK    2  A    between atoms: C3_3  and  C4_4 
REMARK    3  A    between atoms: C4_4  and  C5_5 
REMARK    4  A    between atoms: C12_17  and  C13_18 
REMARK    5  A    between atoms: C17_25  and  C18_26 
REMARK    6  A    between atoms: C18_26  and  C19_27 
REMARK    7  A    between atoms: C19_27  and  C20_28 
REMARK    8  A    between atoms: C24_34  and  C25_35 
REMARK    9  A    between atoms: C25_35  and  C26_36 
REMARK   10  A    between atoms: C26_36  and  C27_37 
REMARK   11  A    between atoms: C27_37  and  N5_38 
ROOT
HETATM    1  C5  UNL     1      -0.290  18.073  19.380  1.00  0.00     0.178 C 
HETATM    2  N1  UNL     1      -1.103  19.272  19.416  1.00  0.00    -0.346 N 
ATOM      3  H1  UNL     1      -0.974  19.892  20.216  1.00  0.00     0.163 HD
HETATM    4  C6  UNL     1      -2.050  19.664  18.461  1.00  0.00     0.241 C 
HETATM    5  O1  UNL     1      -3.135  20.147  18.943  1.00  0.00    -0.271 OA
HETATM    6  C7  UNL     1      -1.928  19.578  17.011  1.00  0.00     0.179 C 
HETATM    7  C8  UNL     1      -2.420  18.222  16.463  1.00  0.00     0.037 C 
HETATM    8  C9  UNL     1      -3.883  18.378  16.811  1.00  0.00     0.022 C 
HETATM    9  C10 UNL     1      -4.155  19.807  16.481  1.00  0.00     0.127 C 
HETATM   10  N2  UNL     1      -2.834  20.405  16.255  1.00  0.00    -0.337 N 
HETATM   11  C11 UNL     1      -2.522  21.514  15.450  1.00  0.00     0.243 C 
HETATM   12  O2  UNL     1      -2.948  21.564  14.222  1.00  0.00    -0.271 OA
HETATM   13  C12 UNL     1      -1.734  22.707  15.814  1.00  0.00     0.180 C 
HETATM   14  N3  UNL     1      -1.245  22.740  17.162  1.00  0.00    -0.346 N 
ATOM     15  H3  UNL     1      -1.965  22.686  17.882  1.00  0.00     0.163 HD
HETATM   16  C16 UNL     1       0.064  22.835  17.646  1.00  0.00     0.241 C 
HETATM   17  O3  UNL     1       0.336  23.815  18.440  1.00  0.00    -0.271 OA
HETATM   18  C17 UNL     1       1.223  21.936  17.365  1.00  0.00     0.178 C 
HETATM   19  N4  UNL     1       2.433  22.430  17.975  1.00  0.00    -0.342 N 
HETATM   20  C22 UNL     1       3.197  23.437  17.264  1.00  0.00     0.153 C 
HETATM   21  C23 UNL     1       2.949  22.043  19.242  1.00  0.00     0.241 C 
HETATM   22  O4  UNL     1       3.675  22.927  19.859  1.00  0.00    -0.271 OA
HETATM   23  C24 UNL     1       2.791  20.804  19.966  1.00  0.00     0.191 C 
HETATM   24  N8  UNL     1       2.617  19.602  19.202  1.00  0.00    -0.124 NA
HETATM   25  N9  UNL     1       2.181  18.529  19.964  1.00  0.00    -0.271 N 
ATOM     26  H9  UNL     1       2.907  17.901  20.309  1.00  0.00     0.185 HD
HETATM   27  C29 UNL     1       0.873  18.201  20.317  1.00  0.00     0.256 C 
HETATM   28  O5  UNL     1       0.633  17.986  21.557  1.00  0.00    -0.270 OA
ENDROOT
BRANCH  23  29
HETATM   29  C25 UNL     1       4.001  20.564  20.859  1.00  0.00     0.034 C 
BRANCH  29  30
HETATM   30  C26 UNL     1       3.715  20.702  22.315  1.00  0.00     0.022 C 
BRANCH  30  31
HETATM   31  C27 UNL     1       4.714  21.714  22.882  1.00  0.00     0.122 C 
BRANCH  31  32
HETATM   32  N5  UNL     1       4.711  21.699  24.318  1.00  0.00    -0.367 N 
HETATM   33  C28 UNL     1       5.811  21.646  24.987  1.00  0.00     0.196 C 
HETATM   34  N6  UNL     1       7.065  21.601  24.317  1.00  0.00    -0.067 NA
HETATM   35  N7  UNL     1       5.819  21.631  26.405  1.00  0.00    -0.067 NA
ATOM     36  H5  UNL     1       3.823  21.733  24.818  1.00  0.00     0.161 HD
ENDBRANCH  31  32
ENDBRANCH  30  31
ENDBRANCH  29  30
ENDBRANCH  23  29
BRANCH  18  37
HETATM   37  C18 UNL     1       1.443  21.707  15.887  1.00  0.00     0.035 C 
BRANCH  37  38
HETATM   38  C19 UNL     1       2.082  20.357  15.651  1.00  0.00     0.002 C 
BRANCH  38  39
HETATM   39  C20 UNL     1       3.484  20.535  15.046  1.00  0.00    -0.004 C 
HETATM   40  C21 UNL     1       3.404  21.357  13.779  1.00  0.00     0.005 C 
ENDBRANCH  38  39
ENDBRANCH  37  38
ENDBRANCH  18  37
BRANCH   1  41
HETATM   41  C4  UNL     1      -1.195  16.952  19.922  1.00  0.00     0.035 C 
BRANCH  41  42
HETATM   42  C3  UNL     1      -0.650  15.662  19.312  1.00  0.00     0.002 C 
BRANCH  42  43
HETATM   43  C2  UNL     1      -1.665  15.197  18.266  1.00  0.00    -0.004 C 
HETATM   44  C1  UNL     1      -0.999  14.255  17.281  1.00  0.00     0.005 C 
ENDBRANCH  42  43
ENDBRANCH  41  42
ENDBRANCH   1  41
BRANCH  13  45
HETATM   45  C13 UNL     1      -2.598  23.966  15.669  1.00  0.00     0.009 C 
HETATM   46  C14 UNL     1      -3.414  24.102  16.936  1.00  0.00     0.012 C 
HETATM   47  C15 UNL     1      -1.800  25.207  15.477  1.00  0.00     0.012 C 
ENDBRANCH  13  45
TORSDOF 11
ENDMDL
MODEL 5
REMARK VINA RESULT: -6.485371790      3.617      8.068
REMARK  11 active torsions:
REMARK  status: ('A' for Active; 'I' for Inactive)
REMARK    1  A    between atoms: C2_2  and  C3_3 
REMARK    2  A    between atoms: C3_3  and  C4_4 
REMARK    3  A    between atoms: C4_4  and  C5_5 
REMARK    4  A    between atoms: C12_17  and  C13_18 
REMARK    5  A    between atoms: C17_25  and  C18_26 
REMARK    6  A    between atoms: C18_26  and  C19_27 
REMARK    7  A    between atoms: C19_27  and  C20_28 
REMARK    8  A    between atoms: C24_34  and  C25_35 
REMARK    9  A    between atoms: C25_35  and  C26_36 
REMARK   10  A    between atoms: C26_36  and  C27_37 
REMARK   11  A    between atoms: C27_37  and  N5_38 
ROOT
HETATM    1  C5  UNL     1      -0.106  18.085  19.311  1.00  0.00     0.178 C 
HETATM    2  N1  UNL     1      -0.921  19.283  19.365  1.00  0.00    -0.346 N 
ATOM      3  H1  UNL     1      -0.773  19.904  20.160  1.00  0.00     0.163 HD
HETATM    4  C6  UNL     1      -1.893  19.670  18.434  1.00  0.00     0.241 C 
HETATM    5  O1  UNL     1      -2.966  20.152  18.943  1.00  0.00    -0.271 OA
HETATM    6  C7  UNL     1      -1.808  19.581  16.981  1.00  0.00     0.179 C 
HETATM    7  C8  UNL     1      -2.311  18.223  16.449  1.00  0.00     0.037 C 
HETATM    8  C9  UNL     1      -3.765  18.376  16.834  1.00  0.00     0.022 C 
HETATM    9  C10 UNL     1      -4.048  19.804  16.508  1.00  0.00     0.127 C 
HETATM   10  N2  UNL     1      -2.734  20.404  16.247  1.00  0.00    -0.337 N 
HETATM   11  C11 UNL     1      -2.446  21.512  15.431  1.00  0.00     0.243 C 
HETATM   12  O2  UNL     1      -2.903  21.558  14.215  1.00  0.00    -0.271 OA
HETATM   13  C12 UNL     1      -1.651  22.708  15.773  1.00  0.00     0.180 C 
HETATM   14  N3  UNL     1      -1.128  22.745  17.108  1.00  0.00    -0.346 N 
ATOM     15  H3  UNL     1      -1.830  22.691  17.847  1.00  0.00     0.163 HD
HETATM   16  C16 UNL     1       0.193  22.844  17.558  1.00  0.00     0.241 C 
HETATM   17  O3  UNL     1       0.483  23.827  18.343  1.00  0.00    -0.271 OA
HETATM   18  C17 UNL     1       1.346  21.947  17.250  1.00  0.00     0.178 C 
HETATM   19  N4  UNL     1       2.570  22.445  17.827  1.00  0.00    -0.342 N 
HETATM   20  C22 UNL     1       3.314  23.452  17.095  1.00  0.00     0.153 C 
HETATM   21  C23 UNL     1       3.119  22.062  19.082  1.00  0.00     0.241 C 
HETATM   22  O4  UNL     1       3.858  22.949  19.678  1.00  0.00    -0.271 OA
HETATM   23  C24 UNL     1       2.982  20.824  19.812  1.00  0.00     0.191 C 
HETATM   24  N8  UNL     1       2.792  19.620  19.056  1.00  0.00    -0.124 NA
HETATM   25  N9  UNL     1       2.377  18.547  19.831  1.00  0.00    -0.271 N 
ATOM     26  H9  UNL     1       3.113  17.922  20.158  1.00  0.00     0.185 HD
HETATM   27  C29 UNL     1       1.080  18.217  20.218  1.00  0.00     0.256 C 
HETATM   28  O5  UNL     1       0.872  18.005  21.464  1.00  0.00    -0.270 OA
ENDROOT
BRANCH  23  29
HETATM   29  C25 UNL     1       4.216  20.589  20.674  1.00  0.00     0.034 C 
BRANCH  29  30
HETATM   30  C26 UNL     1       4.075  21.076  22.076  1.00  0.00     0.022 C 
BRANCH  30  31
HETATM   31  C27 UNL     1       5.459  21.540  22.538  1.00  0.00     0.122 C 
BRANCH  31  32
HETATM   32  N5  UNL     1       5.879  22.714  21.825  1.00  0.00    -0.367 N 
HETATM   33  C28 UNL     1       6.261  23.774  22.451  1.00  0.00     0.196 C 
HETATM   34  N6  UNL     1       6.278  23.808  23.873  1.00  0.00    -0.067 NA
HETATM   35  N7  UNL     1       6.678  24.938  21.756  1.00  0.00    -0.067 NA
ATOM     36  H5  UNL     1       5.875  22.709  20.805  1.00  0.00     0.161 HD
ENDBRANCH  31  32
ENDBRANCH  30  31
ENDBRANCH  29  30
ENDBRANCH  23  29
BRANCH  18  37
HETATM   37  C18 UNL     1       1.528  21.715  15.767  1.00  0.00     0.035 C 
BRANCH  37  38
HETATM   38  C19 UNL     1       2.226  20.396  15.521  1.00  0.00     0.002 C 
BRANCH  38  39
HETATM   39  C20 UNL     1       3.575  20.635  14.823  1.00  0.00    -0.004 C 
HETATM   40  C21 UNL     1       3.370  21.428  13.550  1.00  0.00     0.005 C 
ENDBRANCH  38  39
ENDBRANCH  37  38
ENDBRANCH  18  37
BRANCH   1  41
HETATM   41  C4  UNL     1      -0.994  16.963  19.878  1.00  0.00     0.035 C 
BRANCH  41  42
HETATM   42  C3  UNL     1      -0.500  15.680  19.213  1.00  0.00     0.002 C 
BRANCH  42  43
HETATM   43  C2  UNL     1      -1.633  15.174  18.319  1.00  0.00    -0.004 C 
HETATM   44  C1  UNL     1      -1.082  14.227  17.270  1.00  0.00     0.005 C 
ENDBRANCH  42  43
ENDBRANCH  41  42
ENDBRANCH   1  41
BRANCH  13  45
HETATM   45  C13 UNL     1      -2.521  23.965  15.647  1.00  0.00     0.009 C 
HETATM   46  C14 UNL     1      -3.289  24.114  16.943  1.00  0.00     0.012 C 
HETATM   47  C15 UNL     1      -1.733  25.204  15.412  1.00  0.00     0.012 C 
ENDBRANCH  13  45
TORSDOF 11
ENDMDL
