MODEL 1
REMARK VINA RESULT: -7.781806435      0.000      0.000
REMARK  12 active torsions:
REMARK  status: ('A' for Active; 'I' for Inactive)
REMARK    1  A    between atoms: N1_2  and  C2_3 
REMARK    2  A    between atoms: C2_3  and  C3_4 
REMARK       I    between atoms: C3_4  and  N2_6 
REMARK    3  A    between atoms: N2_6  and  C4_8 
REMARK    4  A    between atoms: C5_11  and  C6_12 
REMARK    5  A    between atoms: C6_12  and  C7_13 
REMARK    6  A    between atoms: C7_13  and  C8_14 
REMARK    7  A    between atoms: C8_14  and  C9_15 
REMARK    8  A    between atoms: C9_15  and  C10_16 
REMARK    9  A    between atoms: C13_23  and  C14_24 
REMARK   10  A    between atoms: C14_24  and  N6_25 
REMARK   11  A    between atoms: C17_28  and  C18_29 
REMARK   12  A    between atoms: N7_30  and  N8_32 
ROOT
HETATM    1  C4  UNL     1      17.152 -14.022  21.649  1.00  0.00     0.119 A 
HETATM    2  N3  UNL     1      18.333 -14.200  22.314  1.00  0.00    -0.345 N 
ATOM      3  H3  UNL     1      18.360 -14.850  23.100  1.00  0.00     0.167 HD
HETATM    4  C5  UNL     1      19.457 -13.555  21.974  1.00  0.00     0.011 A 
HETATM    5  C11 UNL     1      19.364 -12.676  20.889  1.00  0.00     0.026 A 
HETATM    6  C12 UNL     1      18.186 -12.492  20.215  1.00  0.00     0.018 A 
HETATM    7  C13 UNL     1      17.040 -13.185  20.604  1.00  0.00     0.024 A 
ENDROOT
BRANCH   7   8
HETATM    8  C14 UNL     1      15.834 -12.858  19.817  1.00  0.00     0.111 C 
BRANCH   8   9
HETATM    9  N6  UNL     1      14.859 -12.040  20.420  1.00  0.00    -0.342 N 
HETATM   10  C15 UNL     1      13.659 -12.634  20.748  1.00  0.00     0.096 A 
HETATM   11  C16 UNL     1      12.691 -11.899  21.381  1.00  0.00     0.030 A 
HETATM   12  C17 UNL     1      12.837 -10.585  21.721  1.00  0.00    -0.017 A 
HETATM   13  C19 UNL     1      14.040  -9.996  21.394  1.00  0.00     0.030 A 
HETATM   14  C20 UNL     1      15.015 -10.776  20.743  1.00  0.00     0.096 A 
BRANCH  12  15
HETATM   15  C18 UNL     1      11.774  -9.832  22.395  1.00  0.00     0.120 C 
HETATM   16  N7  UNL     1      12.011  -9.407  23.585  1.00  0.00    -0.297 N 
ATOM     17  H7  UNL     1      12.924  -9.619  23.987  1.00  0.00     0.187 HD
BRANCH  16  18
HETATM   18  N8  UNL     1      11.156  -8.712  24.333  1.00  0.00    -0.250 N 
HETATM   19  N9  UNL     1      10.677  -7.715  24.787  1.00  0.00    -0.331 N 
ATOM     20  H92 UNL     1      11.268  -7.015  24.339  1.00  0.00     0.178 HD
ATOM     21  H91 UNL     1      10.022  -7.182  25.361  1.00  0.00     0.178 HD
ATOM     22  H8  UNL     1      10.589  -9.445  24.761  1.00  0.00     0.207 HD
ENDBRANCH  16  18
ENDBRANCH  12  15
ENDBRANCH   8   9
ENDBRANCH   7   8
BRANCH   1  23
HETATM   23  N2  UNL     1      16.084 -14.680  22.023  1.00  0.00    -0.311 N 
HETATM   24  C3  UNL     1      16.177 -16.092  22.097  1.00  0.00     0.251 C 
HETATM   25  O1  UNL     1      16.573 -16.657  23.127  1.00  0.00    -0.271 OA
ATOM     26  H2  UNL     1      15.217 -14.194  22.253  1.00  0.00     0.170 HD
BRANCH  24  27
HETATM   27  C2  UNL     1      15.794 -16.874  20.918  1.00  0.00     0.372 C 
BRANCH  27  28
HETATM   28  N1  UNL     1      14.427 -16.814  20.527  1.00  0.00     0.080 N 
HETATM   29  C1  UNL     1      14.125 -16.103  19.295  1.00  0.00     0.308 C 
HETATM   30  N10 UNL     1      13.989 -18.176  20.310  1.00  0.00    -0.029 NA
HETATM   31  C21 UNL     1      13.377 -18.240  21.619  1.00  0.00     0.256 C 
HETATM   32  C22 UNL     1      13.427 -16.745  21.517  1.00  0.00     0.354 C 
HETATM   33  O2  UNL     1      12.845 -15.816  22.060  1.00  0.00    -0.262 OA
ENDBRANCH  27  28
ENDBRANCH  24  27
ENDBRANCH   1  23
BRANCH   4  34
HETATM   34  C6  UNL     1      20.743 -13.759  22.680  1.00  0.00     0.057 C 
BRANCH  34  35
HETATM   35  C7  UNL     1      20.747 -13.223  24.089  1.00  0.00     0.006 C 
BRANCH  35  36
HETATM   36  C8  UNL     1      20.670 -14.355  25.094  1.00  0.00     0.007 C 
BRANCH  36  37
HETATM   37  C9  UNL     1      19.594 -14.129  26.135  1.00  0.00     0.072 C 
BRANCH  37  38
HETATM   38  C10 UNL     1      18.508 -15.121  26.044  1.00  0.00     0.086 C 
HETATM   39  N4  UNL     1      17.378 -14.804  25.476  1.00  0.00    -0.391 N 
ATOM     40  H42 UNL     1      17.278 -13.856  25.111  1.00  0.00     0.157 HD
ATOM     41  H41 UNL     1      16.626 -15.490  25.413  1.00  0.00     0.157 HD
HETATM   42  N5  UNL     1      18.647 -16.441  26.553  1.00  0.00    -0.088 NA
ENDBRANCH  37  38
ENDBRANCH  36  37
ENDBRANCH  35  36
ENDBRANCH  34  35
ENDBRANCH   4  34
TORSDOF 12
ENDMDL
MODEL 2
REMARK VINA RESULT: -7.725341459      2.360      7.089
REMARK  12 active torsions:
REMARK  status: ('A' for Active; 'I' for Inactive)
REMARK    1  A    between atoms: N1_2  and  C2_3 
REMARK    2  A    between atoms: C2_3  and  C3_4 
REMARK       I    between atoms: C3_4  and  N2_6 
REMARK    3  A    between atoms: N2_6  and  C4_8 
REMARK    4  A    between atoms: C5_11  and  C6_12 
REMARK    5  A    between atoms: C6_12  and  C7_13 
REMARK    6  A    between atoms: C7_13  and  C8_14 
REMARK    7  A    between atoms: C8_14  and  C9_15 
REMARK    8  A    between atoms: C9_15  and  C10_16 
REMARK    9  A    between atoms: C13_23  and  C14_24 
REMARK   10  A    between atoms: C14_24  and  N6_25 
REMARK   11  A    between atoms: C17_28  and  C18_29 
REMARK   12  A    between atoms: N7_30  and  N8_32 
ROOT
HETATM    1  C4  UNL     1      14.710 -13.979  20.220  1.00  0.00     0.119 A 
HETATM    2  N3  UNL     1      14.035 -12.862  19.814  1.00  0.00    -0.345 N 
ATOM      3  H3  UNL     1      13.245 -12.970  19.178  1.00  0.00     0.167 HD
HETATM    4  C5  UNL     1      14.371 -11.629  20.218  1.00  0.00     0.011 A 
HETATM    5  C11 UNL     1      15.462 -11.538  21.090  1.00  0.00     0.026 A 
HETATM    6  C12 UNL     1      16.144 -12.652  21.505  1.00  0.00     0.018 A 
HETATM    7  C13 UNL     1      15.759 -13.916  21.057  1.00  0.00     0.024 A 
ENDROOT
BRANCH   7   8
HETATM    8  C14 UNL     1      16.606 -15.020  21.549  1.00  0.00     0.111 C 
BRANCH   8   9
HETATM    9  N6  UNL     1      17.841 -14.687  22.138  1.00  0.00    -0.342 N 
HETATM   10  C15 UNL     1      18.927 -14.578  21.296  1.00  0.00     0.096 A 
HETATM   11  C16 UNL     1      20.144 -14.209  21.806  1.00  0.00     0.030 A 
HETATM   12  C17 UNL     1      20.362 -13.931  23.125  1.00  0.00    -0.017 A 
HETATM   13  C19 UNL     1      19.272 -14.039  23.963  1.00  0.00     0.030 A 
HETATM   14  C20 UNL     1      18.034 -14.422  23.410  1.00  0.00     0.096 A 
BRANCH  12  15
HETATM   15  C18 UNL     1      21.683 -13.543  23.632  1.00  0.00     0.120 C 
HETATM   16  N7  UNL     1      22.692 -14.241  23.251  1.00  0.00    -0.297 N 
ATOM     17  H7  UNL     1      22.513 -15.021  22.618  1.00  0.00     0.187 HD
BRANCH  16  18
HETATM   18  N8  UNL     1      23.954 -14.024  23.617  1.00  0.00    -0.250 N 
HETATM   19  N9  UNL     1      25.058 -14.347  23.947  1.00  0.00    -0.331 N 
ATOM     20  H92 UNL     1      24.955 -15.362  23.934  1.00  0.00     0.178 HD
ATOM     21  H91 UNL     1      26.024 -14.181  24.228  1.00  0.00     0.178 HD
ATOM     22  H8  UNL     1      24.013 -13.005  23.617  1.00  0.00     0.207 HD
ENDBRANCH  16  18
ENDBRANCH  12  15
ENDBRANCH   8   9
ENDBRANCH   7   8
BRANCH   1  23
HETATM   23  N2  UNL     1      14.337 -15.160  19.795  1.00  0.00    -0.311 N 
HETATM   24  C3  UNL     1      13.006 -15.562  20.063  1.00  0.00     0.251 C 
HETATM   25  O1  UNL     1      12.079 -15.274  19.291  1.00  0.00    -0.271 OA
ATOM     26  H2  UNL     1      14.982 -15.767  19.289  1.00  0.00     0.170 HD
BRANCH  24  27
HETATM   27  C2  UNL     1      12.747 -16.330  21.285  1.00  0.00     0.372 C 
BRANCH  27  28
HETATM   28  N1  UNL     1      12.763 -17.748  21.165  1.00  0.00     0.080 N 
HETATM   29  C1  UNL     1      11.546 -18.381  20.685  1.00  0.00     0.308 C 
HETATM   30  N10 UNL     1      13.785 -18.079  20.195  1.00  0.00    -0.029 NA
HETATM   31  C21 UNL     1      14.744 -18.383  21.235  1.00  0.00     0.256 C 
HETATM   32  C22 UNL     1      13.513 -18.511  22.082  1.00  0.00     0.354 C 
HETATM   33  O2  UNL     1      13.240 -19.054  23.143  1.00  0.00    -0.262 OA
ENDBRANCH  27  28
ENDBRANCH  24  27
ENDBRANCH   1  23
BRANCH   4  34
HETATM   34  C6  UNL     1      13.633 -10.417  19.795  1.00  0.00     0.057 C 
BRANCH  34  35
HETATM   35  C7  UNL     1      13.348  -9.461  20.925  1.00  0.00     0.006 C 
BRANCH  35  36
HETATM   36  C8  UNL     1      11.961  -9.696  21.491  1.00  0.00     0.007 C 
BRANCH  36  37
HETATM   37  C9  UNL     1      12.001 -10.238  22.905  1.00  0.00     0.072 C 
BRANCH  37  38
HETATM   38  C10 UNL     1      11.505 -11.623  22.990  1.00  0.00     0.086 C 
HETATM   39  N4  UNL     1      10.481 -11.906  23.744  1.00  0.00    -0.391 N 
ATOM     40  H42 UNL     1      10.050 -11.144  24.268  1.00  0.00     0.157 HD
ATOM     41  H41 UNL     1      10.137 -12.865  23.802  1.00  0.00     0.157 HD
HETATM   42  N5  UNL     1      12.106 -12.684  22.259  1.00  0.00    -0.088 NA
ENDBRANCH  37  38
ENDBRANCH  36  37
ENDBRANCH  35  36
ENDBRANCH  34  35
ENDBRANCH   4  34
TORSDOF 12
ENDMDL
MODEL 3
REMARK VINA RESULT: -7.707462737      1.021      1.425
REMARK  12 active torsions:
REMARK  status: ('A' for Active; 'I' for Inactive)
REMARK    1  A    between atoms: N1_2  and  C2_3 
REMARK    2  A    between atoms: C2_3  and  C3_4 
REMARK       I    between atoms: C3_4  and  N2_6 
REMARK    3  A    between atoms: N2_6  and  C4_8 
REMARK    4  A    between atoms: C5_11  and  C6_12 
REMARK    5  A    between atoms: C6_12  and  C7_13 
REMARK    6  A    between atoms: C7_13  and  C8_14 
REMARK    7  A    between atoms: C8_14  and  C9_15 
REMARK    8  A    between atoms: C9_15  and  C10_16 
REMARK    9  A    between atoms: C13_23  and  C14_24 
REMARK   10  A    between atoms: C14_24  and  N6_25 
REMARK   11  A    between atoms: C17_28  and  C18_29 
REMARK   12  A    between atoms: N7_30  and  N8_32 
ROOT
HETATM    1  C4  UNL     1      17.377 -14.184  21.986  1.00  0.00     0.119 A 
HETATM    2  N3  UNL     1      18.641 -14.159  22.507  1.00  0.00    -0.345 N 
ATOM      3  H3  UNL     1      18.839 -14.713  23.340  1.00  0.00     0.167 HD
HETATM    4  C5  UNL     1      19.631 -13.436  21.965  1.00  0.00     0.011 A 
HETATM    5  C11 UNL     1      19.305 -12.695  20.823  1.00  0.00     0.026 A 
HETATM    6  C12 UNL     1      18.042 -12.715  20.292  1.00  0.00     0.018 A 
HETATM    7  C13 UNL     1      17.042 -13.483  20.890  1.00  0.00     0.024 A 
ENDROOT
BRANCH   7   8
HETATM    8  C14 UNL     1      15.722 -13.377  20.239  1.00  0.00     0.111 C 
BRANCH   8   9
HETATM    9  N6  UNL     1      14.831 -12.397  20.718  1.00  0.00    -0.342 N 
HETATM   10  C15 UNL     1      13.746 -12.840  21.444  1.00  0.00     0.096 A 
HETATM   11  C16 UNL     1      12.871 -11.930  21.977  1.00  0.00     0.030 A 
HETATM   12  C17 UNL     1      13.004 -10.577  21.837  1.00  0.00    -0.017 A 
HETATM   13  C19 UNL     1      14.093 -10.140  21.112  1.00  0.00     0.030 A 
HETATM   14  C20 UNL     1      14.973 -11.099  20.576  1.00  0.00     0.096 A 
BRANCH  12  15
HETATM   15  C18 UNL     1      12.042  -9.636  22.420  1.00  0.00     0.120 C 
HETATM   16  N7  UNL     1      11.941  -9.610  23.702  1.00  0.00    -0.297 N 
ATOM     17  H7  UNL     1      12.535 -10.245  24.234  1.00  0.00     0.187 HD
BRANCH  16  18
HETATM   18  N8  UNL     1      11.119  -8.818  24.387  1.00  0.00    -0.250 N 
HETATM   19  N9  UNL     1      10.692  -7.766  24.764  1.00  0.00    -0.331 N 
ATOM     20  H92 UNL     1      11.327  -7.133  24.277  1.00  0.00     0.178 HD
ATOM     21  H91 UNL     1      10.062  -7.159  25.289  1.00  0.00     0.178 HD
ATOM     22  H8  UNL     1      10.506  -9.486  24.856  1.00  0.00     0.207 HD
ENDBRANCH  16  18
ENDBRANCH  12  15
ENDBRANCH   8   9
ENDBRANCH   7   8
BRANCH   1  23
HETATM   23  N2  UNL     1      16.449 -14.910  22.555  1.00  0.00    -0.311 N 
HETATM   24  C3  UNL     1      16.659 -16.310  22.619  1.00  0.00     0.251 C 
HETATM   25  O1  UNL     1      17.280 -16.824  23.561  1.00  0.00    -0.271 OA
ATOM     26  H2  UNL     1      15.605 -14.483  22.939  1.00  0.00     0.170 HD
BRANCH  24  27
HETATM   27  C2  UNL     1      16.125 -17.140  21.536  1.00  0.00     0.372 C 
BRANCH  27  28
HETATM   28  N1  UNL     1      14.896 -17.811  21.791  1.00  0.00     0.080 N 
HETATM   29  C1  UNL     1      14.946 -18.962  22.678  1.00  0.00     0.308 C 
HETATM   30  N10 UNL     1      14.019 -16.857  22.436  1.00  0.00    -0.029 NA
HETATM   31  C21 UNL     1      13.340 -16.565  21.193  1.00  0.00     0.256 C 
HETATM   32  C22 UNL     1      13.922 -17.882  20.775  1.00  0.00     0.354 C 
HETATM   33  O2  UNL     1      13.674 -18.707  19.907  1.00  0.00    -0.262 OA
ENDBRANCH  27  28
ENDBRANCH  24  27
ENDBRANCH   1  23
BRANCH   4  34
HETATM   34  C6  UNL     1      21.006 -13.420  22.515  1.00  0.00     0.057 C 
BRANCH  34  35
HETATM   35  C7  UNL     1      21.110 -14.023  23.892  1.00  0.00     0.006 C 
BRANCH  35  36
HETATM   36  C8  UNL     1      20.669 -13.029  24.949  1.00  0.00     0.007 C 
BRANCH  36  37
HETATM   37  C9  UNL     1      20.143 -13.710  26.195  1.00  0.00     0.072 C 
BRANCH  37  38
HETATM   38  C10 UNL     1      19.023 -14.623  25.907  1.00  0.00     0.086 C 
HETATM   39  N4  UNL     1      19.153 -15.903  26.113  1.00  0.00    -0.391 N 
ATOM     40  H42 UNL     1      20.048 -16.240  26.469  1.00  0.00     0.157 HD
ATOM     41  H41 UNL     1      18.378 -16.536  25.913  1.00  0.00     0.157 HD
HETATM   42  N5  UNL     1      17.777 -14.154  25.410  1.00  0.00    -0.088 NA
ENDBRANCH  37  38
ENDBRANCH  36  37
ENDBRANCH  35  36
ENDBRANCH  34  35
ENDBRANCH   4  34
TORSDOF 12
ENDMDL
MODEL 4
REMARK VINA RESULT: -7.675091618      2.940      6.348
REMARK  12 active torsions:
REMARK  status: ('A' for Active; 'I' for Inactive)
REMARK    1  A    between atoms: N1_2  and  C2_3 
REMARK    2  A    between atoms: C2_3  and  C3_4 
REMARK       I    between atoms: C3_4  and  N2_6 
REMARK    3  A    between atoms: N2_6  and  C4_8 
REMARK    4  A    between atoms: C5_11  and  C6_12 
REMARK    5  A    between atoms: C6_12  and  C7_13 
REMARK    6  A    between atoms: C7_13  and  C8_14 
REMARK    7  A    between atoms: C8_14  and  C9_15 
REMARK    8  A    between atoms: C9_15  and  C10_16 
REMARK    9  A    between atoms: C13_23  and  C14_24 
REMARK   10  A    between atoms: C14_24  and  N6_25 
REMARK   11  A    between atoms: C17_28  and  C18_29 
REMARK   12  A    between atoms: N7_30  and  N8_32 
ROOT
HETATM    1  C4  UNL     1      16.035 -13.543  20.294  1.00  0.00     0.119 A 
HETATM    2  N3  UNL     1      17.392 -13.460  20.150  1.00  0.00    -0.345 N 
ATOM      3  H3  UNL     1      17.783 -12.669  19.638  1.00  0.00     0.167 HD
HETATM    4  C5  UNL     1      18.229 -14.376  20.655  1.00  0.00     0.011 A 
HETATM    5  C11 UNL     1      17.640 -15.439  21.348  1.00  0.00     0.026 A 
HETATM    6  C12 UNL     1      16.281 -15.531  21.500  1.00  0.00     0.018 A 
HETATM    7  C13 UNL     1      15.448 -14.554  20.956  1.00  0.00     0.024 A 
ENDROOT
BRANCH   7   8
HETATM    8  C14 UNL     1      14.007 -14.801  21.159  1.00  0.00     0.111 C 
BRANCH   8   9
HETATM    9  N6  UNL     1      13.356 -15.663  20.255  1.00  0.00    -0.342 N 
HETATM   10  C15 UNL     1      12.533 -16.629  20.794  1.00  0.00     0.096 A 
HETATM   11  C16 UNL     1      11.836 -17.465  19.962  1.00  0.00     0.030 A 
HETATM   12  C17 UNL     1      11.898 -17.405  18.599  1.00  0.00    -0.017 A 
HETATM   13  C19 UNL     1      12.720 -16.435  18.065  1.00  0.00     0.030 A 
HETATM   14  C20 UNL     1      13.425 -15.592  18.945  1.00  0.00     0.096 A 
BRANCH  12  15
HETATM   15  C18 UNL     1      11.138 -18.322  17.743  1.00  0.00     0.120 C 
HETATM   16  N7  UNL     1      10.454 -19.243  18.322  1.00  0.00    -0.297 N 
ATOM     17  H7  UNL     1      10.481 -19.280  19.341  1.00  0.00     0.187 HD
BRANCH  16  18
HETATM   18  N8  UNL     1       9.713 -20.154  17.694  1.00  0.00    -0.250 N 
HETATM   19  N9  UNL     1       9.335 -20.775  16.744  1.00  0.00    -0.331 N 
ATOM     20  H92 UNL     1       9.920 -20.362  16.018  1.00  0.00     0.178 HD
ATOM     21  H91 UNL     1       8.767 -21.473  16.263  1.00  0.00     0.178 HD
ATOM     22  H8  UNL     1       9.147 -20.540  18.451  1.00  0.00     0.207 HD
ENDBRANCH  16  18
ENDBRANCH  12  15
ENDBRANCH   8   9
ENDBRANCH   7   8
BRANCH   1  23
HETATM   23  N2  UNL     1      15.264 -12.618  19.781  1.00  0.00    -0.311 N 
HETATM   24  C3  UNL     1      15.422 -11.294  20.259  1.00  0.00     0.251 C 
HETATM   25  O1  UNL     1      16.251 -10.523  19.755  1.00  0.00    -0.271 OA
ATOM     26  H2  UNL     1      14.576 -12.843  19.062  1.00  0.00     0.170 HD
BRANCH  24  27
HETATM   27  C2  UNL     1      14.579 -10.856  21.375  1.00  0.00     0.372 C 
BRANCH  27  28
HETATM   28  N1  UNL     1      13.249 -10.462  21.056  1.00  0.00     0.080 N 
HETATM   29  C1  UNL     1      13.093  -9.435  20.039  1.00  0.00     0.308 C 
HETATM   30  N10 UNL     1      12.575 -11.633  20.537  1.00  0.00    -0.029 NA
HETATM   31  C21 UNL     1      11.948 -11.899  21.814  1.00  0.00     0.256 C 
HETATM   32  C22 UNL     1      12.268 -10.456  22.068  1.00  0.00     0.354 C 
HETATM   33  O2  UNL     1      11.859  -9.596  22.834  1.00  0.00    -0.262 OA
ENDBRANCH  27  28
ENDBRANCH  24  27
ENDBRANCH   1  23
BRANCH   4  34
HETATM   34  C6  UNL     1      19.701 -14.280  20.518  1.00  0.00     0.057 C 
BRANCH  34  35
HETATM   35  C7  UNL     1      20.312 -13.177  21.343  1.00  0.00     0.006 C 
BRANCH  35  36
HETATM   36  C8  UNL     1      20.247 -13.512  22.820  1.00  0.00     0.007 C 
BRANCH  36  37
HETATM   37  C9  UNL     1      21.622 -13.633  23.443  1.00  0.00     0.072 C 
BRANCH  37  38
HETATM   38  C10 UNL     1      21.622 -13.287  24.875  1.00  0.00     0.086 C 
HETATM   39  N4  UNL     1      22.257 -14.038  25.730  1.00  0.00    -0.391 N 
ATOM     40  H42 UNL     1      22.740 -14.863  25.372  1.00  0.00     0.157 HD
ATOM     41  H41 UNL     1      22.257 -13.799  26.721  1.00  0.00     0.157 HD
HETATM   42  N5  UNL     1      20.949 -12.138  25.373  1.00  0.00    -0.088 NA
ENDBRANCH  37  38
ENDBRANCH  36  37
ENDBRANCH  35  36
ENDBRANCH  34  35
ENDBRANCH   4  34
TORSDOF 12
ENDMDL
MODEL 5
REMARK VINA RESULT: -7.672585003      2.753      7.983
REMARK  12 active torsions:
REMARK  status: ('A' for Active; 'I' for Inactive)
REMARK    1  A    between atoms: N1_2  and  C2_3 
REMARK    2  A    between atoms: C2_3  and  C3_4 
REMARK       I    between atoms: C3_4  and  N2_6 
REMARK    3  A    between atoms: N2_6  and  C4_8 
REMARK    4  A    between atoms: C5_11  and  C6_12 
REMARK    5  A    between atoms: C6_12  and  C7_13 
REMARK    6  A    between atoms: C7_13  and  C8_14 
REMARK    7  A    between atoms: C8_14  and  C9_15 
REMARK    8  A    between atoms: C9_15  and  C10_16 
REMARK    9  A    between atoms: C13_23  and  C14_24 
REMARK   10  A    between atoms: C14_24  and  N6_25 
REMARK   11  A    between atoms: C17_28  and  C18_29 
REMARK   12  A    between atoms: N7_30  and  N8_32 
ROOT
HETATM    1  C4  UNL     1      14.940 -14.816  21.187  1.00  0.00     0.119 A 
HETATM    2  N3  UNL     1      14.281 -16.003  21.031  1.00  0.00    -0.345 N 
ATOM      3  H3  UNL     1      13.349 -16.104  21.434  1.00  0.00     0.167 HD
HETATM    4  C5  UNL     1      14.810 -17.041  20.369  1.00  0.00     0.011 A 
HETATM    5  C11 UNL     1      16.090 -16.849  19.835  1.00  0.00     0.026 A 
HETATM    6  C12 UNL     1      16.758 -15.662  19.985  1.00  0.00     0.018 A 
HETATM    7  C13 UNL     1      16.168 -14.608  20.683  1.00  0.00     0.024 A 
ENDROOT
BRANCH   7   8
HETATM    8  C14 UNL     1      17.016 -13.406  20.803  1.00  0.00     0.111 C 
BRANCH   8   9
HETATM    9  N6  UNL     1      18.171 -13.495  21.604  1.00  0.00    -0.342 N 
HETATM   10  C15 UNL     1      19.380 -13.258  20.986  1.00  0.00     0.096 A 
HETATM   11  C16 UNL     1      20.534 -13.284  21.725  1.00  0.00     0.030 A 
HETATM   12  C17 UNL     1      20.570 -13.530  23.068  1.00  0.00    -0.017 A 
HETATM   13  C19 UNL     1      19.357 -13.764  23.682  1.00  0.00     0.030 A 
HETATM   14  C20 UNL     1      18.189 -13.733  22.896  1.00  0.00     0.096 A 
BRANCH  12  15
HETATM   15  C18 UNL     1      21.828 -13.552  23.823  1.00  0.00     0.120 C 
HETATM   16  N7  UNL     1      22.905 -13.813  23.171  1.00  0.00    -0.297 N 
ATOM     17  H7  UNL     1      22.819 -13.988  22.170  1.00  0.00     0.187 HD
BRANCH  16  18
HETATM   18  N8  UNL     1      24.124 -13.872  23.704  1.00  0.00    -0.250 N 
HETATM   19  N9  UNL     1      25.181 -14.382  23.936  1.00  0.00    -0.331 N 
ATOM     20  H92 UNL     1      25.065 -15.265  23.439  1.00  0.00     0.178 HD
ATOM     21  H91 UNL     1      26.115 -14.427  24.343  1.00  0.00     0.178 HD
ATOM     22  H8  UNL     1      24.199 -12.977  24.187  1.00  0.00     0.207 HD
ENDBRANCH  16  18
ENDBRANCH  12  15
ENDBRANCH   8   9
ENDBRANCH   7   8
BRANCH   1  23
HETATM   23  N2  UNL     1      14.374 -13.834  21.843  1.00  0.00    -0.311 N 
HETATM   24  C3  UNL     1      13.069 -13.449  21.448  1.00  0.00     0.251 C 
HETATM   25  O1  UNL     1      12.065 -14.003  21.919  1.00  0.00    -0.271 OA
ATOM     26  H2  UNL     1      14.855 -13.364  22.610  1.00  0.00     0.170 HD
BRANCH  24  27
HETATM   27  C2  UNL     1      12.933 -12.375  20.459  1.00  0.00     0.372 C 
BRANCH  27  28
HETATM   28  N1  UNL     1      12.965 -11.041  20.955  1.00  0.00     0.080 N 
HETATM   29  C1  UNL     1      11.852 -10.625  21.793  1.00  0.00     0.308 C 
HETATM   30  N10 UNL     1      14.144 -10.927  21.786  1.00  0.00    -0.029 NA
HETATM   31  C21 UNL     1      14.897 -10.306  20.718  1.00  0.00     0.256 C 
HETATM   32  C22 UNL     1      13.532 -10.022  20.164  1.00  0.00     0.354 C 
HETATM   33  O2  UNL     1      13.068  -9.232  19.355  1.00  0.00    -0.262 OA
ENDBRANCH  27  28
ENDBRANCH  24  27
ENDBRANCH   1  23
BRANCH   4  34
HETATM   34  C6  UNL     1      14.093 -18.323  20.181  1.00  0.00     0.057 C 
BRANCH  34  35
HETATM   35  C7  UNL     1      12.981 -18.541  21.175  1.00  0.00     0.006 C 
BRANCH  35  36
HETATM   36  C8  UNL     1      11.634 -18.556  20.479  1.00  0.00     0.007 C 
BRANCH  36  37
HETATM   37  C9  UNL     1      10.953 -17.204  20.516  1.00  0.00     0.072 C 
BRANCH  37  38
HETATM   38  C10 UNL     1      10.968 -16.533  19.204  1.00  0.00     0.086 C 
HETATM   39  N4  UNL     1      10.048 -16.802  18.321  1.00  0.00    -0.391 N 
ATOM     40  H42 UNL     1       9.336 -17.489  18.570  1.00  0.00     0.157 HD
ATOM     41  H41 UNL     1      10.058 -16.338  17.413  1.00  0.00     0.157 HD
HETATM   42  N5  UNL     1      11.961 -15.576  18.857  1.00  0.00    -0.088 NA
ENDBRANCH  37  38
ENDBRANCH  36  37
ENDBRANCH  35  36
ENDBRANCH  34  35
ENDBRANCH   4  34
TORSDOF 12
ENDMDL
