MODEL 1
REMARK VINA RESULT: -8.733496232      0.000      0.000
REMARK  7 active torsions:
REMARK  status: ('A' for Active; 'I' for Inactive)
REMARK    1  A    between atoms: C2_2  and  C4_4 
REMARK    2  A    between atoms: C8_11  and  O1_12 
REMARK    3  A    between atoms: O1_12  and  C9_13 
REMARK    4  A    between atoms: C9_13  and  C10_15 
REMARK    5  A    between atoms: C11_16  and  C12_17 
REMARK    6  A    between atoms: C12_17  and  O3_18 
REMARK    7  A    between atoms: N2_20  and  O4_22 
ROOT
HETATM    1  C4  UNL     1      16.899  16.832  19.146  1.00  0.00    -0.008 C 
HETATM    2  C5  UNL     1      17.569  17.988  18.440  1.00  0.00     0.011 C 
HETATM    3  C6  UNL     1      18.865  18.267  19.183  1.00  0.00     0.055 C 
HETATM    4  C7  UNL     1      19.128  17.253  20.236  1.00  0.00     0.010 C 
HETATM    5  N1  UNL     1      20.244  16.627  20.201  1.00  0.00    -0.403 N 
ATOM      6  H11 UNL     1      20.425  15.930  20.924  1.00  0.00     0.155 HD
ATOM      7  H12 UNL     1      20.962  16.782  19.493  1.00  0.00     0.155 HD
HETATM    8  C8  UNL     1      18.082  17.026  21.266  1.00  0.00     0.177 C 
HETATM    9  C13 UNL     1      16.739  17.193  20.586  1.00  0.00     0.043 C 
ENDROOT
BRANCH   8  10
HETATM   10  O1  UNL     1      18.176  17.956  22.326  1.00  0.00    -0.307 OA
BRANCH  10  11
HETATM   11  C9  UNL     1      17.617  17.689  23.560  1.00  0.00     0.283 C 
HETATM   12  O2  UNL     1      18.322  17.158  24.437  1.00  0.00    -0.260 OA
BRANCH  11  13
HETATM   13  C10 UNL     1      16.233  17.998  23.888  1.00  0.00     0.086 C 
HETATM   14  C11 UNL     1      15.301  17.063  23.933  1.00  0.00     0.063 C 
BRANCH  14  15
HETATM   15  C12 UNL     1      13.925  17.418  24.267  1.00  0.00     0.159 C 
HETATM   16  N2  UNL     1      12.950  16.890  23.611  1.00  0.00    -0.248 N 
ATOM     17  H2  UNL     1      13.134  16.224  22.860  1.00  0.00     0.196 HD
BRANCH  15  18
HETATM   18  O3  UNL     1      13.686  18.318  25.284  1.00  0.00    -0.345 OA
ATOM     19  H3  UNL     1      13.004  18.970  25.178  1.00  0.00     0.219 HD
ENDBRANCH  15  18
BRANCH  16  20
HETATM   20  O4  UNL     1      11.679  17.228  23.930  1.00  0.00    -0.288 OA
ATOM     21  H4  UNL     1      11.015  16.550  23.971  1.00  0.00     0.244 HD
ENDBRANCH  16  20
ENDBRANCH  14  15
ENDBRANCH  11  13
ENDBRANCH  10  11
ENDBRANCH   8  10
BRANCH   1  22
HETATM   22  C2  UNL     1      15.562  16.508  18.476  1.00  0.00    -0.019 C 
HETATM   23  C1  UNL     1      15.311  17.500  17.361  1.00  0.00     0.010 C 
HETATM   24  C3  UNL     1      14.499  16.746  19.529  1.00  0.00     0.010 C 
ENDBRANCH   1  22
TORSDOF 7
ENDMDL
MODEL 2
REMARK VINA RESULT: -7.528660901      1.410      1.846
REMARK  7 active torsions:
REMARK  status: ('A' for Active; 'I' for Inactive)
REMARK    1  A    between atoms: C2_2  and  C4_4 
REMARK    2  A    between atoms: C8_11  and  O1_12 
REMARK    3  A    between atoms: O1_12  and  C9_13 
REMARK    4  A    between atoms: C9_13  and  C10_15 
REMARK    5  A    between atoms: C11_16  and  C12_17 
REMARK    6  A    between atoms: C12_17  and  O3_18 
REMARK    7  A    between atoms: N2_20  and  O4_22 
ROOT
HETATM    1  C4  UNL     1      15.916  16.203  18.459  1.00  0.00    -0.008 C 
HETATM    2  C5  UNL     1      15.804  17.435  17.591  1.00  0.00     0.011 C 
HETATM    3  C6  UNL     1      17.068  18.249  17.815  1.00  0.00     0.055 C 
HETATM    4  C7  UNL     1      18.047  17.527  18.667  1.00  0.00     0.010 C 
HETATM    5  N1  UNL     1      19.228  17.350  18.206  1.00  0.00    -0.403 N 
ATOM      6  H11 UNL     1      19.901  16.854  18.791  1.00  0.00     0.155 HD
ATOM      7  H12 UNL     1      19.536  17.674  17.289  1.00  0.00     0.155 HD
HETATM    8  C8  UNL     1      17.598  17.055  20.001  1.00  0.00     0.177 C 
HETATM    9  C13 UNL     1      16.146  16.643  19.867  1.00  0.00     0.043 C 
ENDROOT
BRANCH   8  10
HETATM   10  O1  UNL     1      17.696  18.070  20.981  1.00  0.00    -0.307 OA
BRANCH  10  11
HETATM   11  C9  UNL     1      17.721  17.762  22.326  1.00  0.00     0.283 C 
HETATM   12  O2  UNL     1      18.781  17.349  22.830  1.00  0.00    -0.260 OA
BRANCH  11  13
HETATM   13  C10 UNL     1      16.558  17.897  23.192  1.00  0.00     0.086 C 
HETATM   14  C11 UNL     1      15.758  16.879  23.450  1.00  0.00     0.063 C 
BRANCH  14  15
HETATM   15  C12 UNL     1      14.603  17.059  24.324  1.00  0.00     0.159 C 
HETATM   16  N2  UNL     1      14.310  18.233  24.766  1.00  0.00    -0.248 N 
ATOM     17  H2  UNL     1      14.881  19.038  24.509  1.00  0.00     0.196 HD
BRANCH  15  18
HETATM   18  O3  UNL     1      13.836  15.964  24.666  1.00  0.00    -0.345 OA
ATOM     19  H3  UNL     1      14.107  15.099  24.383  1.00  0.00     0.219 HD
ENDBRANCH  15  18
BRANCH  16  20
HETATM   20  O4  UNL     1      13.236  18.385  25.576  1.00  0.00    -0.288 OA
ATOM     21  H4  UNL     1      12.375  18.492  25.189  1.00  0.00     0.244 HD
ENDBRANCH  16  20
ENDBRANCH  14  15
ENDBRANCH  11  13
ENDBRANCH  10  11
ENDBRANCH   8  10
BRANCH   1  22
HETATM   22  C2  UNL     1      14.660  15.342  18.317  1.00  0.00    -0.019 C 
HETATM   23  C1  UNL     1      13.452  16.150  18.741  1.00  0.00     0.010 C 
HETATM   24  C3  UNL     1      14.811  14.214  19.316  1.00  0.00     0.010 C 
ENDBRANCH   1  22
TORSDOF 7
ENDMDL
MODEL 3
REMARK VINA RESULT: -7.476863501      3.963      5.686
REMARK  7 active torsions:
REMARK  status: ('A' for Active; 'I' for Inactive)
REMARK    1  A    between atoms: C2_2  and  C4_4 
REMARK    2  A    between atoms: C8_11  and  O1_12 
REMARK    3  A    between atoms: O1_12  and  C9_13 
REMARK    4  A    between atoms: C9_13  and  C10_15 
REMARK    5  A    between atoms: C11_16  and  C12_17 
REMARK    6  A    between atoms: C12_17  and  O3_18 
REMARK    7  A    between atoms: N2_20  and  O4_22 
ROOT
HETATM    1  C4  UNL     1      16.892  17.707  21.498  1.00  0.00    -0.008 C 
HETATM    2  C5  UNL     1      18.357  17.441  21.238  1.00  0.00     0.011 C 
HETATM    3  C6  UNL     1      18.497  17.156  19.752  1.00  0.00     0.055 C 
HETATM    4  C7  UNL     1      17.220  17.374  19.025  1.00  0.00     0.010 C 
HETATM    5  N1  UNL     1      17.225  18.183  18.032  1.00  0.00    -0.403 N 
ATOM      6  H11 UNL     1      16.348  18.333  17.533  1.00  0.00     0.155 HD
ATOM      7  H12 UNL     1      18.052  18.687  17.712  1.00  0.00     0.155 HD
HETATM    8  C8  UNL     1      16.015  16.641  19.492  1.00  0.00     0.177 C 
HETATM    9  C13 UNL     1      16.109  16.538  21.000  1.00  0.00     0.043 C 
ENDROOT
BRANCH   8  10
HETATM   10  O1  UNL     1      15.948  15.337  18.948  1.00  0.00    -0.307 OA
BRANCH  10  11
HETATM   11  C9  UNL     1      14.767  14.623  18.954  1.00  0.00     0.283 C 
HETATM   12  O2  UNL     1      14.772  13.455  19.381  1.00  0.00    -0.260 OA
BRANCH  11  13
HETATM   13  C10 UNL     1      13.504  15.174  18.482  1.00  0.00     0.086 C 
HETATM   14  C11 UNL     1      13.350  15.602  17.242  1.00  0.00     0.063 C 
BRANCH  14  15
HETATM   15  C12 UNL     1      12.067  16.147  16.811  1.00  0.00     0.159 C 
HETATM   16  N2  UNL     1      11.730  16.088  15.570  1.00  0.00    -0.248 N 
ATOM     17  H2  UNL     1      12.354  15.662  14.885  1.00  0.00     0.196 HD
BRANCH  15  18
HETATM   18  O3  UNL     1      11.228  16.722  17.744  1.00  0.00    -0.345 OA
ATOM     19  H3  UNL     1      10.334  16.928  17.501  1.00  0.00     0.219 HD
ENDBRANCH  15  18
BRANCH  16  20
HETATM   20  O4  UNL     1      10.537  16.598  15.183  1.00  0.00    -0.288 OA
ATOM     21  H4  UNL     1      10.519  17.353  14.607  1.00  0.00     0.244 HD
ENDBRANCH  16  20
ENDBRANCH  14  15
ENDBRANCH  11  13
ENDBRANCH  10  11
ENDBRANCH   8  10
BRANCH   1  22
HETATM   22  C2  UNL     1      16.660  17.970  22.987  1.00  0.00    -0.019 C 
HETATM   23  C1  UNL     1      17.863  17.492  23.771  1.00  0.00     0.010 C 
HETATM   24  C3  UNL     1      15.491  17.093  23.389  1.00  0.00     0.010 C 
ENDBRANCH   1  22
TORSDOF 7
ENDMDL
MODEL 4
REMARK VINA RESULT: -7.341602316      3.195      6.023
REMARK  7 active torsions:
REMARK  status: ('A' for Active; 'I' for Inactive)
REMARK    1  A    between atoms: C2_2  and  C4_4 
REMARK    2  A    between atoms: C8_11  and  O1_12 
REMARK    3  A    between atoms: O1_12  and  C9_13 
REMARK    4  A    between atoms: C9_13  and  C10_15 
REMARK    5  A    between atoms: C11_16  and  C12_17 
REMARK    6  A    between atoms: C12_17  and  O3_18 
REMARK    7  A    between atoms: N2_20  and  O4_22 
ROOT
HETATM    1  C4  UNL     1      14.072  16.241  20.310  1.00  0.00    -0.008 C 
HETATM    2  C5  UNL     1      12.770  16.874  19.877  1.00  0.00     0.011 C 
HETATM    3  C6  UNL     1      12.806  16.964  18.360  1.00  0.00     0.055 C 
HETATM    4  C7  UNL     1      14.000  16.286  17.794  1.00  0.00     0.010 C 
HETATM    5  N1  UNL     1      13.812  15.375  16.914  1.00  0.00    -0.403 N 
ATOM      6  H11 UNL     1      14.632  14.909  16.526  1.00  0.00     0.155 HD
ATOM      7  H12 UNL     1      12.893  15.087  16.580  1.00  0.00     0.155 HD
HETATM    8  C8  UNL     1      15.339  16.704  18.282  1.00  0.00     0.177 C 
HETATM    9  C13 UNL     1      15.194  17.051  19.750  1.00  0.00     0.043 C 
ENDROOT
BRANCH   8  10
HETATM   10  O1  UNL     1      15.821  17.839  17.590  1.00  0.00    -0.307 OA
BRANCH  10  11
HETATM   11  C9  UNL     1      17.169  18.136  17.561  1.00  0.00     0.283 C 
HETATM   12  O2  UNL     1      17.584  18.968  16.735  1.00  0.00    -0.260 OA
BRANCH  11  13
HETATM   13  C10 UNL     1      18.137  17.518  18.457  1.00  0.00     0.086 C 
HETATM   14  C11 UNL     1      18.519  18.100  19.578  1.00  0.00     0.063 C 
BRANCH  14  15
HETATM   15  C12 UNL     1      19.492  17.445  20.447  1.00  0.00     0.159 C 
HETATM   16  N2  UNL     1      20.340  16.614  19.948  1.00  0.00    -0.248 N 
ATOM     17  H2  UNL     1      20.335  16.410  18.949  1.00  0.00     0.196 HD
BRANCH  15  18
HETATM   18  O3  UNL     1      19.492  17.728  21.797  1.00  0.00    -0.345 OA
ATOM     19  H3  UNL     1      19.412  17.017  22.422  1.00  0.00     0.219 HD
ENDBRANCH  15  18
BRANCH  16  20
HETATM   20  O4  UNL     1      21.237  16.013  20.765  1.00  0.00    -0.288 OA
ATOM     21  H4  UNL     1      21.846  15.381  20.401  1.00  0.00     0.244 HD
ENDBRANCH  16  20
ENDBRANCH  14  15
ENDBRANCH  11  13
ENDBRANCH  10  11
ENDBRANCH   8  10
BRANCH   1  22
HETATM   22  C2  UNL     1      14.130  16.145  21.836  1.00  0.00    -0.019 C 
HETATM   23  C1  UNL     1      12.907  16.815  22.424  1.00  0.00     0.010 C 
HETATM   24  C3  UNL     1      15.333  16.964  22.260  1.00  0.00     0.010 C 
ENDBRANCH   1  22
TORSDOF 7
ENDMDL
MODEL 5
REMARK VINA RESULT: -7.331988648      2.041      5.481
REMARK  7 active torsions:
REMARK  status: ('A' for Active; 'I' for Inactive)
REMARK    1  A    between atoms: C2_2  and  C4_4 
REMARK    2  A    between atoms: C8_11  and  O1_12 
REMARK    3  A    between atoms: O1_12  and  C9_13 
REMARK    4  A    between atoms: C9_13  and  C10_15 
REMARK    5  A    between atoms: C11_16  and  C12_17 
REMARK    6  A    between atoms: C12_17  and  O3_18 
REMARK    7  A    between atoms: N2_20  and  O4_22 
ROOT
HETATM    1  C4  UNL     1      13.929  16.700  21.692  1.00  0.00    -0.008 C 
HETATM    2  C5  UNL     1      13.330  15.549  22.466  1.00  0.00     0.011 C 
HETATM    3  C6  UNL     1      13.655  15.786  23.932  1.00  0.00     0.055 C 
HETATM    4  C7  UNL     1      14.302  17.105  24.148  1.00  0.00     0.010 C 
HETATM    5  N1  UNL     1      13.763  17.908  24.988  1.00  0.00    -0.403 N 
ATOM      6  H11 UNL     1      14.208  18.814  25.136  1.00  0.00     0.155 HD
ATOM      7  H12 UNL     1      12.917  17.696  25.515  1.00  0.00     0.155 HD
HETATM    8  C8  UNL     1      15.534  17.414  23.378  1.00  0.00     0.177 C 
HETATM    9  C13 UNL     1      15.385  16.772  22.014  1.00  0.00     0.043 C 
ENDROOT
BRANCH   8  10
HETATM   10  O1  UNL     1      16.691  16.894  24.004  1.00  0.00    -0.307 OA
BRANCH  10  11
HETATM   11  C9  UNL     1      17.948  17.363  23.678  1.00  0.00     0.283 C 
HETATM   12  O2  UNL     1      18.511  18.161  24.449  1.00  0.00    -0.260 OA
BRANCH  11  13
HETATM   13  C10 UNL     1      18.654  16.965  22.468  1.00  0.00     0.086 C 
HETATM   14  C11 UNL     1      18.803  17.787  21.446  1.00  0.00     0.063 C 
BRANCH  14  15
HETATM   15  C12 UNL     1      19.518  17.347  20.252  1.00  0.00     0.159 C 
HETATM   16  N2  UNL     1      19.044  17.616  19.086  1.00  0.00    -0.248 N 
ATOM     17  H2  UNL     1      18.171  18.136  18.990  1.00  0.00     0.196 HD
BRANCH  15  18
HETATM   18  O3  UNL     1      20.698  16.646  20.390  1.00  0.00    -0.345 OA
ATOM     19  H3  UNL     1      21.051  16.494  21.258  1.00  0.00     0.219 HD
ENDBRANCH  15  18
BRANCH  16  20
HETATM   20  O4  UNL     1      19.717  17.202  17.986  1.00  0.00    -0.288 OA
ATOM     21  H4  UNL     1      19.393  17.441  17.126  1.00  0.00     0.244 HD
ENDBRANCH  16  20
ENDBRANCH  14  15
ENDBRANCH  11  13
ENDBRANCH  10  11
ENDBRANCH   8  10
BRANCH   1  22
HETATM   22  C2  UNL     1      13.674  16.517  20.195  1.00  0.00    -0.019 C 
HETATM   23  C1  UNL     1      13.532  15.042  19.890  1.00  0.00     0.010 C 
HETATM   24  C3  UNL     1      14.930  16.997  19.496  1.00  0.00     0.010 C 
ENDBRANCH   1  22
TORSDOF 7
ENDMDL
