MODEL 1
REMARK VINA RESULT: -5.979889139      0.000      0.000
REMARK  12 active torsions:
REMARK  status: ('A' for Active; 'I' for Inactive)
REMARK    1  A    between atoms: C2_2  and  C4_4 
REMARK    2  A    between atoms: C4_4  and  C5_5 
REMARK    3  A    between atoms: C7_10  and  C8_11 
REMARK    4  A    between atoms: C11_16  and  C12_17 
REMARK    5  A    between atoms: C12_17  and  C13_18 
REMARK    6  A    between atoms: C13_18  and  C14_19 
REMARK    7  A    between atoms: C14_19  and  N3_20 
REMARK    8  A    between atoms: C17_27  and  O2_28 
REMARK    9  A    between atoms: C18_30  and  C19_31 
REMARK   10  A    between atoms: C19_31  and  C20_32 
REMARK   11  A    between atoms: C25_39  and  C26_40 
REMARK   12  A    between atoms: C30_47  and  C31_48 
ROOT
HETATM    1  C5  UNL     1       8.350 -10.151  19.484  1.00  0.00     0.177 C 
HETATM    2  N1  UNL     1       8.504  -8.711  19.461  1.00  0.00    -0.346 N 
ATOM      3  H1  UNL     1       9.226  -8.334  20.074  1.00  0.00     0.163 HD
HETATM    4  C6  UNL     1       7.789  -7.762  18.706  1.00  0.00     0.241 C 
HETATM    5  O1  UNL     1       7.373  -6.752  19.358  1.00  0.00    -0.271 OA
HETATM    6  C7  UNL     1       7.480  -7.816  17.257  1.00  0.00     0.174 C 
HETATM    7  N2  UNL     1       6.150  -7.908  16.857  1.00  0.00    -0.388 N 
ATOM      8  H2  UNL     1       5.924  -8.686  16.237  1.00  0.00     0.156 HD
HETATM    9  C11 UNL     1       5.110  -7.090  17.189  1.00  0.00     0.181 C 
HETATM   10  N6  UNL     1       3.910  -7.823  17.559  1.00  0.00    -0.347 N 
HETATM   11  C16 UNL     1       2.759  -6.931  17.857  1.00  0.00     0.153 C 
HETATM   12  C17 UNL     1       3.681  -9.171  17.718  1.00  0.00     0.138 C 
HETATM   13  C18 UNL     1       4.029 -10.330  16.802  1.00  0.00     0.161 C 
HETATM   14  N7  UNL     1       3.223 -11.464  17.317  1.00  0.00    -0.343 N 
HETATM   15  C23 UNL     1       1.773 -11.223  17.375  1.00  0.00     0.153 C 
HETATM   16  C24 UNL     1       3.685 -12.677  17.783  1.00  0.00     0.243 C 
HETATM   17  O3  UNL     1       2.961 -13.727  17.660  1.00  0.00    -0.271 OA
HETATM   18  C25 UNL     1       5.003 -12.930  18.455  1.00  0.00     0.180 C 
HETATM   19  N8  UNL     1       5.713 -13.865  17.585  1.00  0.00    -0.346 N 
ATOM     20  H8  UNL     1       5.191 -14.609  17.122  1.00  0.00     0.163 HD
HETATM   21  C29 UNL     1       7.132 -13.761  17.366  1.00  0.00     0.241 C 
HETATM   22  O4  UNL     1       7.566 -14.184  16.269  1.00  0.00    -0.271 OA
HETATM   23  C30 UNL     1       8.022 -13.174  18.413  1.00  0.00     0.180 C 
HETATM   24  N9  UNL     1       8.861 -12.130  17.917  1.00  0.00    -0.346 N 
ATOM     25  H9  UNL     1       9.343 -12.330  17.040  1.00  0.00     0.163 HD
HETATM   26  C34 UNL     1       9.113 -10.865  18.475  1.00  0.00     0.241 C 
HETATM   27  O5  UNL     1      10.163 -10.266  18.019  1.00  0.00    -0.271 OA
ENDROOT
BRANCH   9  28
HETATM   28  C12 UNL     1       4.729  -5.915  16.364  1.00  0.00     0.048 C 
BRANCH  28  29
HETATM   29  C13 UNL     1       5.248  -4.580  16.655  1.00  0.00     0.023 C 
BRANCH  29  30
HETATM   30  C14 UNL     1       4.359  -3.584  15.881  1.00  0.00     0.122 C 
BRANCH  30  31
HETATM   31  N3  UNL     1       4.724  -3.551  14.493  1.00  0.00    -0.367 N 
HETATM   32  C15 UNL     1       5.407  -2.612  13.931  1.00  0.00     0.196 C 
HETATM   33  N4  UNL     1       5.893  -1.475  14.613  1.00  0.00    -0.067 NA
HETATM   34  N5  UNL     1       5.674  -2.747  12.543  1.00  0.00    -0.067 NA
ATOM     35  H3  UNL     1       4.419  -4.328  13.907  1.00  0.00     0.161 HD
ENDBRANCH  30  31
ENDBRANCH  29  30
ENDBRANCH  28  29
ENDBRANCH   9  28
BRANCH   6  36
HETATM   36  C8  UNL     1       8.325  -6.766  16.519  1.00  0.00     0.009 C 
HETATM   37  C9  UNL     1       9.668  -7.308  16.125  1.00  0.00     0.012 C 
HETATM   38  C10 UNL     1       8.535  -5.518  17.308  1.00  0.00     0.012 C 
ENDBRANCH   6  36
BRANCH  12  39
HETATM   39  O2  UNL     1       3.078  -9.517  18.819  1.00  0.00    -0.348 OA
ATOM     40  H2  UNL     1       3.192 -10.421  19.086  1.00  0.00     0.219 HD
ENDBRANCH  12  39
BRANCH  13  41
HETATM   41  C19 UNL     1       3.567 -10.074  15.407  1.00  0.00     0.037 C 
BRANCH  41  42
HETATM   42  C20 UNL     1       3.898 -11.014  14.334  1.00  0.00    -0.020 C 
HETATM   43  C21 UNL     1       3.758 -10.194  13.008  1.00  0.00     0.009 C 
HETATM   44  C22 UNL     1       3.182 -12.278  14.139  1.00  0.00     0.009 C 
ENDBRANCH  41  42
ENDBRANCH  13  41
BRANCH   1  45
HETATM   45  C4  UNL     1       8.548 -10.664  20.874  1.00  0.00     0.038 C 
BRANCH  45  46
HETATM   46  C2  UNL     1       9.857 -10.372  21.536  1.00  0.00    -0.020 C 
HETATM   47  C1  UNL     1       9.605 -10.294  23.073  1.00  0.00     0.009 C 
HETATM   48  C3  UNL     1      10.909 -11.424  21.378  1.00  0.00     0.009 C 
ENDBRANCH  45  46
ENDBRANCH   1  45
BRANCH  18  49
HETATM   49  C26 UNL     1       4.672 -13.554  19.787  1.00  0.00     0.009 C 
HETATM   50  C27 UNL     1       5.095 -15.004  19.781  1.00  0.00     0.012 C 
HETATM   51  C28 UNL     1       5.265 -12.826  20.938  1.00  0.00     0.012 C 
ENDBRANCH  18  49
BRANCH  23  52
HETATM   52  C31 UNL     1       8.871 -14.292  18.956  1.00  0.00     0.009 C 
HETATM   53  C32 UNL     1      10.288 -14.285  18.447  1.00  0.00     0.012 C 
HETATM   54  C33 UNL     1       8.798 -14.431  20.450  1.00  0.00     0.012 C 
ENDBRANCH  23  52
TORSDOF 12
ENDMDL
MODEL 2
REMARK VINA RESULT: -5.823849784      1.074      1.463
REMARK  12 active torsions:
REMARK  status: ('A' for Active; 'I' for Inactive)
REMARK    1  A    between atoms: C2_2  and  C4_4 
REMARK    2  A    between atoms: C4_4  and  C5_5 
REMARK    3  A    between atoms: C7_10  and  C8_11 
REMARK    4  A    between atoms: C11_16  and  C12_17 
REMARK    5  A    between atoms: C12_17  and  C13_18 
REMARK    6  A    between atoms: C13_18  and  C14_19 
REMARK    7  A    between atoms: C14_19  and  N3_20 
REMARK    8  A    between atoms: C17_27  and  O2_28 
REMARK    9  A    between atoms: C18_30  and  C19_31 
REMARK   10  A    between atoms: C19_31  and  C20_32 
REMARK   11  A    between atoms: C25_39  and  C26_40 
REMARK   12  A    between atoms: C30_47  and  C31_48 
ROOT
HETATM    1  C5  UNL     1       8.439 -10.185  19.515  1.00  0.00     0.177 C 
HETATM    2  N1  UNL     1       8.613  -8.747  19.499  1.00  0.00    -0.346 N 
ATOM      3  H1  UNL     1       9.334  -8.383  20.121  1.00  0.00     0.163 HD
HETATM    4  C6  UNL     1       7.919  -7.786  18.740  1.00  0.00     0.241 C 
HETATM    5  O1  UNL     1       7.510  -6.772  19.391  1.00  0.00    -0.271 OA
HETATM    6  C7  UNL     1       7.624  -7.830  17.288  1.00  0.00     0.174 C 
HETATM    7  N2  UNL     1       6.297  -7.903  16.874  1.00  0.00    -0.388 N 
ATOM      8  H2  UNL     1       6.067  -8.675  16.249  1.00  0.00     0.156 HD
HETATM    9  C11 UNL     1       5.265  -7.071  17.198  1.00  0.00     0.181 C 
HETATM   10  N6  UNL     1       4.052  -7.789  17.553  1.00  0.00    -0.347 N 
HETATM   11  C16 UNL     1       2.910  -6.883  17.843  1.00  0.00     0.153 C 
HETATM   12  C17 UNL     1       3.802  -9.134  17.705  1.00  0.00     0.138 C 
HETATM   13  C18 UNL     1       4.144 -10.295  16.788  1.00  0.00     0.161 C 
HETATM   14  N7  UNL     1       3.317 -11.419  17.291  1.00  0.00    -0.343 N 
HETATM   15  C23 UNL     1       1.870 -11.158  17.335  1.00  0.00     0.153 C 
HETATM   16  C24 UNL     1       3.757 -12.640  17.757  1.00  0.00     0.243 C 
HETATM   17  O3  UNL     1       3.020 -13.680  17.622  1.00  0.00    -0.271 OA
HETATM   18  C25 UNL     1       5.064 -12.914  18.442  1.00  0.00     0.180 C 
HETATM   19  N8  UNL     1       5.770 -13.855  17.575  1.00  0.00    -0.346 N 
ATOM     20  H8  UNL     1       5.243 -14.590  17.104  1.00  0.00     0.163 HD
HETATM   21  C29 UNL     1       7.194 -13.770  17.371  1.00  0.00     0.241 C 
HETATM   22  O4  UNL     1       7.633 -14.195  16.277  1.00  0.00    -0.271 OA
HETATM   23  C30 UNL     1       8.080 -13.199  18.430  1.00  0.00     0.180 C 
HETATM   24  N9  UNL     1       8.939 -12.165  17.946  1.00  0.00    -0.346 N 
ATOM     25  H9  UNL     1       9.427 -12.368  17.073  1.00  0.00     0.163 HD
HETATM   26  C34 UNL     1       9.202 -10.906  18.511  1.00  0.00     0.241 C 
HETATM   27  O5  UNL     1      10.265 -10.319  18.068  1.00  0.00    -0.271 OA
ENDROOT
BRANCH   9  28
HETATM   28  C12 UNL     1       4.909  -5.888  16.374  1.00  0.00     0.048 C 
BRANCH  28  29
HETATM   29  C13 UNL     1       5.714  -4.668  16.405  1.00  0.00     0.023 C 
BRANCH  29  30
HETATM   30  C14 UNL     1       4.749  -3.497  16.124  1.00  0.00     0.122 C 
BRANCH  30  31
HETATM   31  N3  UNL     1       3.923  -3.235  17.268  1.00  0.00    -0.367 N 
HETATM   32  C15 UNL     1       2.640  -3.365  17.299  1.00  0.00     0.196 C 
HETATM   33  N4  UNL     1       1.865  -3.788  16.197  1.00  0.00    -0.067 NA
HETATM   34  N5  UNL     1       1.986  -3.059  18.522  1.00  0.00    -0.067 NA
ATOM     35  H3  UNL     1       4.385  -2.920  18.122  1.00  0.00     0.161 HD
ENDBRANCH  30  31
ENDBRANCH  29  30
ENDBRANCH  28  29
ENDBRANCH   9  28
BRANCH   6  36
HETATM   36  C8  UNL     1       8.491  -6.789  16.562  1.00  0.00     0.009 C 
HETATM   37  C9  UNL     1       9.707  -7.412  15.942  1.00  0.00     0.012 C 
HETATM   38  C10 UNL     1       8.934  -5.673  17.446  1.00  0.00     0.012 C 
ENDBRANCH   6  36
BRANCH  12  39
HETATM   39  O2  UNL     1       3.183  -9.475  18.798  1.00  0.00    -0.348 OA
ATOM     40  H2  UNL     1       3.654  -9.315  19.607  1.00  0.00     0.219 HD
ENDBRANCH  12  39
BRANCH  13  41
HETATM   41  C19 UNL     1       3.700 -10.027  15.390  1.00  0.00     0.037 C 
BRANCH  41  42
HETATM   42  C20 UNL     1       3.982 -10.994  14.326  1.00  0.00    -0.020 C 
HETATM   43  C21 UNL     1       3.769 -10.210  12.988  1.00  0.00     0.009 C 
HETATM   44  C22 UNL     1       3.267 -12.267  14.202  1.00  0.00     0.009 C 
ENDBRANCH  41  42
ENDBRANCH  13  41
BRANCH   1  45
HETATM   45  C4  UNL     1       8.615 -10.705  20.905  1.00  0.00     0.038 C 
BRANCH  45  46
HETATM   46  C2  UNL     1       9.907 -10.401  21.596  1.00  0.00    -0.020 C 
HETATM   47  C1  UNL     1       9.615 -10.301  23.125  1.00  0.00     0.009 C 
HETATM   48  C3  UNL     1      10.964 -11.454  21.480  1.00  0.00     0.009 C 
ENDBRANCH  45  46
ENDBRANCH   1  45
BRANCH  18  49
HETATM   49  C26 UNL     1       4.711 -13.538  19.768  1.00  0.00     0.009 C 
HETATM   50  C27 UNL     1       5.105 -14.996  19.757  1.00  0.00     0.012 C 
HETATM   51  C28 UNL     1       5.311 -12.828  20.927  1.00  0.00     0.012 C 
ENDBRANCH  18  49
BRANCH  23  52
HETATM   52  C31 UNL     1       8.908 -14.331  18.977  1.00  0.00     0.009 C 
HETATM   53  C32 UNL     1      10.321 -14.361  18.457  1.00  0.00     0.012 C 
HETATM   54  C33 UNL     1       8.844 -14.453  20.473  1.00  0.00     0.012 C 
ENDBRANCH  23  52
TORSDOF 12
ENDMDL
MODEL 3
REMARK VINA RESULT: -5.690091995      2.727      6.935
REMARK  12 active torsions:
REMARK  status: ('A' for Active; 'I' for Inactive)
REMARK    1  A    between atoms: C2_2  and  C4_4 
REMARK    2  A    between atoms: C4_4  and  C5_5 
REMARK    3  A    between atoms: C7_10  and  C8_11 
REMARK    4  A    between atoms: C11_16  and  C12_17 
REMARK    5  A    between atoms: C12_17  and  C13_18 
REMARK    6  A    between atoms: C13_18  and  C14_19 
REMARK    7  A    between atoms: C14_19  and  N3_20 
REMARK    8  A    between atoms: C17_27  and  O2_28 
REMARK    9  A    between atoms: C18_30  and  C19_31 
REMARK   10  A    between atoms: C19_31  and  C20_32 
REMARK   11  A    between atoms: C25_39  and  C26_40 
REMARK   12  A    between atoms: C30_47  and  C31_48 
ROOT
HETATM    1  C5  UNL     1       2.562 -11.730  18.430  1.00  0.00     0.177 C 
HETATM    2  N1  UNL     1       2.922 -10.889  17.308  1.00  0.00    -0.346 N 
ATOM      3  H1  UNL     1       2.163 -10.661  16.666  1.00  0.00     0.163 HD
HETATM    4  C6  UNL     1       4.179 -10.345  16.983  1.00  0.00     0.241 C 
HETATM    5  O1  UNL     1       4.533 -10.482  15.768  1.00  0.00    -0.271 OA
HETATM    6  C7  UNL     1       5.114  -9.639  17.892  1.00  0.00     0.174 C 
HETATM    7  N2  UNL     1       6.356 -10.210  18.154  1.00  0.00    -0.388 N 
ATOM      8  H2  UNL     1       6.583 -10.349  19.138  1.00  0.00     0.156 HD
HETATM    9  C11 UNL     1       7.307 -10.608  17.261  1.00  0.00     0.181 C 
HETATM   10  N6  UNL     1       7.860 -11.916  17.570  1.00  0.00    -0.347 N 
HETATM   11  C16 UNL     1       8.942 -12.321  16.635  1.00  0.00     0.153 C 
HETATM   12  C17 UNL     1       7.526 -12.840  18.534  1.00  0.00     0.138 C 
HETATM   13  C18 UNL     1       7.306 -12.652  20.025  1.00  0.00     0.161 C 
HETATM   14  N7  UNL     1       7.338 -14.027  20.580  1.00  0.00    -0.343 N 
HETATM   15  C23 UNL     1       8.565 -14.787  20.295  1.00  0.00     0.153 C 
HETATM   16  C24 UNL     1       6.339 -14.672  21.279  1.00  0.00     0.243 C 
HETATM   17  O3  UNL     1       6.641 -15.553  22.159  1.00  0.00    -0.271 OA
HETATM   18  C25 UNL     1       4.862 -14.456  21.126  1.00  0.00     0.180 C 
HETATM   19  N8  UNL     1       4.400 -13.971  22.425  1.00  0.00    -0.346 N 
ATOM     20  H8  UNL     1       4.803 -14.363  23.275  1.00  0.00     0.163 HD
HETATM   21  C29 UNL     1       3.389 -12.951  22.533  1.00  0.00     0.241 C 
HETATM   22  O4  UNL     1       3.430 -12.222  23.551  1.00  0.00    -0.271 OA
HETATM   23  C30 UNL     1       2.354 -12.791  21.467  1.00  0.00     0.180 C 
HETATM   24  N9  UNL     1       2.256 -11.455  20.973  1.00  0.00    -0.346 N 
ATOM     25  H9  UNL     1       2.225 -10.723  21.683  1.00  0.00     0.163 HD
HETATM   26  C34 UNL     1       2.198 -11.013  19.640  1.00  0.00     0.241 C 
HETATM   27  O5  UNL     1       1.764  -9.806  19.484  1.00  0.00    -0.271 OA
ENDROOT
BRANCH   9  28
HETATM   28  C12 UNL     1       8.401  -9.709  16.813  1.00  0.00     0.048 C 
BRANCH  28  29
HETATM   29  C13 UNL     1       8.987  -8.716  17.711  1.00  0.00     0.023 C 
BRANCH  29  30
HETATM   30  C14 UNL     1       9.643  -7.645  16.814  1.00  0.00     0.122 C 
BRANCH  30  31
HETATM   31  N3  UNL     1       8.761  -6.526  16.631  1.00  0.00    -0.367 N 
HETATM   32  C15 UNL     1       8.796  -5.438  17.323  1.00  0.00     0.196 C 
HETATM   33  N4  UNL     1       9.716  -5.197  18.366  1.00  0.00    -0.067 NA
HETATM   34  N5  UNL     1       7.843  -4.435  17.001  1.00  0.00    -0.067 NA
ATOM     35  H3  UNL     1       8.054  -6.598  15.899  1.00  0.00     0.161 HD
ENDBRANCH  30  31
ENDBRANCH  29  30
ENDBRANCH  28  29
ENDBRANCH   9  28
BRANCH   6  36
HETATM   36  C8  UNL     1       5.131  -8.143  17.540  1.00  0.00     0.009 C 
HETATM   37  C9  UNL     1       5.944  -7.349  18.520  1.00  0.00     0.012 C 
HETATM   38  C10 UNL     1       3.769  -7.540  17.463  1.00  0.00     0.012 C 
ENDBRANCH   6  36
BRANCH  12  39
HETATM   39  O2  UNL     1       7.368 -14.063  18.117  1.00  0.00    -0.348 OA
ATOM     40  H2  UNL     1       6.712 -14.575  18.576  1.00  0.00     0.219 HD
ENDBRANCH  12  39
BRANCH  13  41
HETATM   41  C19 UNL     1       8.440 -11.911  20.649  1.00  0.00     0.037 C 
BRANCH  41  42
HETATM   42  C20 UNL     1       8.228 -11.117  21.861  1.00  0.00    -0.020 C 
HETATM   43  C21 UNL     1       9.601 -10.423  22.147  1.00  0.00     0.009 C 
HETATM   44  C22 UNL     1       7.767 -11.703  23.122  1.00  0.00     0.009 C 
ENDBRANCH  41  42
ENDBRANCH  13  41
BRANCH   1  45
HETATM   45  C4  UNL     1       1.561 -12.753  18.003  1.00  0.00     0.038 C 
BRANCH  45  46
HETATM   46  C2  UNL     1       0.227 -12.259  17.539  1.00  0.00    -0.020 C 
HETATM   47  C1  UNL     1      -0.138 -13.032  16.234  1.00  0.00     0.009 C 
HETATM   48  C3  UNL     1      -0.917 -12.522  18.467  1.00  0.00     0.009 C 
ENDBRANCH  45  46
ENDBRANCH   1  45
BRANCH  18  49
HETATM   49  C26 UNL     1       4.280 -15.808  20.801  1.00  0.00     0.009 C 
HETATM   50  C27 UNL     1       3.506 -16.322  21.991  1.00  0.00     0.012 C 
HETATM   51  C28 UNL     1       3.441 -15.805  19.575  1.00  0.00     0.012 C 
ENDBRANCH  18  49
BRANCH  23  52
HETATM   52  C31 UNL     1       1.035 -13.210  22.060  1.00  0.00     0.009 C 
HETATM   53  C32 UNL     1       0.066 -12.075  22.256  1.00  0.00     0.012 C 
HETATM   54  C33 UNL     1       0.409 -14.385  21.363  1.00  0.00     0.012 C 
ENDBRANCH  23  52
TORSDOF 12
ENDMDL
MODEL 4
REMARK VINA RESULT: -5.677022305      3.237      6.519
REMARK  12 active torsions:
REMARK  status: ('A' for Active; 'I' for Inactive)
REMARK    1  A    between atoms: C2_2  and  C4_4 
REMARK    2  A    between atoms: C4_4  and  C5_5 
REMARK    3  A    between atoms: C7_10  and  C8_11 
REMARK    4  A    between atoms: C11_16  and  C12_17 
REMARK    5  A    between atoms: C12_17  and  C13_18 
REMARK    6  A    between atoms: C13_18  and  C14_19 
REMARK    7  A    between atoms: C14_19  and  N3_20 
REMARK    8  A    between atoms: C17_27  and  O2_28 
REMARK    9  A    between atoms: C18_30  and  C19_31 
REMARK   10  A    between atoms: C19_31  and  C20_32 
REMARK   11  A    between atoms: C25_39  and  C26_40 
REMARK   12  A    between atoms: C30_47  and  C31_48 
ROOT
HETATM    1  C5  UNL     1       6.761 -10.166  18.314  1.00  0.00     0.177 C 
HETATM    2  N1  UNL     1       5.679  -9.424  17.700  1.00  0.00    -0.346 N 
ATOM      3  H1  UNL     1       5.956  -8.599  17.168  1.00  0.00     0.163 HD
HETATM    4  C6  UNL     1       4.297  -9.688  17.741  1.00  0.00     0.241 C 
HETATM    5  O1  UNL     1       3.561  -8.686  18.010  1.00  0.00    -0.271 OA
HETATM    6  C7  UNL     1       3.624 -10.988  17.505  1.00  0.00     0.174 C 
HETATM    7  N2  UNL     1       2.925 -11.583  18.552  1.00  0.00    -0.388 N 
ATOM      8  H2  UNL     1       3.194 -12.539  18.779  1.00  0.00     0.156 HD
HETATM    9  C11 UNL     1       1.927 -11.047  19.312  1.00  0.00     0.181 C 
HETATM   10  N6  UNL     1       2.103 -11.299  20.733  1.00  0.00    -0.347 N 
HETATM   11  C16 UNL     1       0.982 -10.773  21.555  1.00  0.00     0.153 C 
HETATM   12  C17 UNL     1       3.131 -11.891  21.432  1.00  0.00     0.138 C 
HETATM   13  C18 UNL     1       3.850 -13.204  21.175  1.00  0.00     0.161 C 
HETATM   14  N7  UNL     1       4.582 -13.477  22.436  1.00  0.00    -0.343 N 
HETATM   15  C23 UNL     1       3.745 -13.533  23.644  1.00  0.00     0.153 C 
HETATM   16  C24 UNL     1       5.943 -13.632  22.597  1.00  0.00     0.243 C 
HETATM   17  O3  UNL     1       6.394 -14.388  23.528  1.00  0.00    -0.271 OA
HETATM   18  C25 UNL     1       7.018 -12.987  21.773  1.00  0.00     0.180 C 
HETATM   19  N8  UNL     1       7.743 -14.088  21.143  1.00  0.00    -0.346 N 
ATOM     20  H8  UNL     1       7.910 -14.942  21.675  1.00  0.00     0.163 HD
HETATM   21  C29 UNL     1       8.228 -13.996  19.791  1.00  0.00     0.241 C 
HETATM   22  O4  UNL     1       8.330 -15.070  19.154  1.00  0.00    -0.271 OA
HETATM   23  C30 UNL     1       8.586 -12.671  19.200  1.00  0.00     0.180 C 
HETATM   24  N9  UNL     1       7.948 -12.422  17.948  1.00  0.00    -0.346 N 
ATOM     25  H9  UNL     1       7.982 -13.189  17.275  1.00  0.00     0.163 HD
HETATM   26  C34 UNL     1       7.281 -11.264  17.516  1.00  0.00     0.241 C 
HETATM   27  O5  UNL     1       7.108 -11.176  16.238  1.00  0.00    -0.271 OA
ENDROOT
BRANCH   9  28
HETATM   28  C12 UNL     1       0.492 -11.201  18.963  1.00  0.00     0.048 C 
BRANCH  28  29
HETATM   29  C13 UNL     1      -0.062 -12.498  18.576  1.00  0.00     0.023 C 
BRANCH  29  30
HETATM   30  C14 UNL     1      -1.459 -12.589  19.225  1.00  0.00     0.122 C 
BRANCH  30  31
HETATM   31  N3  UNL     1      -1.970 -11.280  19.518  1.00  0.00    -0.367 N 
HETATM   32  C15 UNL     1      -2.724 -10.989  20.523  1.00  0.00     0.196 C 
HETATM   33  N4  UNL     1      -3.155 -11.931  21.482  1.00  0.00    -0.067 NA
HETATM   34  N5  UNL     1      -3.135  -9.636  20.655  1.00  0.00    -0.067 NA
ATOM     35  H3  UNL     1      -1.717 -10.522  18.883  1.00  0.00     0.161 HD
ENDBRANCH  30  31
ENDBRANCH  29  30
ENDBRANCH  28  29
ENDBRANCH   9  28
BRANCH   6  36
HETATM   36  C8  UNL     1       2.888 -10.940  16.157  1.00  0.00     0.009 C 
HETATM   37  C9  UNL     1       2.319 -12.277  15.784  1.00  0.00     0.012 C 
HETATM   38  C10 UNL     1       3.746 -10.465  15.033  1.00  0.00     0.012 C 
ENDBRANCH   6  36
BRANCH  12  39
HETATM   39  O2  UNL     1       3.563 -11.235  22.469  1.00  0.00    -0.348 OA
ATOM     40  H2  UNL     1       4.396 -11.523  22.823  1.00  0.00     0.219 HD
ENDBRANCH  12  39
BRANCH  13  41
HETATM   41  C19 UNL     1       2.881 -14.323  20.991  1.00  0.00     0.037 C 
BRANCH  41  42
HETATM   42  C20 UNL     1       3.032 -15.255  19.871  1.00  0.00    -0.020 C 
HETATM   43  C21 UNL     1       4.392 -14.875  19.198  1.00  0.00     0.009 C 
HETATM   44  C22 UNL     1       2.037 -15.375  18.802  1.00  0.00     0.009 C 
ENDBRANCH  41  42
ENDBRANCH  13  41
BRANCH   1  45
HETATM   45  C4  UNL     1       7.810  -9.224  18.811  1.00  0.00     0.038 C 
BRANCH  45  46
HETATM   46  C2  UNL     1       8.194  -8.087  17.918  1.00  0.00    -0.020 C 
HETATM   47  C1  UNL     1       8.621  -6.894  18.826  1.00  0.00     0.009 C 
HETATM   48  C3  UNL     1       9.375  -8.332  17.033  1.00  0.00     0.009 C 
ENDBRANCH  45  46
ENDBRANCH   1  45
BRANCH  18  49
HETATM   49  C26 UNL     1       7.888 -12.234  22.747  1.00  0.00     0.009 C 
HETATM   50  C27 UNL     1       9.166 -13.005  22.978  1.00  0.00     0.012 C 
HETATM   51  C28 UNL     1       8.171 -10.839  22.322  1.00  0.00     0.012 C 
ENDBRANCH  18  49
BRANCH  23  52
HETATM   52  C31 UNL     1      10.081 -12.652  19.021  1.00  0.00     0.009 C 
HETATM   53  C32 UNL     1      10.522 -12.484  17.591  1.00  0.00     0.012 C 
HETATM   54  C33 UNL     1      10.786 -11.707  19.954  1.00  0.00     0.012 C 
ENDBRANCH  23  52
TORSDOF 12
ENDMDL
MODEL 5
REMARK VINA RESULT: -5.674787500      1.786      2.634
REMARK  12 active torsions:
REMARK  status: ('A' for Active; 'I' for Inactive)
REMARK    1  A    between atoms: C2_2  and  C4_4 
REMARK    2  A    between atoms: C4_4  and  C5_5 
REMARK    3  A    between atoms: C7_10  and  C8_11 
REMARK    4  A    between atoms: C11_16  and  C12_17 
REMARK    5  A    between atoms: C12_17  and  C13_18 
REMARK    6  A    between atoms: C13_18  and  C14_19 
REMARK    7  A    between atoms: C14_19  and  N3_20 
REMARK    8  A    between atoms: C17_27  and  O2_28 
REMARK    9  A    between atoms: C18_30  and  C19_31 
REMARK   10  A    between atoms: C19_31  and  C20_32 
REMARK   11  A    between atoms: C25_39  and  C26_40 
REMARK   12  A    between atoms: C30_47  and  C31_48 
ROOT
HETATM    1  C5  UNL     1       8.289  -9.604  18.858  1.00  0.00     0.177 C 
HETATM    2  N1  UNL     1       9.001  -8.347  18.959  1.00  0.00    -0.346 N 
ATOM      3  H1  UNL     1       9.843  -8.362  19.535  1.00  0.00     0.163 HD
HETATM    4  C6  UNL     1       8.687  -7.108  18.370  1.00  0.00     0.241 C 
HETATM    5  O1  UNL     1       8.740  -6.106  19.152  1.00  0.00    -0.271 OA
HETATM    6  C7  UNL     1       8.312  -6.855  16.958  1.00  0.00     0.174 C 
HETATM    7  N2  UNL     1       7.037  -6.370  16.678  1.00  0.00    -0.388 N 
ATOM      8  H2  UNL     1       6.491  -6.914  16.011  1.00  0.00     0.156 HD
HETATM    9  C11 UNL     1       6.427  -5.260  17.184  1.00  0.00     0.181 C 
HETATM   10  N6  UNL     1       5.054  -5.508  17.593  1.00  0.00    -0.347 N 
HETATM   11  C16 UNL     1       4.368  -4.284  18.083  1.00  0.00     0.153 C 
HETATM   12  C17 UNL     1       4.315  -6.669  17.643  1.00  0.00     0.138 C 
HETATM   13  C18 UNL     1       4.129  -7.747  16.590  1.00  0.00     0.161 C 
HETATM   14  N7  UNL     1       2.964  -8.532  17.068  1.00  0.00    -0.343 N 
HETATM   15  C23 UNL     1       1.734  -7.755  17.285  1.00  0.00     0.153 C 
HETATM   16  C24 UNL     1       2.927  -9.877  17.369  1.00  0.00     0.243 C 
HETATM   17  O3  UNL     1       1.840 -10.538  17.214  1.00  0.00    -0.271 OA
HETATM   18  C25 UNL     1       4.066 -10.707  17.887  1.00  0.00     0.180 C 
HETATM   19  N8  UNL     1       4.303 -11.727  16.868  1.00  0.00    -0.346 N 
ATOM     20  H8  UNL     1       3.507 -12.144  16.386  1.00  0.00     0.163 HD
HETATM   21  C29 UNL     1       5.634 -12.157  16.527  1.00  0.00     0.241 C 
HETATM   22  O4  UNL     1       5.810 -12.574  15.358  1.00  0.00    -0.271 OA
HETATM   23  C30 UNL     1       6.734 -12.099  17.537  1.00  0.00     0.180 C 
HETATM   24  N9  UNL     1       7.894 -11.412  17.067  1.00  0.00    -0.346 N 
ATOM     25  H9  UNL     1       8.213 -11.671  16.133  1.00  0.00     0.163 HD
HETATM   26  C34 UNL     1       8.655 -10.426  17.718  1.00  0.00     0.241 C 
HETATM   27  O5  UNL     1       9.833 -10.231  17.224  1.00  0.00    -0.271 OA
ENDROOT
BRANCH   9  28
HETATM   28  C12 UNL     1       6.505  -3.936  16.516  1.00  0.00     0.048 C 
BRANCH  28  29
HETATM   29  C13 UNL     1       7.770  -3.212  16.407  1.00  0.00     0.023 C 
BRANCH  29  30
HETATM   30  C14 UNL     1       7.582  -2.164  15.290  1.00  0.00     0.122 C 
BRANCH  30  31
HETATM   31  N3  UNL     1       6.892  -2.736  14.168  1.00  0.00    -0.367 N 
HETATM   32  C15 UNL     1       6.435  -2.069  13.163  1.00  0.00     0.196 C 
HETATM   33  N4  UNL     1       6.552  -0.668  13.029  1.00  0.00    -0.067 NA
HETATM   34  N5  UNL     1       5.776  -2.804  12.143  1.00  0.00    -0.067 NA
ATOM     35  H3  UNL     1       6.751  -3.747  14.166  1.00  0.00     0.161 HD
ENDBRANCH  30  31
ENDBRANCH  29  30
ENDBRANCH  28  29
ENDBRANCH   9  28
BRANCH   6  36
HETATM   36  C8  UNL     1       9.469  -6.133  16.248  1.00  0.00     0.009 C 
HETATM   37  C9  UNL     1       9.414  -6.323  14.760  1.00  0.00     0.012 C 
HETATM   38  C10 UNL     1      10.814  -6.563  16.727  1.00  0.00     0.012 C 
ENDBRANCH   6  36
BRANCH  12  39
HETATM   39  O2  UNL     1       3.679  -6.888  18.757  1.00  0.00    -0.348 OA
ATOM     40  H2  UNL     1       3.854  -6.274  19.460  1.00  0.00     0.219 HD
ENDBRANCH  12  39
BRANCH  13  41
HETATM   41  C19 UNL     1       3.739  -7.158  15.277  1.00  0.00     0.037 C 
BRANCH  41  42
HETATM   42  C20 UNL     1       3.084  -5.850  15.218  1.00  0.00    -0.020 C 
HETATM   43  C21 UNL     1       1.756  -6.088  14.425  1.00  0.00     0.009 C 
HETATM   44  C22 UNL     1       3.728  -4.666  14.642  1.00  0.00     0.009 C 
ENDBRANCH  41  42
ENDBRANCH  13  41
BRANCH   1  45
HETATM   45  C4  UNL     1       8.333 -10.323  20.168  1.00  0.00     0.038 C 
BRANCH  45  46
HETATM   46  C2  UNL     1       9.679 -10.711  20.695  1.00  0.00    -0.020 C 
HETATM   47  C1  UNL     1       9.698 -10.396  22.222  1.00  0.00     0.009 C 
HETATM   48  C3  UNL     1      10.012 -12.167  20.604  1.00  0.00     0.009 C 
ENDBRANCH  45  46
ENDBRANCH   1  45
BRANCH  18  49
HETATM   49  C26 UNL     1       3.580 -11.314  19.178  1.00  0.00     0.009 C 
HETATM   50  C27 UNL     1       3.066 -12.710  18.913  1.00  0.00     0.012 C 
HETATM   51  C28 UNL     1       4.609 -11.315  20.249  1.00  0.00     0.012 C 
ENDBRANCH  18  49
BRANCH  23  52
HETATM   52  C31 UNL     1       7.093 -13.519  17.887  1.00  0.00     0.009 C 
HETATM   53  C32 UNL     1       8.404 -13.978  17.307  1.00  0.00     0.012 C 
HETATM   54  C33 UNL     1       6.976 -13.823  19.354  1.00  0.00     0.012 C 
ENDBRANCH  23  52
TORSDOF 12
ENDMDL
