MODEL 1
REMARK VINA RESULT: -5.335521113      0.000      0.000
REMARK  14 active torsions:
REMARK  status: ('A' for Active; 'I' for Inactive)
REMARK    1  A    between atoms: C3_3  and  C5_5 
REMARK    2  A    between atoms: C9_10  and  C10_11 
REMARK    3  A    between atoms: C10_11  and  O2_12 
REMARK    4  A    between atoms: C12_16  and  O3_17 
REMARK    5  A    between atoms: C13_19  and  N2_20 
REMARK    6  A    between atoms: C18_28  and  C19_29 
REMARK    7  A    between atoms: C18_28  and  C25_35 
REMARK    8  A    between atoms: C20_30  and  C21_31 
REMARK    9  A    between atoms: C21_31  and  C22_32 
REMARK   10  A    between atoms: C22_32  and  C23_33 
REMARK       I    between atoms: C25_35  and  N4_37 
REMARK   11  A    between atoms: N4_37  and  C26_39 
REMARK   12  A    between atoms: C28_43  and  O6_44 
REMARK   13  A    between atoms: C30_48  and  C31_49 
REMARK   14  A    between atoms: C31_49  and  N8_53 
ROOT
HETATM    1  C5  UNL     1       4.941 -14.321  18.397  1.00  0.00     0.084 C 
HETATM    2  C6  UNL     1       4.870 -12.806  18.491  1.00  0.00     0.163 C 
HETATM    3  O1  UNL     1       3.699 -12.503  18.053  1.00  0.00    -0.341 OA
HETATM    4  C7  UNL     1       3.027 -11.495  17.632  1.00  0.00     0.119 C 
HETATM    5  C8  UNL     1       1.671 -11.758  17.005  1.00  0.00     0.125 C 
HETATM    6  C9  UNL     1       0.959 -13.001  17.335  1.00  0.00     0.020 C 
HETATM    7  N1  UNL     1       1.292 -13.722  18.510  1.00  0.00    -0.339 N 
HETATM    8  C11 UNL     1       0.084 -14.083  19.355  1.00  0.00     0.158 C 
HETATM    9  C12 UNL     1       2.478 -14.172  19.095  1.00  0.00     0.150 C 
HETATM   10  C13 UNL     1       3.602 -14.986  18.678  1.00  0.00     0.273 C 
HETATM   11  C17 UNL     1       2.829 -10.280  18.464  1.00  0.00     0.273 C 
HETATM   12  O4  UNL     1       2.720 -10.347  19.744  1.00  0.00    -0.266 OA
HETATM   13  N3  UNL     1       2.735  -8.959  17.944  1.00  0.00    -0.318 N 
ATOM     14  H3  UNL     1       1.876  -8.434  18.104  1.00  0.00     0.166 HD
HETATM   15  C18 UNL     1       3.831  -8.310  17.178  1.00  0.00     0.211 C 
HETATM   16  N5  UNL     1       5.175  -8.665  17.372  1.00  0.00    -0.319 N 
ATOM     17  H5  UNL     1       5.751  -7.984  16.878  1.00  0.00     0.166 HD
HETATM   18  C28 UNL     1       6.029  -9.584  17.977  1.00  0.00     0.218 C 
HETATM   19  N6  UNL     1       6.466 -10.890  17.882  1.00  0.00    -0.339 N 
HETATM   20  C29 UNL     1       7.798 -11.611  17.640  1.00  0.00     0.141 C 
HETATM   21  C30 UNL     1       7.270 -12.164  18.989  1.00  0.00     0.096 C 
HETATM   22  C33 UNL     1       6.118 -12.236  18.019  1.00  0.00     0.131 C 
ENDROOT
BRANCH  15  23
HETATM   23  C19 UNL     1       3.406  -8.281  15.747  1.00  0.00     0.033 C 
HETATM   24  C20 UNL     1       3.295  -9.436  14.909  1.00  0.00    -0.026 C 
BRANCH  24  25
HETATM   25  C21 UNL     1       4.256 -10.451  14.512  1.00  0.00     0.027 C 
BRANCH  25  26
HETATM   26  C22 UNL     1       3.700 -11.065  13.174  1.00  0.00     0.003 C 
BRANCH  26  27
HETATM   27  C23 UNL     1       2.867 -12.236  13.502  1.00  0.00    -0.004 C 
HETATM   28  C24 UNL     1       1.848 -12.532  12.410  1.00  0.00     0.005 C 
ENDBRANCH  26  27
ENDBRANCH  25  26
ENDBRANCH  24  25
ENDBRANCH  15  23
BRANCH  15  29
HETATM   29  C25 UNL     1       3.649  -6.853  17.742  1.00  0.00     0.271 C 
HETATM   30  O5  UNL     1       4.283  -6.585  18.748  1.00  0.00    -0.268 OA
HETATM   31  N4  UNL     1       2.826  -5.986  17.051  1.00  0.00    -0.357 N 
ATOM     32  H4  UNL     1       2.378  -6.391  16.229  1.00  0.00     0.162 HD
BRANCH  31  33
HETATM   33  C26 UNL     1       2.498  -4.625  17.291  1.00  0.00     0.118 C 
HETATM   34  C27 UNL     1       2.206  -3.803  16.088  1.00  0.00     0.026 C 
ENDBRANCH  31  33
ENDBRANCH  15  29
BRANCH  18  35
HETATM   35  O6  UNL     1       6.643  -8.965  19.023  1.00  0.00    -0.333 OA
ATOM     36  H6  UNL     1       7.530  -8.752  18.759  1.00  0.00     0.220 HD
ENDBRANCH  18  35
BRANCH   6  37
HETATM   37  C10 UNL     1       0.738 -13.790  16.060  1.00  0.00     0.217 C 
BRANCH  37  38
HETATM   38  O2  UNL     1      -0.307 -13.077  15.393  1.00  0.00    -0.395 OA
ATOM     39  H2  UNL     1      -0.946 -12.920  16.078  1.00  0.00     0.209 HD
ENDBRANCH  37  38
ENDBRANCH   6  37
BRANCH  21  40
HETATM   40  C31 UNL     1       8.150 -13.107  19.479  1.00  0.00     0.078 C 
HETATM   41  N7  UNL     1       7.873 -13.954  20.450  1.00  0.00    -0.389 N 
ATOM     42  H72 UNL     1       6.926 -13.855  20.815  1.00  0.00     0.157 HD
ATOM     43  H71 UNL     1       8.524 -14.651  20.812  1.00  0.00     0.157 HD
BRANCH  40  44
HETATM   44  N8  UNL     1       9.480 -13.246  18.966  1.00  0.00    -0.384 N 
HETATM   45  C32 UNL     1      10.050 -14.499  18.546  1.00  0.00     0.147 C 
ATOM     46  H8  UNL     1      10.057 -12.409  18.894  1.00  0.00     0.160 HD
ENDBRANCH  40  44
ENDBRANCH  21  40
BRANCH   1  47
HETATM   47  C3  UNL     1       5.543 -14.879  17.157  1.00  0.00    -0.079 C 
HETATM   48  C2  UNL     1       6.740 -15.433  17.029  1.00  0.00    -0.028 C 
HETATM   49  C1  UNL     1       7.346 -16.021  15.819  1.00  0.00     0.036 C 
HETATM   50  C4  UNL     1       4.823 -14.922  15.828  1.00  0.00     0.043 C 
ENDBRANCH   1  47
BRANCH  10  51
HETATM   51  N2  UNL     1       3.748 -16.069  19.685  1.00  0.00    -0.066 N 
HETATM   52  C14 UNL     1       2.561 -16.335  20.440  1.00  0.00     0.272 C 
HETATM   53  C15 UNL     1       4.798 -15.824  20.629  1.00  0.00     0.272 C 
HETATM   54  C16 UNL     1       4.143 -17.292  18.986  1.00  0.00     0.272 C 
ENDBRANCH  10  51
BRANCH   9  55
HETATM   55  O3  UNL     1       2.610 -13.753  20.340  1.00  0.00    -0.348 OA
ATOM     56  H3  UNL     1       2.896 -14.447  20.923  1.00  0.00     0.219 HD
ENDBRANCH   9  55
TORSDOF 14
ENDMDL
MODEL 2
REMARK VINA RESULT: -5.195571192      1.563      1.738
REMARK  14 active torsions:
REMARK  status: ('A' for Active; 'I' for Inactive)
REMARK    1  A    between atoms: C3_3  and  C5_5 
REMARK    2  A    between atoms: C9_10  and  C10_11 
REMARK    3  A    between atoms: C10_11  and  O2_12 
REMARK    4  A    between atoms: C12_16  and  O3_17 
REMARK    5  A    between atoms: C13_19  and  N2_20 
REMARK    6  A    between atoms: C18_28  and  C19_29 
REMARK    7  A    between atoms: C18_28  and  C25_35 
REMARK    8  A    between atoms: C20_30  and  C21_31 
REMARK    9  A    between atoms: C21_31  and  C22_32 
REMARK   10  A    between atoms: C22_32  and  C23_33 
REMARK       I    between atoms: C25_35  and  N4_37 
REMARK   11  A    between atoms: N4_37  and  C26_39 
REMARK   12  A    between atoms: C28_43  and  O6_44 
REMARK   13  A    between atoms: C30_48  and  C31_49 
REMARK   14  A    between atoms: C31_49  and  N8_53 
ROOT
HETATM    1  C5  UNL     1       5.596 -15.128  17.802  1.00  0.00     0.084 C 
HETATM    2  C6  UNL     1       5.666 -13.616  17.936  1.00  0.00     0.163 C 
HETATM    3  O1  UNL     1       4.448 -13.219  17.830  1.00  0.00    -0.341 OA
HETATM    4  C7  UNL     1       3.766 -12.153  17.618  1.00  0.00     0.119 C 
HETATM    5  C8  UNL     1       2.277 -12.300  17.369  1.00  0.00     0.125 C 
HETATM    6  C9  UNL     1       1.585 -13.503  17.857  1.00  0.00     0.020 C 
HETATM    7  N1  UNL     1       2.162 -14.286  18.890  1.00  0.00    -0.339 N 
HETATM    8  C11 UNL     1       1.196 -14.593  20.019  1.00  0.00     0.158 C 
HETATM    9  C12 UNL     1       3.423 -14.836  19.131  1.00  0.00     0.150 C 
HETATM   10  C13 UNL     1       4.333 -15.709  18.418  1.00  0.00     0.273 C 
HETATM   11  C17 UNL     1       3.886 -10.957  18.492  1.00  0.00     0.273 C 
HETATM   12  O4  UNL     1       4.113 -11.062  19.754  1.00  0.00    -0.266 OA
HETATM   13  N3  UNL     1       3.757  -9.615  18.036  1.00  0.00    -0.318 N 
ATOM     14  H3  UNL     1       3.012  -9.039  18.427  1.00  0.00     0.166 HD
HETATM   15  C18 UNL     1       4.658  -9.016  17.018  1.00  0.00     0.211 C 
HETATM   16  N5  UNL     1       5.975  -9.468  16.843  1.00  0.00    -0.319 N 
ATOM     17  H5  UNL     1       6.449  -8.811  16.224  1.00  0.00     0.166 HD
HETATM   18  C28 UNL     1       6.886 -10.463  17.184  1.00  0.00     0.218 C 
HETATM   19  N6  UNL     1       7.184 -11.792  16.956  1.00  0.00    -0.339 N 
HETATM   20  C29 UNL     1       8.347 -12.593  16.358  1.00  0.00     0.141 C 
HETATM   21  C30 UNL     1       8.154 -13.156  17.789  1.00  0.00     0.096 C 
HETATM   22  C33 UNL     1       6.785 -13.115  17.158  1.00  0.00     0.131 C 
ENDROOT
BRANCH  15  23
HETATM   23  C19 UNL     1       3.874  -8.908  15.752  1.00  0.00     0.033 C 
HETATM   24  C20 UNL     1       3.466 -10.021  14.951  1.00  0.00    -0.026 C 
BRANCH  24  25
HETATM   25  C21 UNL     1       4.217 -11.078  14.293  1.00  0.00     0.027 C 
BRANCH  25  26
HETATM   26  C22 UNL     1       3.360 -11.494  13.040  1.00  0.00     0.003 C 
BRANCH  26  27
HETATM   27  C23 UNL     1       3.533 -10.475  11.990  1.00  0.00    -0.004 C 
HETATM   28  C24 UNL     1       3.077 -10.980  10.628  1.00  0.00     0.005 C 
ENDBRANCH  26  27
ENDBRANCH  25  26
ENDBRANCH  24  25
ENDBRANCH  15  23
BRANCH  15  29
HETATM   29  C25 UNL     1       4.741  -7.571  17.633  1.00  0.00     0.271 C 
HETATM   30  O5  UNL     1       3.858  -7.271  18.418  1.00  0.00    -0.268 OA
HETATM   31  N4  UNL     1       5.808  -6.770  17.273  1.00  0.00    -0.357 N 
ATOM     32  H4  UNL     1       6.448  -7.194  16.602  1.00  0.00     0.162 HD
BRANCH  31  33
HETATM   33  C26 UNL     1       6.165  -5.458  17.679  1.00  0.00     0.118 C 
HETATM   34  C27 UNL     1       7.289  -4.829  16.939  1.00  0.00     0.026 C 
ENDBRANCH  31  33
ENDBRANCH  15  29
BRANCH  18  35
HETATM   35  O6  UNL     1       7.799  -9.925  18.039  1.00  0.00    -0.333 OA
ATOM     36  H6  UNL     1       8.583  -9.720  17.543  1.00  0.00     0.220 HD
ENDBRANCH  18  35
BRANCH   6  37
HETATM   37  C10 UNL     1       0.977 -14.230  16.674  1.00  0.00     0.217 C 
BRANCH  37  38
HETATM   38  O2  UNL     1       1.122 -13.305  15.593  1.00  0.00    -0.395 OA
ATOM     39  H2  UNL     1       0.492 -13.608  14.950  1.00  0.00     0.209 HD
ENDBRANCH  37  38
ENDBRANCH   6  37
BRANCH  21  40
HETATM   40  C31 UNL     1       9.059 -14.173  18.012  1.00  0.00     0.078 C 
HETATM   41  N7  UNL     1       9.022 -14.992  19.044  1.00  0.00    -0.389 N 
ATOM     42  H72 UNL     1       8.244 -14.809  19.678  1.00  0.00     0.157 HD
ATOM     43  H71 UNL     1       9.691 -15.744  19.209  1.00  0.00     0.157 HD
BRANCH  40  44
HETATM   44  N8  UNL     1      10.151 -14.430  17.121  1.00  0.00    -0.384 N 
HETATM   45  C32 UNL     1      10.575 -15.749  16.733  1.00  0.00     0.147 C 
ATOM     46  H8  UNL     1      10.658 -13.632  16.740  1.00  0.00     0.160 HD
ENDBRANCH  40  44
ENDBRANCH  21  40
BRANCH   1  47
HETATM   47  C3  UNL     1       5.807 -15.681  16.438  1.00  0.00    -0.079 C 
HETATM   48  C2  UNL     1       6.889 -16.294  15.982  1.00  0.00    -0.028 C 
HETATM   49  C1  UNL     1       7.110 -16.878  14.645  1.00  0.00     0.036 C 
HETATM   50  C4  UNL     1       4.753 -15.648  15.355  1.00  0.00     0.043 C 
ENDBRANCH   1  47
BRANCH  10  51
HETATM   51  N2  UNL     1       4.657 -16.834  19.332  1.00  0.00    -0.066 N 
HETATM   52  C14 UNL     1       3.724 -17.011  20.403  1.00  0.00     0.272 C 
HETATM   53  C15 UNL     1       5.958 -16.723  19.925  1.00  0.00     0.272 C 
HETATM   54  C16 UNL     1       4.704 -18.065  18.544  1.00  0.00     0.272 C 
ENDBRANCH  10  51
BRANCH   9  55
HETATM   55  O3  UNL     1       3.909 -14.471  20.303  1.00  0.00    -0.348 OA
ATOM     56  H3  UNL     1       4.856 -14.392  20.289  1.00  0.00     0.219 HD
ENDBRANCH   9  55
TORSDOF 14
ENDMDL
MODEL 3
REMARK VINA RESULT: -5.149036597      2.636      5.969
REMARK  14 active torsions:
REMARK  status: ('A' for Active; 'I' for Inactive)
REMARK    1  A    between atoms: C3_3  and  C5_5 
REMARK    2  A    between atoms: C9_10  and  C10_11 
REMARK    3  A    between atoms: C10_11  and  O2_12 
REMARK    4  A    between atoms: C12_16  and  O3_17 
REMARK    5  A    between atoms: C13_19  and  N2_20 
REMARK    6  A    between atoms: C18_28  and  C19_29 
REMARK    7  A    between atoms: C18_28  and  C25_35 
REMARK    8  A    between atoms: C20_30  and  C21_31 
REMARK    9  A    between atoms: C21_31  and  C22_32 
REMARK   10  A    between atoms: C22_32  and  C23_33 
REMARK       I    between atoms: C25_35  and  N4_37 
REMARK   11  A    between atoms: N4_37  and  C26_39 
REMARK   12  A    between atoms: C28_43  and  O6_44 
REMARK   13  A    between atoms: C30_48  and  C31_49 
REMARK   14  A    between atoms: C31_49  and  N8_53 
ROOT
HETATM    1  C5  UNL     1       2.809 -13.281  16.480  1.00  0.00     0.084 C 
HETATM    2  C6  UNL     1       4.116 -13.082  17.229  1.00  0.00     0.163 C 
HETATM    3  O1  UNL     1       4.244 -11.807  17.336  1.00  0.00    -0.341 OA
HETATM    4  C7  UNL     1       5.126 -10.917  17.609  1.00  0.00     0.119 C 
HETATM    5  C8  UNL     1       4.768  -9.463  17.369  1.00  0.00     0.125 C 
HETATM    6  C9  UNL     1       3.351  -9.072  17.332  1.00  0.00     0.020 C 
HETATM    7  N1  UNL     1       2.367  -9.905  17.926  1.00  0.00    -0.339 N 
HETATM    8  C11 UNL     1       1.429  -9.155  18.854  1.00  0.00     0.158 C 
HETATM    9  C12 UNL     1       2.058 -11.266  17.877  1.00  0.00     0.150 C 
HETATM   10  C13 UNL     1       1.767 -12.232  16.837  1.00  0.00     0.273 C 
HETATM   11  C17 UNL     1       5.867 -10.915  18.897  1.00  0.00     0.273 C 
HETATM   12  O4  UNL     1       5.319 -11.307  19.993  1.00  0.00    -0.266 OA
HETATM   13  N3  UNL     1       7.214 -10.484  19.047  1.00  0.00    -0.318 N 
ATOM     14  H3  UNL     1       7.407  -9.696  19.666  1.00  0.00     0.166 HD
HETATM   15  C18 UNL     1       8.353 -11.128  18.343  1.00  0.00     0.211 C 
HETATM   16  N5  UNL     1       8.312 -12.476  17.954  1.00  0.00    -0.319 N 
ATOM     17  H5  UNL     1       9.248 -12.741  17.651  1.00  0.00     0.166 HD
HETATM   18  C28 UNL     1       7.490 -13.592  17.821  1.00  0.00     0.218 C 
HETATM   19  N6  UNL     1       6.465 -14.103  17.051  1.00  0.00    -0.339 N 
HETATM   20  C29 UNL     1       6.247 -15.316  16.137  1.00  0.00     0.141 C 
HETATM   21  C30 UNL     1       5.131 -15.404  17.209  1.00  0.00     0.096 C 
HETATM   22  C33 UNL     1       5.118 -13.986  16.696  1.00  0.00     0.131 C 
ENDROOT
BRANCH  15  23
HETATM   23  C19 UNL     1       8.785 -10.192  17.262  1.00  0.00     0.033 C 
HETATM   24  C20 UNL     1       9.107  -8.812  17.463  1.00  0.00    -0.026 C 
BRANCH  24  25
HETATM   25  C21 UNL     1       8.344  -7.699  18.002  1.00  0.00     0.027 C 
BRANCH  25  26
HETATM   26  C22 UNL     1       9.324  -6.469  18.000  1.00  0.00     0.003 C 
BRANCH  26  27
HETATM   27  C23 UNL     1      10.300  -6.643  16.909  1.00  0.00    -0.004 C 
HETATM   28  C24 UNL     1      10.024  -5.702  15.744  1.00  0.00     0.005 C 
ENDBRANCH  26  27
ENDBRANCH  25  26
ENDBRANCH  24  25
ENDBRANCH  15  23
BRANCH  15  29
HETATM   29  C25 UNL     1       9.411 -11.012  19.501  1.00  0.00     0.271 C 
HETATM   30  O5  UNL     1      10.539 -11.391  19.237  1.00  0.00    -0.268 OA
HETATM   31  N4  UNL     1       9.003 -10.467  20.704  1.00  0.00    -0.357 N 
ATOM     32  H4  UNL     1       8.018 -10.207  20.738  1.00  0.00     0.162 HD
BRANCH  31  33
HETATM   33  C26 UNL     1       9.724 -10.208  21.899  1.00  0.00     0.118 C 
HETATM   34  C27 UNL     1       9.034 -10.565  23.166  1.00  0.00     0.026 C 
ENDBRANCH  31  33
ENDBRANCH  15  29
BRANCH  18  35
HETATM   35  O6  UNL     1       7.827 -14.483  18.794  1.00  0.00    -0.333 OA
ATOM     36  H6  UNL     1       7.036 -14.720  19.263  1.00  0.00     0.220 HD
ENDBRANCH  18  35
BRANCH   6  37
HETATM   37  C10 UNL     1       3.043  -8.475  15.973  1.00  0.00     0.217 C 
BRANCH  37  38
HETATM   38  O2  UNL     1       4.158  -7.615  15.719  1.00  0.00    -0.395 OA
ATOM     39  H2  UNL     1       4.700  -8.118  15.123  1.00  0.00     0.209 HD
ENDBRANCH  37  38
ENDBRANCH   6  37
BRANCH  21  40
HETATM   40  C31 UNL     1       4.336 -16.504  16.960  1.00  0.00     0.078 C 
HETATM   41  N7  UNL     1       4.590 -17.417  16.044  1.00  0.00    -0.389 N 
ATOM     42  H72 UNL     1       5.450 -17.240  15.524  1.00  0.00     0.157 HD
ATOM     43  H71 UNL     1       4.003 -18.230  15.860  1.00  0.00     0.157 HD
BRANCH  40  44
HETATM   44  N8  UNL     1       3.129 -16.752  17.689  1.00  0.00    -0.384 N 
HETATM   45  C32 UNL     1       2.065 -17.597  17.216  1.00  0.00     0.147 C 
ATOM     46  H8  UNL     1       3.017 -16.304  18.599  1.00  0.00     0.160 HD
ENDBRANCH  40  44
ENDBRANCH  21  40
BRANCH   1  47
HETATM   47  C3  UNL     1       2.909 -13.427  15.003  1.00  0.00    -0.079 C 
HETATM   48  C2  UNL     1       2.725 -14.531  14.295  1.00  0.00    -0.028 C 
HETATM   49  C1  UNL     1       2.787 -14.694  12.829  1.00  0.00     0.036 C 
HETATM   50  C4  UNL     1       3.213 -12.276  14.072  1.00  0.00     0.043 C 
ENDBRANCH   1  47
BRANCH  10  51
HETATM   51  N2  UNL     1       0.472 -12.868  17.189  1.00  0.00    -0.066 N 
HETATM   52  C14 UNL     1      -0.329 -12.108  18.101  1.00  0.00     0.272 C 
HETATM   53  C15 UNL     1       0.621 -14.177  17.752  1.00  0.00     0.272 C 
HETATM   54  C16 UNL     1      -0.288 -13.070  15.955  1.00  0.00     0.272 C 
ENDBRANCH  10  51
BRANCH   9  55
HETATM   55  O3  UNL     1       2.021 -11.812  19.078  1.00  0.00    -0.348 OA
ATOM     56  H3  UNL     1       2.314 -12.716  19.070  1.00  0.00     0.219 HD
ENDBRANCH   9  55
TORSDOF 14
ENDMDL
MODEL 4
REMARK VINA RESULT: -5.132718829      2.375      5.712
REMARK  14 active torsions:
REMARK  status: ('A' for Active; 'I' for Inactive)
REMARK    1  A    between atoms: C3_3  and  C5_5 
REMARK    2  A    between atoms: C9_10  and  C10_11 
REMARK    3  A    between atoms: C10_11  and  O2_12 
REMARK    4  A    between atoms: C12_16  and  O3_17 
REMARK    5  A    between atoms: C13_19  and  N2_20 
REMARK    6  A    between atoms: C18_28  and  C19_29 
REMARK    7  A    between atoms: C18_28  and  C25_35 
REMARK    8  A    between atoms: C20_30  and  C21_31 
REMARK    9  A    between atoms: C21_31  and  C22_32 
REMARK   10  A    between atoms: C22_32  and  C23_33 
REMARK       I    between atoms: C25_35  and  N4_37 
REMARK   11  A    between atoms: N4_37  and  C26_39 
REMARK   12  A    between atoms: C28_43  and  O6_44 
REMARK   13  A    between atoms: C30_48  and  C31_49 
REMARK   14  A    between atoms: C31_49  and  N8_53 
ROOT
HETATM    1  C5  UNL     1       4.908 -13.151  19.628  1.00  0.00     0.084 C 
HETATM    2  C6  UNL     1       4.322 -11.986  18.849  1.00  0.00     0.163 C 
HETATM    3  O1  UNL     1       5.336 -11.271  18.512  1.00  0.00    -0.341 OA
HETATM    4  C7  UNL     1       5.625 -10.099  18.077  1.00  0.00     0.119 C 
HETATM    5  C8  UNL     1       7.086  -9.691  18.051  1.00  0.00     0.125 C 
HETATM    6  C9  UNL     1       8.120 -10.735  18.023  1.00  0.00     0.020 C 
HETATM    7  N1  UNL     1       7.795 -12.048  17.595  1.00  0.00    -0.339 N 
HETATM    8  C11 UNL     1       8.752 -12.593  16.551  1.00  0.00     0.158 C 
HETATM    9  C12 UNL     1       6.786 -12.967  17.893  1.00  0.00     0.150 C 
HETATM   10  C13 UNL     1       6.262 -13.588  19.092  1.00  0.00     0.273 C 
HETATM   11  C17 UNL     1       5.064  -9.572  16.806  1.00  0.00     0.273 C 
HETATM   12  O4  UNL     1       4.825 -10.341  15.802  1.00  0.00    -0.266 OA
HETATM   13  N3  UNL     1       4.751  -8.204  16.574  1.00  0.00    -0.318 N 
ATOM     14  H3  UNL     1       5.236  -7.715  15.822  1.00  0.00     0.166 HD
HETATM   15  C18 UNL     1       3.750  -7.455  17.377  1.00  0.00     0.211 C 
HETATM   16  N5  UNL     1       2.675  -8.103  18.005  1.00  0.00    -0.319 N 
ATOM     17  H5  UNL     1       2.036  -7.386  18.347  1.00  0.00     0.166 HD
HETATM   18  C28 UNL     1       2.141  -9.344  18.343  1.00  0.00     0.218 C 
HETATM   19  N6  UNL     1       2.324 -10.412  19.198  1.00  0.00    -0.339 N 
HETATM   20  C29 UNL     1       1.532 -11.099  20.318  1.00  0.00     0.141 C 
HETATM   21  C30 UNL     1       1.836 -12.215  19.286  1.00  0.00     0.096 C 
HETATM   22  C33 UNL     1       3.139 -11.496  19.532  1.00  0.00     0.131 C 
ENDROOT
BRANCH  15  23
HETATM   23  C19 UNL     1       4.511  -6.529  18.268  1.00  0.00     0.033 C 
HETATM   24  C20 UNL     1       5.610  -5.716  17.846  1.00  0.00    -0.026 C 
BRANCH  24  25
HETATM   25  C21 UNL     1       6.890  -6.042  17.240  1.00  0.00     0.027 C 
BRANCH  25  26
HETATM   26  C22 UNL     1       7.920  -6.113  18.427  1.00  0.00     0.003 C 
BRANCH  26  27
HETATM   27  C23 UNL     1       9.282  -5.987  17.880  1.00  0.00    -0.004 C 
HETATM   28  C24 UNL     1       9.624  -7.134  16.938  1.00  0.00     0.005 C 
ENDBRANCH  26  27
ENDBRANCH  25  26
ENDBRANCH  24  25
ENDBRANCH  15  23
BRANCH  15  29
HETATM   29  C25 UNL     1       3.151  -6.585  16.212  1.00  0.00     0.271 C 
HETATM   30  O5  UNL     1       3.345  -6.997  15.082  1.00  0.00    -0.268 OA
HETATM   31  N4  UNL     1       2.432  -5.454  16.548  1.00  0.00    -0.357 N 
ATOM     32  H4  UNL     1       2.376  -5.269  17.549  1.00  0.00     0.162 HD
BRANCH  31  33
HETATM   33  C26 UNL     1       1.756  -4.507  15.734  1.00  0.00     0.118 C 
HETATM   34  C27 UNL     1       2.320  -3.132  15.731  1.00  0.00     0.026 C 
ENDBRANCH  31  33
ENDBRANCH  15  29
BRANCH  18  35
HETATM   35  O6  UNL     1       1.059  -9.568  17.546  1.00  0.00    -0.333 OA
ATOM     36  H6  UNL     1       0.625 -10.355  17.854  1.00  0.00     0.220 HD
ENDBRANCH  18  35
BRANCH   6  37
HETATM   37  C10 UNL     1       8.996 -10.589  19.252  1.00  0.00     0.217 C 
BRANCH  37  38
HETATM   38  O2  UNL     1       8.721  -9.263  19.711  1.00  0.00    -0.395 OA
ATOM     39  H2  UNL     1       7.780  -9.181  19.615  1.00  0.00     0.209 HD
ENDBRANCH  37  38
ENDBRANCH   6  37
BRANCH  21  40
HETATM   40  C31 UNL     1       1.321 -13.413  19.734  1.00  0.00     0.078 C 
HETATM   41  N7  UNL     1       0.722 -13.580  20.897  1.00  0.00    -0.389 N 
ATOM     42  H72 UNL     1       0.665 -12.724  21.449  1.00  0.00     0.157 HD
ATOM     43  H71 UNL     1       0.341 -14.465  21.228  1.00  0.00     0.157 HD
BRANCH  40  44
HETATM   44  N8  UNL     1       1.399 -14.614  18.958  1.00  0.00    -0.384 N 
HETATM   45  C32 UNL     1       1.565 -14.637  17.529  1.00  0.00     0.147 C 
ATOM     46  H8  UNL     1       1.334 -15.507  19.448  1.00  0.00     0.160 HD
ENDBRANCH  40  44
ENDBRANCH  21  40
BRANCH   1  47
HETATM   47  C3  UNL     1       4.964 -12.996  21.107  1.00  0.00    -0.079 C 
HETATM   48  C2  UNL     1       4.259 -13.664  22.007  1.00  0.00    -0.028 C 
HETATM   49  C1  UNL     1       4.319 -13.551  23.478  1.00  0.00     0.036 C 
HETATM   50  C4  UNL     1       5.901 -12.039  21.808  1.00  0.00     0.043 C 
ENDBRANCH   1  47
BRANCH  10  51
HETATM   51  N2  UNL     1       6.296 -15.056  18.868  1.00  0.00    -0.066 N 
HETATM   52  C14 UNL     1       7.128 -15.467  17.778  1.00  0.00     0.272 C 
HETATM   53  C15 UNL     1       4.999 -15.622  18.641  1.00  0.00     0.272 C 
HETATM   54  C16 UNL     1       6.779 -15.694  20.093  1.00  0.00     0.272 C 
ENDBRANCH  10  51
BRANCH   9  55
HETATM   55  O3  UNL     1       6.149 -13.374  16.810  1.00  0.00    -0.348 OA
ATOM     56  H3  UNL     1       6.410 -14.249  16.548  1.00  0.00     0.219 HD
ENDBRANCH   9  55
TORSDOF 14
ENDMDL
MODEL 5
REMARK VINA RESULT: -5.100988444      1.501      2.656
REMARK  14 active torsions:
REMARK  status: ('A' for Active; 'I' for Inactive)
REMARK    1  A    between atoms: C3_3  and  C5_5 
REMARK    2  A    between atoms: C9_10  and  C10_11 
REMARK    3  A    between atoms: C10_11  and  O2_12 
REMARK    4  A    between atoms: C12_16  and  O3_17 
REMARK    5  A    between atoms: C13_19  and  N2_20 
REMARK    6  A    between atoms: C18_28  and  C19_29 
REMARK    7  A    between atoms: C18_28  and  C25_35 
REMARK    8  A    between atoms: C20_30  and  C21_31 
REMARK    9  A    between atoms: C21_31  and  C22_32 
REMARK   10  A    between atoms: C22_32  and  C23_33 
REMARK       I    between atoms: C25_35  and  N4_37 
REMARK   11  A    between atoms: N4_37  and  C26_39 
REMARK   12  A    between atoms: C28_43  and  O6_44 
REMARK   13  A    between atoms: C30_48  and  C31_49 
REMARK   14  A    between atoms: C31_49  and  N8_53 
ROOT
HETATM    1  C5  UNL     1       4.794 -14.985  17.633  1.00  0.00     0.084 C 
HETATM    2  C6  UNL     1       4.981 -13.485  17.788  1.00  0.00     0.163 C 
HETATM    3  O1  UNL     1       3.809 -12.987  17.611  1.00  0.00    -0.341 OA
HETATM    4  C7  UNL     1       3.232 -11.867  17.370  1.00  0.00     0.119 C 
HETATM    5  C8  UNL     1       1.754 -11.887  17.028  1.00  0.00     0.125 C 
HETATM    6  C9  UNL     1       0.936 -13.031  17.457  1.00  0.00     0.020 C 
HETATM    7  N1  UNL     1       1.380 -13.866  18.515  1.00  0.00    -0.339 N 
HETATM    8  C11 UNL     1       0.323 -14.099  19.578  1.00  0.00     0.158 C 
HETATM    9  C12 UNL     1       2.573 -14.521  18.827  1.00  0.00     0.150 C 
HETATM   10  C13 UNL     1       3.451 -15.463  18.162  1.00  0.00     0.273 C 
HETATM   11  C17 UNL     1       3.396 -10.690  18.264  1.00  0.00     0.273 C 
HETATM   12  O4  UNL     1       3.534 -10.822  19.536  1.00  0.00    -0.266 OA
HETATM   13  N3  UNL     1       3.408  -9.340  17.817  1.00  0.00    -0.318 N 
ATOM     14  H3  UNL     1       2.690  -8.705  18.168  1.00  0.00     0.166 HD
HETATM   15  C18 UNL     1       4.417  -8.811  16.864  1.00  0.00     0.211 C 
HETATM   16  N5  UNL     1       5.701  -9.370  16.765  1.00  0.00    -0.319 N 
ATOM     17  H5  UNL     1       6.266  -8.751  16.185  1.00  0.00     0.166 HD
HETATM   18  C28 UNL     1       6.503 -10.441  17.150  1.00  0.00     0.218 C 
HETATM   19  N6  UNL     1       6.703 -11.788  16.925  1.00  0.00    -0.339 N 
HETATM   20  C29 UNL     1       7.831 -12.679  16.391  1.00  0.00     0.141 C 
HETATM   21  C30 UNL     1       7.502 -13.234  17.801  1.00  0.00     0.096 C 
HETATM   22  C33 UNL     1       6.184 -13.075  17.087  1.00  0.00     0.131 C 
ENDROOT
BRANCH  15  23
HETATM   23  C19 UNL     1       3.726  -8.629  15.553  1.00  0.00     0.033 C 
HETATM   24  C20 UNL     1       3.176  -7.392  15.089  1.00  0.00    -0.026 C 
BRANCH  24  25
HETATM   25  C21 UNL     1       2.169  -6.502  15.643  1.00  0.00     0.027 C 
BRANCH  25  26
HETATM   26  C22 UNL     1       2.655  -5.045  15.304  1.00  0.00     0.003 C 
BRANCH  26  27
HETATM   27  C23 UNL     1       1.895  -4.089  16.129  1.00  0.00    -0.004 C 
HETATM   28  C24 UNL     1       2.518  -3.907  17.507  1.00  0.00     0.005 C 
ENDBRANCH  26  27
ENDBRANCH  25  26
ENDBRANCH  24  25
ENDBRANCH  15  23
BRANCH  15  29
HETATM   29  C25 UNL     1       4.581  -7.382  17.500  1.00  0.00     0.271 C 
HETATM   30  O5  UNL     1       3.809  -7.105  18.401  1.00  0.00    -0.268 OA
HETATM   31  N4  UNL     1       5.592  -6.570  17.024  1.00  0.00    -0.357 N 
ATOM     32  H4  UNL     1       6.138  -6.974  16.263  1.00  0.00     0.162 HD
BRANCH  31  33
HETATM   33  C26 UNL     1       6.000  -5.267  17.414  1.00  0.00     0.118 C 
HETATM   34  C27 UNL     1       6.132  -4.270  16.319  1.00  0.00     0.026 C 
ENDBRANCH  31  33
ENDBRANCH  15  29
BRANCH  18  35
HETATM   35  O6  UNL     1       7.402  -9.986  18.067  1.00  0.00    -0.333 OA
ATOM     36  H6  UNL     1       7.897 -10.730  18.389  1.00  0.00     0.220 HD
ENDBRANCH  18  35
BRANCH   6  37
HETATM   37  C10 UNL     1       0.346 -13.697  16.230  1.00  0.00     0.217 C 
BRANCH  37  38
HETATM   38  O2  UNL     1      -0.852 -12.956  15.983  1.00  0.00    -0.395 OA
ATOM     39  H2  UNL     1      -1.308 -13.475  15.331  1.00  0.00     0.209 HD
ENDBRANCH  37  38
ENDBRANCH   6  37
BRANCH  21  40
HETATM   40  C31 UNL     1       8.304 -14.324  18.068  1.00  0.00     0.078 C 
HETATM   41  N7  UNL     1       8.123 -15.156  19.075  1.00  0.00    -0.389 N 
ATOM     42  H72 UNL     1       7.315 -14.921  19.653  1.00  0.00     0.157 HD
ATOM     43  H71 UNL     1       8.715 -15.962  19.272  1.00  0.00     0.157 HD
BRANCH  40  44
HETATM   44  N8  UNL     1       9.438 -14.654  17.257  1.00  0.00    -0.384 N 
HETATM   45  C32 UNL     1       9.737 -15.985  16.800  1.00  0.00     0.147 C 
ATOM     46  H8  UNL     1      10.069 -13.900  16.987  1.00  0.00     0.160 HD
ENDBRANCH  40  44
ENDBRANCH  21  40
BRANCH   1  47
HETATM   47  C3  UNL     1       5.043 -15.545  16.277  1.00  0.00    -0.079 C 
HETATM   48  C2  UNL     1       6.086 -16.264  15.890  1.00  0.00    -0.028 C 
HETATM   49  C1  UNL     1       6.340 -16.857  14.562  1.00  0.00     0.036 C 
HETATM   50  C4  UNL     1       4.080 -15.391  15.123  1.00  0.00     0.043 C 
ENDBRANCH   1  47
BRANCH  10  51
HETATM   51  N2  UNL     1       3.622 -16.617  19.081  1.00  0.00    -0.066 N 
HETATM   52  C14 UNL     1       2.630 -16.703  20.110  1.00  0.00     0.272 C 
HETATM   53  C15 UNL     1       4.901 -16.637  19.730  1.00  0.00     0.272 C 
HETATM   54  C16 UNL     1       3.581 -17.844  18.286  1.00  0.00     0.272 C 
ENDBRANCH  10  51
BRANCH   9  55
HETATM   55  O3  UNL     1       3.013 -14.206  20.031  1.00  0.00    -0.348 OA
ATOM     56  H3  UNL     1       2.916 -13.279  20.216  1.00  0.00     0.219 HD
ENDBRANCH   9  55
TORSDOF 14
ENDMDL
