MODEL 1
REMARK VINA RESULT: -7.975103581      0.000      0.000
REMARK  13 active torsions:
REMARK  status: ('A' for Active; 'I' for Inactive)
REMARK    1  A    between atoms: C2_2  and  C3_3 
REMARK    2  A    between atoms: C2_2  and  N3_12 
REMARK    3  A    between atoms: C3_3  and  C4_4 
REMARK    4  A    between atoms: C5_5  and  C6_6 
REMARK    5  A    between atoms: C6_6  and  N1_7 
REMARK    6  A    between atoms: N1_7  and  N2_9 
REMARK    7  A    between atoms: C9_18  and  C10_19 
REMARK    8  A    between atoms: C14_26  and  C15_27 
REMARK    9  A    between atoms: C15_27  and  C16_28 
REMARK   10  A    between atoms: C20_35  and  C21_36 
REMARK   11  A    between atoms: C21_36  and  C22_37 
REMARK   12  A    between atoms: C25_42  and  O4_43 
REMARK   13  A    between atoms: C30_52  and  C31_53 
ROOT
HETATM    1  N3  UNL     1       2.601   0.380  13.523  1.00  0.00    -0.363 N 
HETATM    2  C7  UNL     1       3.944   0.817  13.927  1.00  0.00     0.249 C 
HETATM    3  N4  UNL     1       4.767   1.174  12.789  1.00  0.00    -0.343 N 
ATOM      4  H4  UNL     1       4.431   1.935  12.198  1.00  0.00     0.164 HD
HETATM    5  C8  UNL     1       5.979   0.576  12.420  1.00  0.00     0.242 C 
HETATM    6  O1  UNL     1       6.214   0.266  11.223  1.00  0.00    -0.271 OA
HETATM    7  C9  UNL     1       7.103   0.247  13.380  1.00  0.00     0.180 C 
HETATM    8  N5  UNL     1       7.481  -1.107  13.030  1.00  0.00    -0.346 N 
ATOM      9  H5  UNL     1       7.685  -1.280  12.046  1.00  0.00     0.163 HD
HETATM   10  C13 UNL     1       7.599  -2.212  13.894  1.00  0.00     0.241 C 
HETATM   11  O2  UNL     1       6.986  -3.266  13.529  1.00  0.00    -0.271 OA
HETATM   12  C14 UNL     1       8.333  -2.289  15.141  1.00  0.00     0.177 C 
HETATM   13  N6  UNL     1       7.641  -2.118  16.376  1.00  0.00    -0.346 N 
ATOM     14  H6  UNL     1       8.191  -1.606  17.065  1.00  0.00     0.163 HD
HETATM   15  C19 UNL     1       6.400  -2.484  16.854  1.00  0.00     0.241 C 
HETATM   16  O3  UNL     1       5.660  -1.562  17.298  1.00  0.00    -0.271 OA
HETATM   17  C20 UNL     1       5.794  -3.882  16.922  1.00  0.00     0.176 C 
HETATM   18  N7  UNL     1       4.391  -3.726  17.197  1.00  0.00    -0.356 N 
ATOM     19  H7  UNL     1       4.177  -3.096  17.969  1.00  0.00     0.162 HD
HETATM   20  C25 UNL     1       3.280  -4.291  16.585  1.00  0.00     0.159 C 
HETATM   21  C26 UNL     1       3.035  -4.756  15.245  1.00  0.00     0.059 C 
HETATM   22  C27 UNL     1       2.754  -6.250  15.092  1.00  0.00     0.072 C 
HETATM   23  N8  UNL     1       2.997  -4.028  14.169  1.00  0.00    -0.327 N 
ATOM     24  H8  UNL     1       2.811  -4.528  13.300  1.00  0.00     0.168 HD
HETATM   25  C28 UNL     1       3.178  -2.647  14.052  1.00  0.00     0.224 C 
HETATM   26  O5  UNL     1       3.830  -2.260  13.029  1.00  0.00    -0.273 OA
HETATM   27  C29 UNL     1       2.696  -1.631  14.978  1.00  0.00     0.128 C 
HETATM   28  C30 UNL     1       1.889  -0.499  14.334  1.00  0.00     0.094 C 
ENDROOT
BRANCH   1  29
HETATM   29  C2  UNL     1       2.140   0.930  12.313  1.00  0.00     0.003 C 
HETATM   30  C1  UNL     1       2.228   0.265  11.160  1.00  0.00     0.038 C 
BRANCH  29  31
HETATM   31  C3  UNL     1       1.490   2.290  12.225  1.00  0.00     0.083 C 
BRANCH  31  32
HETATM   32  C4  UNL     1       0.247   2.279  11.477  1.00  0.00    -0.019 C 
HETATM   33  C5  UNL     1      -0.035   2.786  10.344  1.00  0.00     0.015 C 
BRANCH  33  34
HETATM   34  C6  UNL     1       0.652   3.554   9.326  1.00  0.00     0.106 C 
BRANCH  34  35
HETATM   35  N1  UNL     1       1.669   2.990   8.531  1.00  0.00    -0.318 N 
ATOM     36  H1  UNL     1       1.528   2.412   7.702  1.00  0.00     0.185 HD
BRANCH  35  37
HETATM   37  N2  UNL     1       2.944   3.366   9.089  1.00  0.00    -0.345 N 
ATOM     38  H22 UNL     1       3.075   4.023   9.859  1.00  0.00     0.176 HD
ATOM     39  H21 UNL     1       3.677   2.868   8.584  1.00  0.00     0.176 HD
ENDBRANCH  35  37
ENDBRANCH  34  35
ENDBRANCH  33  34
ENDBRANCH  31  32
ENDBRANCH  29  31
ENDBRANCH   1  29
BRANCH  28  40
HETATM   40  C31 UNL     1       0.619  -1.105  13.863  1.00  0.00     0.021 C 
HETATM   41  C32 UNL     1      -0.577  -0.193  13.836  1.00  0.00     0.007 C 
ENDBRANCH  28  40
BRANCH   7  42
HETATM   42  C10 UNL     1       8.169   1.272  12.964  1.00  0.00     0.009 C 
HETATM   43  C11 UNL     1       9.369   0.694  12.329  1.00  0.00     0.012 C 
HETATM   44  C12 UNL     1       8.556   2.020  14.229  1.00  0.00     0.012 C 
ENDBRANCH   7  42
BRANCH  20  45
HETATM   45  O4  UNL     1       2.248  -4.430  17.375  1.00  0.00    -0.345 OA
ATOM     46  H4  UNL     1       1.802  -5.264  17.287  1.00  0.00     0.219 HD
ENDBRANCH  20  45
BRANCH  12  47
HETATM   47  C15 UNL     1       9.087  -3.642  15.182  1.00  0.00     0.038 C 
BRANCH  47  48
HETATM   48  C16 UNL     1       9.843  -3.806  16.461  1.00  0.00    -0.020 C 
HETATM   49  C17 UNL     1      10.982  -2.784  16.448  1.00  0.00     0.009 C 
HETATM   50  C18 UNL     1      10.460  -5.150  16.646  1.00  0.00     0.009 C 
ENDBRANCH  47  48
ENDBRANCH  12  47
BRANCH  17  51
HETATM   51  C21 UNL     1       6.550  -4.696  17.909  1.00  0.00     0.038 C 
BRANCH  51  52
HETATM   52  C22 UNL     1       6.614  -6.145  17.849  1.00  0.00    -0.020 C 
HETATM   53  C23 UNL     1       5.486  -6.920  18.455  1.00  0.00     0.009 C 
HETATM   54  C24 UNL     1       7.872  -6.568  18.649  1.00  0.00     0.009 C 
ENDBRANCH  51  52
ENDBRANCH  17  51
TORSDOF 13
ENDMDL
MODEL 2
REMARK VINA RESULT: -7.696428711      1.164      1.392
REMARK  13 active torsions:
REMARK  status: ('A' for Active; 'I' for Inactive)
REMARK    1  A    between atoms: C2_2  and  C3_3 
REMARK    2  A    between atoms: C2_2  and  N3_12 
REMARK    3  A    between atoms: C3_3  and  C4_4 
REMARK    4  A    between atoms: C5_5  and  C6_6 
REMARK    5  A    between atoms: C6_6  and  N1_7 
REMARK    6  A    between atoms: N1_7  and  N2_9 
REMARK    7  A    between atoms: C9_18  and  C10_19 
REMARK    8  A    between atoms: C14_26  and  C15_27 
REMARK    9  A    between atoms: C15_27  and  C16_28 
REMARK   10  A    between atoms: C20_35  and  C21_36 
REMARK   11  A    between atoms: C21_36  and  C22_37 
REMARK   12  A    between atoms: C25_42  and  O4_43 
REMARK   13  A    between atoms: C30_52  and  C31_53 
ROOT
HETATM    1  N3  UNL     1       2.729   0.397  13.476  1.00  0.00    -0.363 N 
HETATM    2  C7  UNL     1       4.083   0.795  13.884  1.00  0.00     0.249 C 
HETATM    3  N4  UNL     1       4.927   1.100  12.746  1.00  0.00    -0.343 N 
ATOM      4  H4  UNL     1       4.623   1.861  12.138  1.00  0.00     0.164 HD
HETATM    5  C8  UNL     1       6.120   0.453  12.399  1.00  0.00     0.242 C 
HETATM    6  O1  UNL     1       6.354   0.110  11.211  1.00  0.00    -0.271 OA
HETATM    7  C9  UNL     1       7.224   0.103  13.375  1.00  0.00     0.180 C 
HETATM    8  N5  UNL     1       7.557  -1.271  13.055  1.00  0.00    -0.346 N 
ATOM      9  H5  UNL     1       7.763  -1.469  12.076  1.00  0.00     0.163 HD
HETATM   10  C13 UNL     1       7.629  -2.362  13.941  1.00  0.00     0.241 C 
HETATM   11  O2  UNL     1       6.982  -3.400  13.592  1.00  0.00    -0.271 OA
HETATM   12  C14 UNL     1       8.349  -2.440  15.196  1.00  0.00     0.177 C 
HETATM   13  N6  UNL     1       7.654  -2.220  16.421  1.00  0.00    -0.346 N 
ATOM     14  H6  UNL     1       8.216  -1.714  17.106  1.00  0.00     0.163 HD
HETATM   15  C19 UNL     1       6.396  -2.533  16.895  1.00  0.00     0.241 C 
HETATM   16  O3  UNL     1       5.686  -1.577  17.315  1.00  0.00    -0.271 OA
HETATM   17  C20 UNL     1       5.741  -3.907  16.985  1.00  0.00     0.176 C 
HETATM   18  N7  UNL     1       4.343  -3.696  17.244  1.00  0.00    -0.356 N 
ATOM     19  H7  UNL     1       4.145  -3.044  18.003  1.00  0.00     0.162 HD
HETATM   20  C25 UNL     1       3.217  -4.234  16.634  1.00  0.00     0.159 C 
HETATM   21  C26 UNL     1       2.966  -4.716  15.301  1.00  0.00     0.059 C 
HETATM   22  C27 UNL     1       2.634  -6.202  15.175  1.00  0.00     0.072 C 
HETATM   23  N8  UNL     1       2.963  -4.008  14.211  1.00  0.00    -0.327 N 
ATOM     24  H8  UNL     1       2.767  -4.518  13.350  1.00  0.00     0.168 HD
HETATM   25  C28 UNL     1       3.194  -2.637  14.069  1.00  0.00     0.224 C 
HETATM   26  O5  UNL     1       3.867  -2.294  13.044  1.00  0.00    -0.273 OA
HETATM   27  C29 UNL     1       2.741  -1.587  14.971  1.00  0.00     0.128 C 
HETATM   28  C30 UNL     1       1.980  -0.440  14.298  1.00  0.00     0.094 C 
ENDROOT
BRANCH   1  29
HETATM   29  C2  UNL     1       2.298   0.939  12.252  1.00  0.00     0.003 C 
HETATM   30  C1  UNL     1       2.269   0.214  11.133  1.00  0.00     0.038 C 
BRANCH  29  31
HETATM   31  C3  UNL     1       1.810   2.361  12.110  1.00  0.00     0.083 C 
BRANCH  31  32
HETATM   32  C4  UNL     1       1.975   2.889  10.770  1.00  0.00    -0.019 C 
HETATM   33  C5  UNL     1       2.999   3.392  10.204  1.00  0.00     0.015 C 
BRANCH  33  34
HETATM   34  C6  UNL     1       4.375   3.673  10.559  1.00  0.00     0.106 C 
BRANCH  34  35
HETATM   35  N1  UNL     1       4.704   4.484  11.663  1.00  0.00    -0.318 N 
ATOM     36  H1  UNL     1       4.048   5.044  12.209  1.00  0.00     0.185 HD
BRANCH  35  37
HETATM   37  N2  UNL     1       6.125   4.389  11.890  1.00  0.00    -0.345 N 
ATOM     38  H22 UNL     1       6.833   4.933  11.398  1.00  0.00     0.176 HD
ATOM     39  H21 UNL     1       6.289   3.693  12.617  1.00  0.00     0.176 HD
ENDBRANCH  35  37
ENDBRANCH  34  35
ENDBRANCH  33  34
ENDBRANCH  31  32
ENDBRANCH  29  31
ENDBRANCH   1  29
BRANCH  28  40
HETATM   40  C31 UNL     1       0.693  -1.010  13.828  1.00  0.00     0.021 C 
HETATM   41  C32 UNL     1      -0.458  -0.046  13.724  1.00  0.00     0.007 C 
ENDBRANCH  28  40
BRANCH   7  42
HETATM   42  C10 UNL     1       8.330   1.081  12.949  1.00  0.00     0.009 C 
HETATM   43  C11 UNL     1       9.583   0.443  12.506  1.00  0.00     0.012 C 
HETATM   44  C12 UNL     1       8.593   1.974  14.150  1.00  0.00     0.012 C 
ENDBRANCH   7  42
BRANCH  20  45
HETATM   45  O4  UNL     1       2.175  -4.321  17.418  1.00  0.00    -0.345 OA
ATOM     46  H4  UNL     1       1.352  -4.102  16.996  1.00  0.00     0.219 HD
ENDBRANCH  20  45
BRANCH  12  47
HETATM   47  C15 UNL     1       9.054  -3.817  15.270  1.00  0.00     0.038 C 
BRANCH  47  48
HETATM   48  C16 UNL     1      10.517  -3.696  14.985  1.00  0.00    -0.020 C 
HETATM   49  C17 UNL     1      10.799  -2.223  14.682  1.00  0.00     0.009 C 
HETATM   50  C18 UNL     1      10.985  -4.484  13.809  1.00  0.00     0.009 C 
ENDBRANCH  47  48
ENDBRANCH  12  47
BRANCH  17  51
HETATM   51  C21 UNL     1       6.460  -4.728  17.994  1.00  0.00     0.038 C 
BRANCH  51  52
HETATM   52  C22 UNL     1       7.055  -6.014  17.682  1.00  0.00    -0.020 C 
HETATM   53  C23 UNL     1       6.462  -7.232  18.320  1.00  0.00     0.009 C 
HETATM   54  C24 UNL     1       8.518  -5.962  18.191  1.00  0.00     0.009 C 
ENDBRANCH  51  52
ENDBRANCH  17  51
TORSDOF 13
ENDMDL
MODEL 3
REMARK VINA RESULT: -7.128596803      2.927      9.352
REMARK  13 active torsions:
REMARK  status: ('A' for Active; 'I' for Inactive)
REMARK    1  A    between atoms: C2_2  and  C3_3 
REMARK    2  A    between atoms: C2_2  and  N3_12 
REMARK    3  A    between atoms: C3_3  and  C4_4 
REMARK    4  A    between atoms: C5_5  and  C6_6 
REMARK    5  A    between atoms: C6_6  and  N1_7 
REMARK    6  A    between atoms: N1_7  and  N2_9 
REMARK    7  A    between atoms: C9_18  and  C10_19 
REMARK    8  A    between atoms: C14_26  and  C15_27 
REMARK    9  A    between atoms: C15_27  and  C16_28 
REMARK   10  A    between atoms: C20_35  and  C21_36 
REMARK   11  A    between atoms: C21_36  and  C22_37 
REMARK   12  A    between atoms: C25_42  and  O4_43 
REMARK   13  A    between atoms: C30_52  and  C31_53 
ROOT
HETATM    1  N3  UNL     1       7.397  -6.754  18.018  1.00  0.00    -0.363 N 
HETATM    2  C7  UNL     1       6.185  -5.924  18.027  1.00  0.00     0.249 C 
HETATM    3  N4  UNL     1       5.048  -6.614  17.451  1.00  0.00    -0.343 N 
ATOM      4  H4  UNL     1       4.754  -7.478  17.907  1.00  0.00     0.164 HD
HETATM    5  C8  UNL     1       4.312  -6.210  16.330  1.00  0.00     0.242 C 
HETATM    6  O1  UNL     1       3.995  -7.029  15.429  1.00  0.00    -0.271 OA
HETATM    7  C9  UNL     1       3.832  -4.795  16.080  1.00  0.00     0.180 C 
HETATM    8  N5  UNL     1       4.180  -4.542  14.697  1.00  0.00    -0.346 N 
ATOM      9  H5  UNL     1       3.865  -5.235  14.017  1.00  0.00     0.163 HD
HETATM   10  C13 UNL     1       4.904  -3.450  14.183  1.00  0.00     0.241 C 
HETATM   11  O2  UNL     1       5.878  -3.743  13.419  1.00  0.00    -0.271 OA
HETATM   12  C14 UNL     1       4.670  -2.040  14.422  1.00  0.00     0.177 C 
HETATM   13  N6  UNL     1       5.438  -1.356  15.409  1.00  0.00    -0.346 N 
ATOM     14  H6  UNL     1       4.891  -0.665  15.923  1.00  0.00     0.163 HD
HETATM   15  C19 UNL     1       6.750  -1.413  15.831  1.00  0.00     0.241 C 
HETATM   16  O3  UNL     1       6.951  -1.629  17.059  1.00  0.00    -0.271 OA
HETATM   17  C20 UNL     1       8.014  -1.240  14.996  1.00  0.00     0.176 C 
HETATM   18  N7  UNL     1       9.120  -1.688  15.798  1.00  0.00    -0.356 N 
ATOM     19  H7  UNL     1       9.141  -1.307  16.744  1.00  0.00     0.162 HD
HETATM   20  C25 UNL     1      10.165  -2.553  15.500  1.00  0.00     0.159 C 
HETATM   21  C26 UNL     1      10.280  -3.668  14.598  1.00  0.00     0.059 C 
HETATM   22  C27 UNL     1      11.282  -3.509  13.455  1.00  0.00     0.072 C 
HETATM   23  N8  UNL     1       9.645  -4.799  14.682  1.00  0.00    -0.327 N 
ATOM     24  H8  UNL     1       9.850  -5.480  13.951  1.00  0.00     0.168 HD
HETATM   25  C28 UNL     1       8.718  -5.201  15.648  1.00  0.00     0.224 C 
HETATM   26  O5  UNL     1       7.731  -5.879  15.216  1.00  0.00    -0.273 OA
HETATM   27  C29 UNL     1       8.781  -4.919  17.075  1.00  0.00     0.128 C 
HETATM   28  C30 UNL     1       8.649  -6.145  17.984  1.00  0.00     0.094 C 
ENDROOT
BRANCH   1  29
HETATM   29  C2  UNL     1       7.164  -8.140  18.064  1.00  0.00     0.003 C 
HETATM   30  C1  UNL     1       6.703  -8.740  19.163  1.00  0.00     0.038 C 
BRANCH  29  31
HETATM   31  C3  UNL     1       7.386  -9.050  16.879  1.00  0.00     0.083 C 
BRANCH  31  32
HETATM   32  C4  UNL     1       7.001 -10.424  17.136  1.00  0.00    -0.019 C 
HETATM   33  C5  UNL     1       6.095 -11.139  16.598  1.00  0.00     0.015 C 
BRANCH  33  34
HETATM   34  C6  UNL     1       5.087 -10.975  15.571  1.00  0.00     0.106 C 
BRANCH  34  35
HETATM   35  N1  UNL     1       4.269  -9.830  15.510  1.00  0.00    -0.318 N 
ATOM     36  H1  UNL     1       3.997  -9.249  16.303  1.00  0.00     0.185 HD
BRANCH  35  37
HETATM   37  N2  UNL     1       3.880  -9.620  14.138  1.00  0.00    -0.345 N 
ATOM     38  H22 UNL     1       4.091 -10.254  13.367  1.00  0.00     0.176 HD
ATOM     39  H21 UNL     1       3.369  -8.740  14.079  1.00  0.00     0.176 HD
ENDBRANCH  35  37
ENDBRANCH  34  35
ENDBRANCH  33  34
ENDBRANCH  31  32
ENDBRANCH  29  31
ENDBRANCH   1  29
BRANCH  28  40
HETATM   40  C31 UNL     1       9.878  -6.951  17.781  1.00  0.00     0.021 C 
HETATM   41  C32 UNL     1      11.129  -6.178  17.462  1.00  0.00     0.007 C 
ENDBRANCH  28  40
BRANCH   7  42
HETATM   42  C10 UNL     1       2.315  -4.949  16.276  1.00  0.00     0.009 C 
HETATM   43  C11 UNL     1       1.515  -4.811  15.045  1.00  0.00     0.012 C 
HETATM   44  C12 UNL     1       1.908  -3.889  17.287  1.00  0.00     0.012 C 
ENDBRANCH   7  42
BRANCH  20  45
HETATM   45  O4  UNL     1      11.264  -2.313  16.166  1.00  0.00    -0.345 OA
ATOM     46  H4  UNL     1      12.021  -2.143  15.617  1.00  0.00     0.219 HD
ENDBRANCH  20  45
BRANCH  12  47
HETATM   47  C15 UNL     1       4.814  -1.286  13.076  1.00  0.00     0.038 C 
BRANCH  47  48
HETATM   48  C16 UNL     1       4.113   0.033  13.112  1.00  0.00    -0.020 C 
HETATM   49  C17 UNL     1       2.716  -0.212  13.688  1.00  0.00     0.009 C 
HETATM   50  C18 UNL     1       3.931   0.674  11.778  1.00  0.00     0.009 C 
ENDBRANCH  47  48
ENDBRANCH  12  47
BRANCH  17  51
HETATM   51  C21 UNL     1       8.100   0.165  14.520  1.00  0.00     0.038 C 
BRANCH  51  52
HETATM   52  C22 UNL     1       8.017   0.527  13.117  1.00  0.00    -0.020 C 
HETATM   53  C23 UNL     1       9.299   0.719  12.368  1.00  0.00     0.009 C 
HETATM   54  C24 UNL     1       7.301   1.900  13.053  1.00  0.00     0.009 C 
ENDBRANCH  51  52
ENDBRANCH  17  51
TORSDOF 13
ENDMDL
MODEL 4
REMARK VINA RESULT: -6.795404088      3.052      9.964
REMARK  13 active torsions:
REMARK  status: ('A' for Active; 'I' for Inactive)
REMARK    1  A    between atoms: C2_2  and  C3_3 
REMARK    2  A    between atoms: C2_2  and  N3_12 
REMARK    3  A    between atoms: C3_3  and  C4_4 
REMARK    4  A    between atoms: C5_5  and  C6_6 
REMARK    5  A    between atoms: C6_6  and  N1_7 
REMARK    6  A    between atoms: N1_7  and  N2_9 
REMARK    7  A    between atoms: C9_18  and  C10_19 
REMARK    8  A    between atoms: C14_26  and  C15_27 
REMARK    9  A    between atoms: C15_27  and  C16_28 
REMARK   10  A    between atoms: C20_35  and  C21_36 
REMARK   11  A    between atoms: C21_36  and  C22_37 
REMARK   12  A    between atoms: C25_42  and  O4_43 
REMARK   13  A    between atoms: C30_52  and  C31_53 
ROOT
HETATM    1  N3  UNL     1       7.431  -6.776  17.977  1.00  0.00    -0.363 N 
HETATM    2  C7  UNL     1       6.208  -5.963  17.994  1.00  0.00     0.249 C 
HETATM    3  N4  UNL     1       5.083  -6.658  17.403  1.00  0.00    -0.343 N 
ATOM      4  H4  UNL     1       4.799  -7.533  17.845  1.00  0.00     0.164 HD
HETATM    5  C8  UNL     1       4.346  -6.248  16.285  1.00  0.00     0.242 C 
HETATM    6  O1  UNL     1       4.042  -7.059  15.372  1.00  0.00    -0.271 OA
HETATM    7  C9  UNL     1       3.848  -4.837  16.053  1.00  0.00     0.180 C 
HETATM    8  N5  UNL     1       4.198  -4.560  14.675  1.00  0.00    -0.346 N 
ATOM      9  H5  UNL     1       3.895  -5.247  13.985  1.00  0.00     0.163 HD
HETATM   10  C13 UNL     1       4.909  -3.451  14.180  1.00  0.00     0.241 C 
HETATM   11  O2  UNL     1       5.890  -3.720  13.415  1.00  0.00    -0.271 OA
HETATM   12  C14 UNL     1       4.656  -2.048  14.437  1.00  0.00     0.177 C 
HETATM   13  N6  UNL     1       5.411  -1.368  15.437  1.00  0.00    -0.346 N 
ATOM     14  H6  UNL     1       4.853  -0.692  15.958  1.00  0.00     0.163 HD
HETATM   15  C19 UNL     1       6.723  -1.414  15.864  1.00  0.00     0.241 C 
HETATM   16  O3  UNL     1       6.921  -1.645  17.089  1.00  0.00    -0.271 OA
HETATM   17  C20 UNL     1       7.988  -1.213  15.036  1.00  0.00     0.176 C 
HETATM   18  N7  UNL     1       9.096  -1.657  15.836  1.00  0.00    -0.356 N 
ATOM     19  H7  UNL     1       9.108  -1.289  16.787  1.00  0.00     0.162 HD
HETATM   20  C25 UNL     1      10.153  -2.504  15.530  1.00  0.00     0.159 C 
HETATM   21  C26 UNL     1      10.287  -3.605  14.612  1.00  0.00     0.059 C 
HETATM   22  C27 UNL     1      11.291  -3.417  13.476  1.00  0.00     0.072 C 
HETATM   23  N8  UNL     1       9.666  -4.745  14.678  1.00  0.00    -0.327 N 
ATOM     24  H8  UNL     1       9.882  -5.413  13.938  1.00  0.00     0.168 HD
HETATM   25  C28 UNL     1       8.741  -5.173  15.635  1.00  0.00     0.224 C 
HETATM   26  O5  UNL     1       7.764  -5.858  15.190  1.00  0.00    -0.273 OA
HETATM   27  C29 UNL     1       8.794  -4.910  17.066  1.00  0.00     0.128 C 
HETATM   28  C30 UNL     1       8.675  -6.151  17.957  1.00  0.00     0.094 C 
ENDROOT
BRANCH   1  29
HETATM   29  C2  UNL     1       7.216  -8.166  18.003  1.00  0.00     0.003 C 
HETATM   30  C1  UNL     1       6.362  -8.730  18.858  1.00  0.00     0.038 C 
BRANCH  29  31
HETATM   31  C3  UNL     1       7.904  -9.121  17.057  1.00  0.00     0.083 C 
BRANCH  31  32
HETATM   32  C4  UNL     1       7.862 -10.498  17.507  1.00  0.00    -0.019 C 
HETATM   33  C5  UNL     1       8.757 -11.205  18.076  1.00  0.00     0.015 C 
BRANCH  33  34
HETATM   34  C6  UNL     1      10.126 -11.028  18.516  1.00  0.00     0.106 C 
BRANCH  34  35
HETATM   35  N1  UNL     1      10.452 -10.860  19.876  1.00  0.00    -0.318 N 
ATOM     36  H1  UNL     1      11.173 -11.372  20.384  1.00  0.00     0.185 HD
BRANCH  35  37
HETATM   37  N2  UNL     1       9.592  -9.842  20.428  1.00  0.00    -0.345 N 
ATOM     38  H22 UNL     1       9.049  -9.176  19.879  1.00  0.00     0.176 HD
ATOM     39  H21 UNL     1       9.626  -9.908  21.445  1.00  0.00     0.176 HD
ENDBRANCH  35  37
ENDBRANCH  34  35
ENDBRANCH  33  34
ENDBRANCH  31  32
ENDBRANCH  29  31
ENDBRANCH   1  29
BRANCH  28  40
HETATM   40  C31 UNL     1       9.915  -6.938  17.747  1.00  0.00     0.021 C 
HETATM   41  C32 UNL     1      11.161  -6.143  17.462  1.00  0.00     0.007 C 
ENDBRANCH  28  40
BRANCH   7  42
HETATM   42  C10 UNL     1       2.333  -5.013  16.241  1.00  0.00     0.009 C 
HETATM   43  C11 UNL     1       1.534  -4.854  15.012  1.00  0.00     0.012 C 
HETATM   44  C12 UNL     1       1.911  -3.984  17.277  1.00  0.00     0.012 C 
ENDBRANCH   7  42
BRANCH  20  45
HETATM   45  O4  UNL     1      11.247  -2.259  16.203  1.00  0.00    -0.345 OA
ATOM     46  H4  UNL     1      11.102  -1.811  17.028  1.00  0.00     0.219 HD
ENDBRANCH  20  45
BRANCH  12  47
HETATM   47  C15 UNL     1       4.796  -1.273  13.103  1.00  0.00     0.038 C 
BRANCH  47  48
HETATM   48  C16 UNL     1       4.142   0.069  13.181  1.00  0.00    -0.020 C 
HETATM   49  C17 UNL     1       2.703  -0.154  13.651  1.00  0.00     0.009 C 
HETATM   50  C18 UNL     1       4.072   0.799  11.882  1.00  0.00     0.009 C 
ENDBRANCH  47  48
ENDBRANCH  12  47
BRANCH  17  51
HETATM   51  C21 UNL     1       8.056   0.200  14.580  1.00  0.00     0.038 C 
BRANCH  51  52
HETATM   52  C22 UNL     1       7.972   0.580  13.182  1.00  0.00    -0.020 C 
HETATM   53  C23 UNL     1       9.248   0.668  12.403  1.00  0.00     0.009 C 
HETATM   54  C24 UNL     1       7.377   2.011  13.146  1.00  0.00     0.009 C 
ENDBRANCH  51  52
ENDBRANCH  17  51
TORSDOF 13
ENDMDL
MODEL 5
REMARK VINA RESULT: -6.616785739      5.835     12.374
REMARK  13 active torsions:
REMARK  status: ('A' for Active; 'I' for Inactive)
REMARK    1  A    between atoms: C2_2  and  C3_3 
REMARK    2  A    between atoms: C2_2  and  N3_12 
REMARK    3  A    between atoms: C3_3  and  C4_4 
REMARK    4  A    between atoms: C5_5  and  C6_6 
REMARK    5  A    between atoms: C6_6  and  N1_7 
REMARK    6  A    between atoms: N1_7  and  N2_9 
REMARK    7  A    between atoms: C9_18  and  C10_19 
REMARK    8  A    between atoms: C14_26  and  C15_27 
REMARK    9  A    between atoms: C15_27  and  C16_28 
REMARK   10  A    between atoms: C20_35  and  C21_36 
REMARK   11  A    between atoms: C21_36  and  C22_37 
REMARK   12  A    between atoms: C25_42  and  O4_43 
REMARK   13  A    between atoms: C30_52  and  C31_53 
ROOT
HETATM    1  N3  UNL     1       6.730 -11.746  19.994  1.00  0.00    -0.363 N 
HETATM    2  C7  UNL     1       5.326 -11.316  19.964  1.00  0.00     0.249 C 
HETATM    3  N4  UNL     1       4.487 -12.246  19.235  1.00  0.00    -0.343 N 
ATOM      4  H4  UNL     1       4.441 -13.201  19.591  1.00  0.00     0.164 HD
HETATM    5  C8  UNL     1       3.732 -11.962  18.090  1.00  0.00     0.242 C 
HETATM    6  O1  UNL     1       3.732 -12.740  17.101  1.00  0.00    -0.271 OA
HETATM    7  C9  UNL     1       2.864 -10.734  17.914  1.00  0.00     0.180 C 
HETATM    8  N5  UNL     1       3.202 -10.247  16.592  1.00  0.00    -0.346 N 
ATOM      9  H5  UNL     1       3.152 -10.927  15.834  1.00  0.00     0.163 HD
HETATM   10  C13 UNL     1       3.592  -8.942  16.236  1.00  0.00     0.241 C 
HETATM   11  O2  UNL     1       4.653  -8.854  15.539  1.00  0.00    -0.271 OA
HETATM   12  C14 UNL     1       2.930  -7.697  16.566  1.00  0.00     0.177 C 
HETATM   13  N6  UNL     1       3.395  -6.924  17.670  1.00  0.00    -0.346 N 
ATOM     14  H6  UNL     1       2.635  -6.482  18.188  1.00  0.00     0.163 HD
HETATM   15  C19 UNL     1       4.635  -6.635  18.201  1.00  0.00     0.241 C 
HETATM   16  O3  UNL     1       4.817  -6.910  19.420  1.00  0.00    -0.271 OA
HETATM   17  C20 UNL     1       5.836  -6.012  17.497  1.00  0.00     0.176 C 
HETATM   18  N7  UNL     1       6.975  -6.195  18.355  1.00  0.00    -0.356 N 
ATOM     19  H7  UNL     1       6.823  -5.925  19.327  1.00  0.00     0.162 HD
HETATM   20  C25 UNL     1       8.248  -6.678  18.081  1.00  0.00     0.159 C 
HETATM   21  C26 UNL     1       8.749  -7.609  17.105  1.00  0.00     0.059 C 
HETATM   22  C27 UNL     1       9.723  -7.044  16.072  1.00  0.00     0.072 C 
HETATM   23  N8  UNL     1       8.481  -8.880  17.041  1.00  0.00    -0.327 N 
ATOM     24  H8  UNL     1       8.925  -9.390  16.277  1.00  0.00     0.168 HD
HETATM   25  C28 UNL     1       7.661  -9.635  17.885  1.00  0.00     0.224 C 
HETATM   26  O5  UNL     1       6.952 -10.525  17.313  1.00  0.00    -0.273 OA
HETATM   27  C29 UNL     1       7.550  -9.497  19.330  1.00  0.00     0.128 C 
HETATM   28  C30 UNL     1       7.740 -10.796  20.121  1.00  0.00     0.094 C 
ENDROOT
BRANCH   1  29
HETATM   29  C2  UNL     1       6.924 -13.137  19.906  1.00  0.00     0.003 C 
HETATM   30  C1  UNL     1       7.020 -13.903  20.994  1.00  0.00     0.038 C 
BRANCH  29  31
HETATM   31  C3  UNL     1       7.009 -13.872  18.590  1.00  0.00     0.083 C 
BRANCH  31  32
HETATM   32  C4  UNL     1       7.793 -15.088  18.668  1.00  0.00    -0.019 C 
HETATM   33  C5  UNL     1       8.893 -15.396  18.102  1.00  0.00     0.015 C 
BRANCH  33  34
HETATM   34  C6  UNL     1       9.825 -14.768  17.188  1.00  0.00     0.106 C 
BRANCH  34  35
HETATM   35  N1  UNL     1      10.299 -13.458  17.395  1.00  0.00    -0.318 N 
ATOM     36  H1  UNL     1      11.080 -13.194  17.996  1.00  0.00     0.185 HD
BRANCH  35  37
HETATM   37  N2  UNL     1       9.492 -12.554  16.614  1.00  0.00    -0.345 N 
ATOM     38  H22 UNL     1       8.990 -11.748  16.986  1.00  0.00     0.176 HD
ATOM     39  H21 UNL     1       9.515 -12.860  15.641  1.00  0.00     0.176 HD
ENDBRANCH  35  37
ENDBRANCH  34  35
ENDBRANCH  33  34
ENDBRANCH  31  32
ENDBRANCH  29  31
ENDBRANCH   1  29
BRANCH  28  40
HETATM   40  C31 UNL     1       9.165 -11.178  19.963  1.00  0.00     0.021 C 
HETATM   41  C32 UNL     1       9.951 -11.334  21.236  1.00  0.00     0.007 C 
ENDBRANCH  28  40
BRANCH   7  42
HETATM   42  C10 UNL     1       1.455 -11.347  17.962  1.00  0.00     0.009 C 
HETATM   43  C11 UNL     1       0.863 -11.642  16.644  1.00  0.00     0.012 C 
HETATM   44  C12 UNL     1       0.586 -10.355  18.717  1.00  0.00     0.012 C 
ENDBRANCH   7  42
BRANCH  20  45
HETATM   45  O4  UNL     1       9.181  -6.195  18.859  1.00  0.00    -0.345 OA
ATOM     46  H4  UNL     1       9.915  -6.783  18.996  1.00  0.00     0.219 HD
ENDBRANCH  20  45
BRANCH  12  47
HETATM   47  C15 UNL     1       2.921  -6.798  15.304  1.00  0.00     0.038 C 
BRANCH  47  48
HETATM   48  C16 UNL     1       2.339  -5.453  15.597  1.00  0.00    -0.020 C 
HETATM   49  C17 UNL     1       0.872  -5.489  15.162  1.00  0.00     0.009 C 
HETATM   50  C18 UNL     1       2.987  -4.326  14.866  1.00  0.00     0.009 C 
ENDBRANCH  47  48
ENDBRANCH  12  47
BRANCH  17  51
HETATM   51  C21 UNL     1       5.522  -4.602  17.147  1.00  0.00     0.038 C 
BRANCH  51  52
HETATM   52  C22 UNL     1       6.525  -3.669  16.669  1.00  0.00    -0.020 C 
HETATM   53  C23 UNL     1       6.106  -2.250  16.437  1.00  0.00     0.009 C 
HETATM   54  C24 UNL     1       6.989  -4.185  15.283  1.00  0.00     0.009 C 
ENDBRANCH  51  52
ENDBRANCH  17  51
TORSDOF 13
ENDMDL
