MODEL 1
REMARK VINA RESULT: -6.439802986      0.000      0.000
REMARK  12 active torsions:
REMARK  status: ('A' for Active; 'I' for Inactive)
REMARK    1  A    between atoms: C2_2  and  C4_4 
REMARK    2  A    between atoms: C4_4  and  C5_5 
REMARK    3  A    between atoms: C7_10  and  C8_11 
REMARK    4  A    between atoms: C8_11  and  C9_12 
REMARK    5  A    between atoms: C9_12  and  C10_13 
REMARK    6  A    between atoms: C10_13  and  C11_14 
REMARK    7  A    between atoms: C11_14  and  N2_15 
REMARK    8  A    between atoms: C13_23  and  C14_24 
REMARK    9  A    between atoms: C19_31  and  C20_32 
REMARK   10  A    between atoms: C24_39  and  C25_40 
REMARK   11  A    between atoms: C25_40  and  C26_41 
REMARK   12  A    between atoms: C30_48  and  C31_49 
ROOT
HETATM    1  C5  UNL     1       8.840 -11.070  19.915  1.00  0.00     0.177 C 
HETATM    2  N1  UNL     1       9.010 -10.501  18.601  1.00  0.00    -0.346 N 
ATOM      3  H1  UNL     1       9.797 -10.870  18.068  1.00  0.00     0.163 HD
HETATM    4  C6  UNL     1       8.259  -9.520  17.949  1.00  0.00     0.241 C 
HETATM    5  O1  UNL     1       7.765  -9.855  16.805  1.00  0.00    -0.271 OA
HETATM    6  C7  UNL     1       7.939  -8.139  18.364  1.00  0.00     0.176 C 
HETATM    7  N3  UNL     1       6.606  -7.890  18.817  1.00  0.00    -0.346 N 
ATOM      8  H3  UNL     1       6.469  -8.152  19.793  1.00  0.00     0.163 HD
HETATM    9  C12 UNL     1       5.457  -7.375  18.235  1.00  0.00     0.241 C 
HETATM   10  O2  UNL     1       5.056  -6.214  18.653  1.00  0.00    -0.271 OA
HETATM   11  C13 UNL     1       4.579  -7.948  17.187  1.00  0.00     0.182 C 
HETATM   12  N4  UNL     1       3.650  -8.926  17.757  1.00  0.00    -0.341 N 
HETATM   13  C17 UNL     1       2.485  -8.400  18.485  1.00  0.00     0.153 C 
HETATM   14  C18 UNL     1       3.772 -10.317  17.703  1.00  0.00     0.243 C 
HETATM   15  O3  UNL     1       3.519 -10.910  18.826  1.00  0.00    -0.271 OA
HETATM   16  C19 UNL     1       4.142 -11.185  16.565  1.00  0.00     0.180 C 
HETATM   17  N5  UNL     1       3.773 -12.539  16.933  1.00  0.00    -0.346 N 
ATOM     18  H5  UNL     1       2.776 -12.752  16.898  1.00  0.00     0.163 HD
HETATM   19  C23 UNL     1       4.608 -13.589  17.328  1.00  0.00     0.241 C 
HETATM   20  O4  UNL     1       4.365 -14.106  18.486  1.00  0.00    -0.271 OA
HETATM   21  C24 UNL     1       5.740 -14.199  16.603  1.00  0.00     0.177 C 
HETATM   22  N6  UNL     1       7.002 -13.531  16.754  1.00  0.00    -0.346 N 
ATOM     23  H6  UNL     1       7.049 -12.636  16.268  1.00  0.00     0.163 HD
HETATM   24  C29 UNL     1       8.169 -13.857  17.427  1.00  0.00     0.241 C 
HETATM   25  O5  UNL     1       9.213 -14.083  16.689  1.00  0.00    -0.271 OA
HETATM   26  C30 UNL     1       8.462 -13.995  18.866  1.00  0.00     0.180 C 
HETATM   27  N7  UNL     1       7.564 -13.299  19.746  1.00  0.00    -0.346 N 
ATOM     28  H7  UNL     1       6.844 -13.845  20.219  1.00  0.00     0.163 HD
HETATM   29  C34 UNL     1       7.608 -11.898  20.001  1.00  0.00     0.241 C 
HETATM   30  O6  UNL     1       6.539 -11.321  20.320  1.00  0.00    -0.271 OA
ENDROOT
BRANCH   6  31
HETATM   31  C8  UNL     1       8.416  -7.149  17.281  1.00  0.00     0.035 C 
BRANCH  31  32
HETATM   32  C9  UNL     1       9.926  -7.131  17.216  1.00  0.00     0.004 C 
BRANCH  32  33
HETATM   33  C10 UNL     1      10.380  -5.972  16.346  1.00  0.00     0.027 C 
BRANCH  33  34
HETATM   34  C11 UNL     1       9.190  -5.497  15.527  1.00  0.00     0.229 C 
BRANCH  34  35
HETATM   35  N2  UNL     1       9.302  -5.938  14.158  1.00  0.00    -0.079 N 
ATOM     36  H23 UNL     1       8.758  -5.351  13.526  1.00  0.00     0.274 HD
ATOM     37  H22 UNL     1      10.230  -5.755  13.777  1.00  0.00     0.274 HD
ATOM     38  H21 UNL     1       9.046  -6.922  14.073  1.00  0.00     0.274 HD
ENDBRANCH  34  35
ENDBRANCH  33  34
ENDBRANCH  32  33
ENDBRANCH  31  32
ENDBRANCH   6  31
BRANCH   1  39
HETATM   39  C4  UNL     1       8.928 -10.096  21.048  1.00  0.00     0.038 C 
BRANCH  39  40
HETATM   40  C2  UNL     1       9.411 -10.785  22.308  1.00  0.00    -0.020 C 
HETATM   41  C1  UNL     1       8.282 -10.593  23.333  1.00  0.00     0.009 C 
HETATM   42  C3  UNL     1      10.701 -10.190  22.837  1.00  0.00     0.009 C 
ENDBRANCH  39  40
ENDBRANCH   1  39
BRANCH  11  43
HETATM   43  C14 UNL     1       3.977  -6.987  16.245  1.00  0.00     0.009 C 
HETATM   44  C15 UNL     1       3.524  -7.725  14.968  1.00  0.00     0.012 C 
HETATM   45  C16 UNL     1       4.709  -5.793  15.811  1.00  0.00     0.012 C 
ENDBRANCH  11  43
BRANCH  26  46
HETATM   46  C31 UNL     1       8.749 -15.418  19.303  1.00  0.00     0.009 C 
HETATM   47  C32 UNL     1       7.583 -15.931  20.158  1.00  0.00     0.012 C 
HETATM   48  C33 UNL     1       9.964 -15.461  20.231  1.00  0.00     0.012 C 
ENDBRANCH  26  46
BRANCH  16  49
HETATM   49  C20 UNL     1       3.354 -10.874  15.311  1.00  0.00     0.009 C 
HETATM   50  C21 UNL     1       4.319 -11.131  14.142  1.00  0.00     0.012 C 
HETATM   51  C22 UNL     1       2.177 -11.762  15.110  1.00  0.00     0.012 C 
ENDBRANCH  16  49
BRANCH  21  52
HETATM   52  C25 UNL     1       5.803 -15.709  16.891  1.00  0.00     0.038 C 
BRANCH  52  53
HETATM   53  C26 UNL     1       6.435 -16.409  15.699  1.00  0.00    -0.020 C 
HETATM   54  C27 UNL     1       7.517 -17.348  16.199  1.00  0.00     0.009 C 
HETATM   55  C28 UNL     1       5.387 -17.212  14.965  1.00  0.00     0.009 C 
ENDBRANCH  52  53
ENDBRANCH  21  52
TORSDOF 12
ENDMDL
MODEL 2
REMARK VINA RESULT: -6.167556230      2.022      7.023
REMARK  12 active torsions:
REMARK  status: ('A' for Active; 'I' for Inactive)
REMARK    1  A    between atoms: C2_2  and  C4_4 
REMARK    2  A    between atoms: C4_4  and  C5_5 
REMARK    3  A    between atoms: C7_10  and  C8_11 
REMARK    4  A    between atoms: C8_11  and  C9_12 
REMARK    5  A    between atoms: C9_12  and  C10_13 
REMARK    6  A    between atoms: C10_13  and  C11_14 
REMARK    7  A    between atoms: C11_14  and  N2_15 
REMARK    8  A    between atoms: C13_23  and  C14_24 
REMARK    9  A    between atoms: C19_31  and  C20_32 
REMARK   10  A    between atoms: C24_39  and  C25_40 
REMARK   11  A    between atoms: C25_40  and  C26_41 
REMARK   12  A    between atoms: C30_48  and  C31_49 
ROOT
HETATM    1  C5  UNL     1       7.425  -9.036  17.972  1.00  0.00     0.177 C 
HETATM    2  N1  UNL     1       7.129  -9.385  19.339  1.00  0.00    -0.346 N 
ATOM      3  H1  UNL     1       6.415  -8.812  19.787  1.00  0.00     0.163 HD
HETATM    4  C6  UNL     1       7.673 -10.391  20.142  1.00  0.00     0.241 C 
HETATM    5  O1  UNL     1       6.831 -11.230  20.644  1.00  0.00    -0.271 OA
HETATM    6  C7  UNL     1       9.079 -10.647  20.516  1.00  0.00     0.176 C 
HETATM    7  N3  UNL     1       9.729 -11.749  19.879  1.00  0.00    -0.346 N 
ATOM      8  H3  UNL     1      10.082 -11.513  18.952  1.00  0.00     0.163 HD
HETATM    9  C12 UNL     1       9.990 -13.065  20.230  1.00  0.00     0.241 C 
HETATM   10  O2  UNL     1      11.230 -13.380  20.450  1.00  0.00    -0.271 OA
HETATM   11  C13 UNL     1       9.064 -14.211  20.396  1.00  0.00     0.182 C 
HETATM   12  N4  UNL     1       8.721 -14.801  19.101  1.00  0.00    -0.341 N 
HETATM   13  C17 UNL     1       9.727 -15.670  18.471  1.00  0.00     0.153 C 
HETATM   14  C18 UNL     1       7.538 -14.600  18.384  1.00  0.00     0.243 C 
HETATM   15  O3  UNL     1       7.719 -14.395  17.119  1.00  0.00    -0.271 OA
HETATM   16  C19 UNL     1       6.139 -14.591  18.862  1.00  0.00     0.180 C 
HETATM   17  N5  UNL     1       5.294 -14.702  17.689  1.00  0.00    -0.346 N 
ATOM     18  H5  UNL     1       5.245 -15.628  17.262  1.00  0.00     0.163 HD
HETATM   19  C23 UNL     1       4.537 -13.704  17.066  1.00  0.00     0.241 C 
HETATM   20  O4  UNL     1       4.798 -13.482  15.821  1.00  0.00    -0.271 OA
HETATM   21  C24 UNL     1       3.469 -12.857  17.635  1.00  0.00     0.177 C 
HETATM   22  N6  UNL     1       3.915 -11.679  18.322  1.00  0.00    -0.346 N 
ATOM     23  H6  UNL     1       4.366 -11.875  19.215  1.00  0.00     0.163 HD
HETATM   24  C29 UNL     1       3.856 -10.327  18.017  1.00  0.00     0.241 C 
HETATM   25  O5  UNL     1       3.107  -9.598  18.786  1.00  0.00    -0.271 OA
HETATM   26  C30 UNL     1       4.506  -9.535  16.956  1.00  0.00     0.180 C 
HETATM   27  N7  UNL     1       5.697 -10.116  16.399  1.00  0.00    -0.346 N 
ATOM     28  H7  UNL     1       5.621 -10.577  15.492  1.00  0.00     0.163 HD
HETATM   29  C34 UNL     1       6.976 -10.091  17.024  1.00  0.00     0.241 C 
HETATM   30  O6  UNL     1       7.781 -11.018  16.762  1.00  0.00    -0.271 OA
ENDROOT
BRANCH   6  31
HETATM   31  C8  UNL     1       9.210 -10.661  22.054  1.00  0.00     0.035 C 
BRANCH  31  32
HETATM   32  C9  UNL     1      10.558 -10.115  22.469  1.00  0.00     0.004 C 
BRANCH  32  33
HETATM   33  C10 UNL     1      11.232 -11.097  23.411  1.00  0.00     0.027 C 
BRANCH  33  34
HETATM   34  C11 UNL     1      12.642 -11.353  22.904  1.00  0.00     0.229 C 
BRANCH  34  35
HETATM   35  N2  UNL     1      12.773 -10.940  21.528  1.00  0.00    -0.079 N 
ATOM     36  H23 UNL     1      11.876 -10.956  21.042  1.00  0.00     0.274 HD
ATOM     37  H22 UNL     1      12.972  -9.943  21.450  1.00  0.00     0.274 HD
ATOM     38  H21 UNL     1      13.473 -11.505  21.046  1.00  0.00     0.274 HD
ENDBRANCH  34  35
ENDBRANCH  33  34
ENDBRANCH  32  33
ENDBRANCH  31  32
ENDBRANCH   6  31
BRANCH   1  39
HETATM   39  C4  UNL     1       8.840  -8.627  17.710  1.00  0.00     0.038 C 
BRANCH  39  40
HETATM   40  C2  UNL     1       8.895  -7.226  17.139  1.00  0.00    -0.020 C 
HETATM   41  C1  UNL     1      10.391  -6.882  17.050  1.00  0.00     0.009 C 
HETATM   42  C3  UNL     1       8.181  -6.214  18.013  1.00  0.00     0.009 C 
ENDBRANCH  39  40
ENDBRANCH   1  39
BRANCH  11  43
HETATM   43  C14 UNL     1       9.408 -15.178  21.454  1.00  0.00     0.009 C 
HETATM   44  C15 UNL     1       8.290 -16.234  21.576  1.00  0.00     0.012 C 
HETATM   45  C16 UNL     1       9.724 -14.732  22.815  1.00  0.00     0.012 C 
ENDBRANCH  11  43
BRANCH  26  46
HETATM   46  C31 UNL     1       3.548  -9.005  15.908  1.00  0.00     0.009 C 
HETATM   47  C32 UNL     1       3.813  -9.715  14.573  1.00  0.00     0.012 C 
HETATM   48  C33 UNL     1       3.823  -7.527  15.627  1.00  0.00     0.012 C 
ENDBRANCH  26  46
BRANCH  16  49
HETATM   49  C20 UNL     1       5.805 -15.793  19.720  1.00  0.00     0.009 C 
HETATM   50  C21 UNL     1       4.444 -15.477  20.363  1.00  0.00     0.012 C 
HETATM   51  C22 UNL     1       5.640 -17.052  18.944  1.00  0.00     0.012 C 
ENDBRANCH  16  49
BRANCH  21  52
HETATM   52  C25 UNL     1       2.389 -12.581  16.574  1.00  0.00     0.038 C 
BRANCH  52  53
HETATM   53  C26 UNL     1       1.030 -12.933  17.157  1.00  0.00    -0.020 C 
HETATM   54  C27 UNL     1       1.223 -13.939  18.276  1.00  0.00     0.009 C 
HETATM   55  C28 UNL     1       0.380 -11.690  17.720  1.00  0.00     0.009 C 
ENDBRANCH  52  53
ENDBRANCH  21  52
TORSDOF 12
ENDMDL
MODEL 3
REMARK VINA RESULT: -5.963328561      2.413      7.038
REMARK  12 active torsions:
REMARK  status: ('A' for Active; 'I' for Inactive)
REMARK    1  A    between atoms: C2_2  and  C4_4 
REMARK    2  A    between atoms: C4_4  and  C5_5 
REMARK    3  A    between atoms: C7_10  and  C8_11 
REMARK    4  A    between atoms: C8_11  and  C9_12 
REMARK    5  A    between atoms: C9_12  and  C10_13 
REMARK    6  A    between atoms: C10_13  and  C11_14 
REMARK    7  A    between atoms: C11_14  and  N2_15 
REMARK    8  A    between atoms: C13_23  and  C14_24 
REMARK    9  A    between atoms: C19_31  and  C20_32 
REMARK   10  A    between atoms: C24_39  and  C25_40 
REMARK   11  A    between atoms: C25_40  and  C26_41 
REMARK   12  A    between atoms: C30_48  and  C31_49 
ROOT
HETATM    1  C5  UNL     1       4.628  -8.715  16.506  1.00  0.00     0.177 C 
HETATM    2  N1  UNL     1       4.784  -9.945  15.771  1.00  0.00    -0.346 N 
ATOM      3  H1  UNL     1       5.563  -9.961  15.113  1.00  0.00     0.163 HD
HETATM    4  C6  UNL     1       4.028 -11.119  15.823  1.00  0.00     0.241 C 
HETATM    5  O1  UNL     1       4.679 -12.198  16.096  1.00  0.00    -0.271 OA
HETATM    6  C7  UNL     1       2.581 -11.324  15.607  1.00  0.00     0.176 C 
HETATM    7  N3  UNL     1       1.780 -11.566  16.766  1.00  0.00    -0.346 N 
ATOM      8  H3  UNL     1       1.525 -10.707  17.252  1.00  0.00     0.163 HD
HETATM    9  C12 UNL     1       1.271 -12.699  17.382  1.00  0.00     0.241 C 
HETATM   10  O2  UNL     1      -0.015 -12.869  17.333  1.00  0.00    -0.271 OA
HETATM   11  C13 UNL     1       1.969 -13.783  18.116  1.00  0.00     0.182 C 
HETATM   12  N4  UNL     1       2.271 -13.376  19.490  1.00  0.00    -0.341 N 
HETATM   13  C17 UNL     1       1.161 -13.399  20.456  1.00  0.00     0.153 C 
HETATM   14  C18 UNL     1       3.507 -12.940  19.974  1.00  0.00     0.243 C 
HETATM   15  O3  UNL     1       3.433 -11.901  20.742  1.00  0.00    -0.271 OA
HETATM   16  C19 UNL     1       4.858 -13.491  19.736  1.00  0.00     0.180 C 
HETATM   17  N5  UNL     1       5.731 -12.910  20.738  1.00  0.00    -0.346 N 
ATOM     18  H5  UNL     1       5.638 -13.286  21.681  1.00  0.00     0.163 HD
HETATM   19  C23 UNL     1       6.685 -11.900  20.576  1.00  0.00     0.241 C 
HETATM   20  O4  UNL     1       6.535 -10.849  21.312  1.00  0.00    -0.271 OA
HETATM   21  C24 UNL     1       7.855 -11.862  19.676  1.00  0.00     0.177 C 
HETATM   22  N6  UNL     1       7.589 -11.418  18.337  1.00  0.00    -0.346 N 
ATOM     23  H6  UNL     1       7.064 -12.092  17.781  1.00  0.00     0.163 HD
HETATM   24  C29 UNL     1       7.903 -10.257  17.646  1.00  0.00     0.241 C 
HETATM   25  O5  UNL     1       8.728 -10.386  16.653  1.00  0.00    -0.271 OA
HETATM   26  C30 UNL     1       7.462  -8.861  17.828  1.00  0.00     0.180 C 
HETATM   27  N7  UNL     1       6.218  -8.697  18.529  1.00  0.00    -0.346 N 
ATOM     28  H7  UNL     1       6.259  -8.420  19.511  1.00  0.00     0.163 HD
HETATM   29  C34 UNL     1       4.932  -8.894  17.950  1.00  0.00     0.241 C 
HETATM   30  O6  UNL     1       3.991  -9.243  18.704  1.00  0.00    -0.271 OA
ENDROOT
BRANCH   6  31
HETATM   31  C8  UNL     1       2.367 -12.361  14.484  1.00  0.00     0.035 C 
BRANCH  31  32
HETATM   32  C9  UNL     1       3.102 -11.937  13.233  1.00  0.00     0.004 C 
BRANCH  32  33
HETATM   33  C10 UNL     1       2.148 -11.972  12.051  1.00  0.00     0.027 C 
BRANCH  33  34
HETATM   34  C11 UNL     1       2.759 -11.158  10.922  1.00  0.00     0.229 C 
BRANCH  34  35
HETATM   35  N2  UNL     1       3.970 -10.507  11.358  1.00  0.00    -0.079 N 
ATOM     36  H23 UNL     1       3.775  -9.630  11.842  1.00  0.00     0.274 HD
ATOM     37  H22 UNL     1       4.415 -11.011  12.125  1.00  0.00     0.274 HD
ATOM     38  H21 UNL     1       4.609 -10.370  10.574  1.00  0.00     0.274 HD
ENDBRANCH  34  35
ENDBRANCH  33  34
ENDBRANCH  32  33
ENDBRANCH  31  32
ENDBRANCH   6  31
BRANCH   1  39
HETATM   39  C4  UNL     1       3.324  -8.011  16.301  1.00  0.00     0.038 C 
BRANCH  39  40
HETATM   40  C2  UNL     1       3.551  -6.552  15.962  1.00  0.00    -0.020 C 
HETATM   41  C1  UNL     1       3.062  -5.769  17.192  1.00  0.00     0.009 C 
HETATM   42  C3  UNL     1       2.784  -6.116  14.730  1.00  0.00     0.009 C 
ENDBRANCH  39  40
ENDBRANCH   1  39
BRANCH  11  43
HETATM   43  C14 UNL     1       1.403 -15.136  17.973  1.00  0.00     0.009 C 
HETATM   44  C15 UNL     1       2.247 -16.141  18.784  1.00  0.00     0.012 C 
HETATM   45  C16 UNL     1       1.185 -15.730  16.650  1.00  0.00     0.012 C 
ENDBRANCH  11  43
BRANCH  26  46
HETATM   46  C31 UNL     1       8.553  -7.928  18.312  1.00  0.00     0.009 C 
HETATM   47  C32 UNL     1       7.940  -6.562  18.649  1.00  0.00     0.012 C 
HETATM   48  C33 UNL     1       9.553  -7.642  17.190  1.00  0.00     0.012 C 
ENDBRANCH  26  46
BRANCH  16  49
HETATM   49  C20 UNL     1       4.927 -14.988  19.955  1.00  0.00     0.009 C 
HETATM   50  C21 UNL     1       6.274 -15.431  19.361  1.00  0.00     0.012 C 
HETATM   51  C22 UNL     1       4.930 -15.381  21.390  1.00  0.00     0.012 C 
ENDBRANCH  16  49
BRANCH  21  52
HETATM   52  C25 UNL     1       9.022 -11.121  20.352  1.00  0.00     0.038 C 
BRANCH  52  53
HETATM   53  C26 UNL     1      10.319 -11.835  20.009  1.00  0.00    -0.020 C 
HETATM   54  C27 UNL     1      11.346 -11.526  21.082  1.00  0.00     0.009 C 
HETATM   55  C28 UNL     1      10.084 -13.327  19.968  1.00  0.00     0.009 C 
ENDBRANCH  52  53
ENDBRANCH  21  52
TORSDOF 12
ENDMDL
MODEL 4
REMARK VINA RESULT: -5.932971952      1.986      7.080
REMARK  12 active torsions:
REMARK  status: ('A' for Active; 'I' for Inactive)
REMARK    1  A    between atoms: C2_2  and  C4_4 
REMARK    2  A    between atoms: C4_4  and  C5_5 
REMARK    3  A    between atoms: C7_10  and  C8_11 
REMARK    4  A    between atoms: C8_11  and  C9_12 
REMARK    5  A    between atoms: C9_12  and  C10_13 
REMARK    6  A    between atoms: C10_13  and  C11_14 
REMARK    7  A    between atoms: C11_14  and  N2_15 
REMARK    8  A    between atoms: C13_23  and  C14_24 
REMARK    9  A    between atoms: C19_31  and  C20_32 
REMARK   10  A    between atoms: C24_39  and  C25_40 
REMARK   11  A    between atoms: C25_40  and  C26_41 
REMARK   12  A    between atoms: C30_48  and  C31_49 
ROOT
HETATM    1  C5  UNL     1       7.541  -9.317  17.929  1.00  0.00     0.177 C 
HETATM    2  N1  UNL     1       7.336  -9.784  19.278  1.00  0.00    -0.346 N 
ATOM      3  H1  UNL     1       6.684  -9.230  19.833  1.00  0.00     0.163 HD
HETATM    4  C6  UNL     1       7.895 -10.880  19.939  1.00  0.00     0.241 C 
HETATM    5  O1  UNL     1       7.059 -11.732  20.428  1.00  0.00    -0.271 OA
HETATM    6  C7  UNL     1       9.313 -11.221  20.175  1.00  0.00     0.176 C 
HETATM    7  N3  UNL     1       9.865 -12.280  19.389  1.00  0.00    -0.346 N 
ATOM      8  H3  UNL     1      10.155 -11.970  18.462  1.00  0.00     0.163 HD
HETATM    9  C12 UNL     1      10.095 -13.632  19.595  1.00  0.00     0.241 C 
HETATM   10  O2  UNL     1      11.333 -14.011  19.685  1.00  0.00    -0.271 OA
HETATM   11  C13 UNL     1       9.135 -14.755  19.729  1.00  0.00     0.182 C 
HETATM   12  N4  UNL     1       8.669 -15.206  18.417  1.00  0.00    -0.341 N 
HETATM   13  C17 UNL     1       9.585 -16.047  17.632  1.00  0.00     0.153 C 
HETATM   14  C18 UNL     1       7.444 -14.895  17.819  1.00  0.00     0.243 C 
HETATM   15  O3  UNL     1       7.537 -14.577  16.567  1.00  0.00    -0.271 OA
HETATM   16  C19 UNL     1       6.087 -14.881  18.406  1.00  0.00     0.180 C 
HETATM   17  N5  UNL     1       5.151 -14.850  17.298  1.00  0.00    -0.346 N 
ATOM     18  H5  UNL     1       5.030 -15.729  16.794  1.00  0.00     0.163 HD
HETATM   19  C23 UNL     1       4.393 -13.771  16.833  1.00  0.00     0.241 C 
HETATM   20  O4  UNL     1       4.568 -13.441  15.597  1.00  0.00    -0.271 OA
HETATM   21  C24 UNL     1       3.409 -12.944  17.561  1.00  0.00     0.177 C 
HETATM   22  N6  UNL     1       3.957 -11.853  18.315  1.00  0.00    -0.346 N 
ATOM     23  H6  UNL     1       4.466 -12.149  19.147  1.00  0.00     0.163 HD
HETATM   24  C29 UNL     1       3.934 -10.478  18.141  1.00  0.00     0.241 C 
HETATM   25  O5  UNL     1       3.278  -9.798  19.031  1.00  0.00    -0.271 OA
HETATM   26  C30 UNL     1       4.535  -9.612  17.109  1.00  0.00     0.180 C 
HETATM   27  N7  UNL     1       5.654 -10.179  16.407  1.00  0.00    -0.346 N 
ATOM     28  H7  UNL     1       5.489 -10.550  15.471  1.00  0.00     0.163 HD
HETATM   29  C34 UNL     1       6.977 -10.260  16.928  1.00  0.00     0.241 C 
HETATM   30  O6  UNL     1       7.718 -11.187  16.518  1.00  0.00    -0.271 OA
ENDROOT
BRANCH   6  31
HETATM   31  C8  UNL     1       9.561 -11.386  21.688  1.00  0.00     0.035 C 
BRANCH  31  32
HETATM   32  C9  UNL     1       9.761 -10.034  22.336  1.00  0.00     0.004 C 
BRANCH  32  33
HETATM   33  C10 UNL     1       9.130 -10.039  23.718  1.00  0.00     0.027 C 
BRANCH  33  34
HETATM   34  C11 UNL     1       8.010 -11.067  23.727  1.00  0.00     0.229 C 
BRANCH  34  35
HETATM   35  N2  UNL     1       6.744 -10.447  23.418  1.00  0.00    -0.079 N 
ATOM     36  H23 UNL     1       6.843  -9.443  23.265  1.00  0.00     0.274 HD
ATOM     37  H22 UNL     1       6.410 -10.712  22.492  1.00  0.00     0.274 HD
ATOM     38  H21 UNL     1       6.055 -10.652  24.142  1.00  0.00     0.274 HD
ENDBRANCH  34  35
ENDBRANCH  33  34
ENDBRANCH  32  33
ENDBRANCH  31  32
ENDBRANCH   6  31
BRANCH   1  39
HETATM   39  C4  UNL     1       8.949  -8.937  17.594  1.00  0.00     0.038 C 
BRANCH  39  40
HETATM   40  C2  UNL     1       9.188  -7.468  17.877  1.00  0.00    -0.020 C 
HETATM   41  C1  UNL     1       7.861  -6.768  17.541  1.00  0.00     0.009 C 
HETATM   42  C3  UNL     1      10.309  -6.889  17.037  1.00  0.00     0.009 C 
ENDBRANCH  39  40
ENDBRANCH   1  39
BRANCH  11  43
HETATM   43  C14 UNL     1       9.517 -15.830  20.663  1.00  0.00     0.009 C 
HETATM   44  C15 UNL     1       8.370 -16.856  20.770  1.00  0.00     0.012 C 
HETATM   45  C16 UNL     1       9.948 -15.526  22.032  1.00  0.00     0.012 C 
ENDBRANCH  11  43
BRANCH  26  46
HETATM   46  C31 UNL     1       3.523  -8.951  16.194  1.00  0.00     0.009 C 
HETATM   47  C32 UNL     1       3.721  -9.466  14.762  1.00  0.00     0.012 C 
HETATM   48  C33 UNL     1       3.781  -7.446  16.107  1.00  0.00     0.012 C 
ENDBRANCH  26  46
BRANCH  16  49
HETATM   49  C20 UNL     1       5.768 -16.146  19.173  1.00  0.00     0.009 C 
HETATM   50  C21 UNL     1       4.440 -15.868  19.896  1.00  0.00     0.012 C 
HETATM   51  C22 UNL     1       5.551 -17.334  18.303  1.00  0.00     0.012 C 
ENDBRANCH  16  49
BRANCH  21  52
HETATM   52  C25 UNL     1       2.265 -12.530  16.619  1.00  0.00     0.038 C 
BRANCH  52  53
HETATM   53  C26 UNL     1       0.939 -12.870  17.282  1.00  0.00    -0.020 C 
HETATM   54  C27 UNL     1       1.177 -13.945  18.327  1.00  0.00     0.009 C 
HETATM   55  C28 UNL     1       0.378 -11.641  17.959  1.00  0.00     0.009 C 
ENDBRANCH  52  53
ENDBRANCH  21  52
TORSDOF 12
ENDMDL
MODEL 5
REMARK VINA RESULT: -5.876894478      2.742      8.968
REMARK  12 active torsions:
REMARK  status: ('A' for Active; 'I' for Inactive)
REMARK    1  A    between atoms: C2_2  and  C4_4 
REMARK    2  A    between atoms: C4_4  and  C5_5 
REMARK    3  A    between atoms: C7_10  and  C8_11 
REMARK    4  A    between atoms: C8_11  and  C9_12 
REMARK    5  A    between atoms: C9_12  and  C10_13 
REMARK    6  A    between atoms: C10_13  and  C11_14 
REMARK    7  A    between atoms: C11_14  and  N2_15 
REMARK    8  A    between atoms: C13_23  and  C14_24 
REMARK    9  A    between atoms: C19_31  and  C20_32 
REMARK   10  A    between atoms: C24_39  and  C25_40 
REMARK   11  A    between atoms: C25_40  and  C26_41 
REMARK   12  A    between atoms: C30_48  and  C31_49 
ROOT
HETATM    1  C5  UNL     1       2.554  -8.173  17.574  1.00  0.00     0.177 C 
HETATM    2  N1  UNL     1       3.151  -8.839  16.444  1.00  0.00    -0.346 N 
ATOM      3  H1  UNL     1       2.669  -8.701  15.556  1.00  0.00     0.163 HD
HETATM    4  C6  UNL     1       4.289  -9.646  16.381  1.00  0.00     0.241 C 
HETATM    5  O1  UNL     1       5.205  -9.267  15.556  1.00  0.00    -0.271 OA
HETATM    6  C7  UNL     1       4.615 -10.884  17.119  1.00  0.00     0.176 C 
HETATM    7  N3  UNL     1       5.580 -10.780  18.168  1.00  0.00    -0.346 N 
ATOM      8  H3  UNL     1       5.176 -10.438  19.039  1.00  0.00     0.163 HD
HETATM    9  C12 UNL     1       6.939 -11.036  18.274  1.00  0.00     0.241 C 
HETATM   10  O2  UNL     1       7.292 -12.041  19.014  1.00  0.00    -0.271 OA
HETATM   11  C13 UNL     1       8.094 -10.329  17.669  1.00  0.00     0.182 C 
HETATM   12  N4  UNL     1       8.431  -9.126  18.433  1.00  0.00    -0.341 N 
HETATM   13  C17 UNL     1       9.170  -9.315  19.691  1.00  0.00     0.153 C 
HETATM   14  C18 UNL     1       8.097  -7.810  18.101  1.00  0.00     0.243 C 
HETATM   15  O3  UNL     1       7.660  -7.111  19.099  1.00  0.00    -0.271 OA
HETATM   16  C19 UNL     1       8.174  -7.121  16.795  1.00  0.00     0.180 C 
HETATM   17  N5  UNL     1       8.063  -5.700  17.062  1.00  0.00    -0.346 N 
ATOM     18  H5  UNL     1       8.892  -5.256  17.455  1.00  0.00     0.163 HD
HETATM   19  C23 UNL     1       6.964  -4.861  16.850  1.00  0.00     0.241 C 
HETATM   20  O4  UNL     1       6.515  -4.236  17.887  1.00  0.00    -0.271 OA
HETATM   21  C24 UNL     1       6.236  -4.583  15.596  1.00  0.00     0.177 C 
HETATM   22  N6  UNL     1       5.207  -5.524  15.257  1.00  0.00    -0.346 N 
ATOM     23  H6  UNL     1       5.567  -6.430  14.959  1.00  0.00     0.163 HD
HETATM   24  C29 UNL     1       3.823  -5.451  15.253  1.00  0.00     0.241 C 
HETATM   25  O5  UNL     1       3.247  -5.524  14.092  1.00  0.00    -0.271 OA
HETATM   26  C30 UNL     1       2.848  -5.307  16.351  1.00  0.00     0.180 C 
HETATM   27  N7  UNL     1       3.317  -5.716  17.647  1.00  0.00    -0.346 N 
ATOM     28  H7  UNL     1       3.602  -4.987  18.301  1.00  0.00     0.163 HD
HETATM   29  C34 UNL     1       3.412  -7.069  18.080  1.00  0.00     0.241 C 
HETATM   30  O6  UNL     1       4.277  -7.354  18.945  1.00  0.00    -0.271 OA
ENDROOT
BRANCH   6  31
HETATM   31  C8  UNL     1       4.915 -12.019  16.117  1.00  0.00     0.035 C 
BRANCH  31  32
HETATM   32  C9  UNL     1       3.633 -12.705  15.703  1.00  0.00     0.004 C 
BRANCH  32  33
HETATM   33  C10 UNL     1       3.519 -12.689  14.188  1.00  0.00     0.027 C 
BRANCH  33  34
HETATM   34  C11 UNL     1       2.891 -11.369  13.771  1.00  0.00     0.229 C 
BRANCH  34  35
HETATM   35  N2  UNL     1       3.810 -10.594  12.974  1.00  0.00    -0.079 N 
ATOM     36  H23 UNL     1       4.730 -11.032  12.926  1.00  0.00     0.274 HD
ATOM     37  H22 UNL     1       3.572 -10.628  11.983  1.00  0.00     0.274 HD
ATOM     38  H21 UNL     1       3.866  -9.635  13.317  1.00  0.00     0.274 HD
ENDBRANCH  34  35
ENDBRANCH  33  34
ENDBRANCH  32  33
ENDBRANCH  31  32
ENDBRANCH   6  31
BRANCH   1  39
HETATM   39  C4  UNL     1       2.107  -9.074  18.682  1.00  0.00     0.038 C 
BRANCH  39  40
HETATM   40  C2  UNL     1       0.786  -9.731  18.338  1.00  0.00    -0.020 C 
HETATM   41  C1  UNL     1       0.052  -9.895  19.679  1.00  0.00     0.009 C 
HETATM   42  C3  UNL     1       0.964 -11.082  17.673  1.00  0.00     0.009 C 
ENDBRANCH  39  40
ENDBRANCH   1  39
BRANCH  11  43
HETATM   43  C14 UNL     1       9.242 -11.168  17.282  1.00  0.00     0.009 C 
HETATM   44  C15 UNL     1       8.742 -12.416  16.526  1.00  0.00     0.012 C 
HETATM   45  C16 UNL     1      10.210 -11.633  18.281  1.00  0.00     0.012 C 
ENDBRANCH  11  43
BRANCH  26  46
HETATM   46  C31 UNL     1       2.130  -3.972  16.366  1.00  0.00     0.009 C 
HETATM   47  C32 UNL     1       2.521  -3.171  15.116  1.00  0.00     0.012 C 
HETATM   48  C33 UNL     1       2.606  -3.118  17.542  1.00  0.00     0.012 C 
ENDBRANCH  26  46
BRANCH  16  49
HETATM   49  C20 UNL     1       9.514  -7.304  16.114  1.00  0.00     0.009 C 
HETATM   50  C21 UNL     1       9.495  -6.357  14.903  1.00  0.00     0.012 C 
HETATM   51  C22 UNL     1      10.672  -6.909  16.961  1.00  0.00     0.012 C 
ENDBRANCH  16  49
BRANCH  21  52
HETATM   52  C25 UNL     1       5.765  -3.118  15.570  1.00  0.00     0.038 C 
BRANCH  52  53
HETATM   53  C26 UNL     1       6.554  -2.369  14.508  1.00  0.00    -0.020 C 
HETATM   54  C27 UNL     1       6.153  -2.893  13.141  1.00  0.00     0.009 C 
HETATM   55  C28 UNL     1       6.235  -0.894  14.581  1.00  0.00     0.009 C 
ENDBRANCH  52  53
ENDBRANCH  21  52
TORSDOF 12
ENDMDL
