MODEL 1
REMARK VINA RESULT: -9.033400991      0.000      0.000
REMARK  4 active torsions:
REMARK  status: ('A' for Active; 'I' for Inactive)
REMARK    1  A    between atoms: O1_2  and  C2_3 
REMARK    2  A    between atoms: C2_3  and  N1_4 
REMARK    3  A    between atoms: C8_16  and  N4_17 
REMARK    4  A    between atoms: C9_22  and  N6_23 
ROOT
HETATM    1  N1  UNL     1     143.795  71.711  64.205  1.00  0.00    -0.250 N 
HETATM    2  C3  UNL     1     144.559  72.379  65.202  1.00  0.00     0.306 A 
HETATM    3  O2  UNL     1     144.612  73.627  65.402  1.00  0.00    -0.263 OA
HETATM    4  C4  UNL     1     145.261  71.328  65.934  1.00  0.00     0.258 A 
HETATM    5  O3  UNL     1     146.047  71.495  66.902  1.00  0.00    -0.281 OA
HETATM    6  C5  UNL     1     144.866  70.071  65.323  1.00  0.00     0.116 A 
HETATM    7  C6  UNL     1     143.989  70.286  64.285  1.00  0.00     0.136 A 
HETATM    8  N2  UNL     1     143.478  69.272  63.558  1.00  0.00    -0.326 N 
ATOM      9  H2  UNL     1     142.830  69.482  62.799  1.00  0.00     0.169 HD
HETATM   10  C7  UNL     1     143.802  67.985  63.811  1.00  0.00     0.140 A 
HETATM   11  N3  UNL     1     143.310  66.963  63.106  1.00  0.00    -0.176 N 
ATOM     12  H3  UNL     1     142.662  67.161  62.343  1.00  0.00     0.186 HD
HETATM   13  C8  UNL     1     143.639  65.662  63.364  1.00  0.00     0.679 A 
HETATM   14  N5  UNL     1     144.489  65.377  64.358  1.00  0.00    -0.176 N 
ATOM     15  H5  UNL     1     144.746  64.412  64.562  1.00  0.00     0.186 HD
HETATM   16  C9  UNL     1     144.998  66.390  65.082  1.00  0.00     0.132 A 
HETATM   17  C10 UNL     1     144.673  67.716  64.835  1.00  0.00     0.104 A 
HETATM   18  C11 UNL     1     145.204  68.745  65.585  1.00  0.00     0.207 A 
HETATM   19  O4  UNL     1     146.003  68.500  66.526  1.00  0.00    -0.286 OA
ENDROOT
BRANCH   1  20
HETATM   20  C2  UNL     1     142.938  72.321  63.220  1.00  0.00     0.237 C 
BRANCH  20  21
HETATM   21  O1  UNL     1     142.941  73.701  63.221  1.00  0.00    -0.351 OA
HETATM   22  C1  UNL     1     141.698  74.298  63.177  1.00  0.00     0.210 C 
ENDBRANCH  20  21
ENDBRANCH   1  20
BRANCH  16  23
HETATM   23  N6  UNL     1     145.811  66.178  66.043  1.00  0.00    -0.384 N 
ATOM     24  H62 UNL     1     146.075  65.206  66.203  1.00  0.00     0.157 HD
ATOM     25  H61 UNL     1     146.173  66.943  66.612  1.00  0.00     0.157 HD
ENDBRANCH  16  23
BRANCH  13  26
HETATM   26  N4  UNL     1     143.139  64.723  62.659  1.00  0.00    -0.234 N 
ATOM     27  H42 UNL     1     142.647  63.951  63.109  1.00  0.00     0.174 HD
ATOM     28  H41 UNL     1     143.231  64.741  61.643  1.00  0.00     0.174 HD
ENDBRANCH  13  26
TORSDOF 4
ENDMDL
MODEL 2
REMARK VINA RESULT: -8.873157168      2.735      4.636
REMARK  4 active torsions:
REMARK  status: ('A' for Active; 'I' for Inactive)
REMARK    1  A    between atoms: O1_2  and  C2_3 
REMARK    2  A    between atoms: C2_3  and  N1_4 
REMARK    3  A    between atoms: C8_16  and  N4_17 
REMARK    4  A    between atoms: C9_22  and  N6_23 
ROOT
HETATM    1  N1  UNL     1     147.706  72.963  66.717  1.00  0.00    -0.250 N 
HETATM    2  C3  UNL     1     147.148  74.181  66.238  1.00  0.00     0.306 A 
HETATM    3  O2  UNL     1     147.598  75.346  66.437  1.00  0.00    -0.263 OA
HETATM    4  C4  UNL     1     145.961  73.801  65.478  1.00  0.00     0.258 A 
HETATM    5  O3  UNL     1     145.176  74.586  64.885  1.00  0.00    -0.281 OA
HETATM    6  C5  UNL     1     145.877  72.353  65.547  1.00  0.00     0.116 A 
HETATM    7  C6  UNL     1     146.916  71.838  66.287  1.00  0.00     0.136 A 
HETATM    8  N2  UNL     1     147.059  70.514  66.496  1.00  0.00    -0.326 N 
ATOM      9  H2  UNL     1     147.846  70.181  67.051  1.00  0.00     0.169 HD
HETATM   10  C7  UNL     1     146.184  69.618  65.989  1.00  0.00     0.140 A 
HETATM   11  N3  UNL     1     146.302  68.301  66.182  1.00  0.00    -0.176 N 
ATOM     12  H3  UNL     1     147.086  67.956  66.736  1.00  0.00     0.186 HD
HETATM   13  C8  UNL     1     145.417  67.398  65.667  1.00  0.00     0.679 A 
HETATM   14  N5  UNL     1     144.379  67.826  64.938  1.00  0.00    -0.176 N 
ATOM     15  H5  UNL     1     143.709  67.164  64.548  1.00  0.00     0.186 HD
HETATM   16  C9  UNL     1     144.239  69.148  64.730  1.00  0.00     0.132 A 
HETATM   17  C10 UNL     1     145.129  70.079  65.244  1.00  0.00     0.104 A 
HETATM   18  C11 UNL     1     144.973  71.432  65.023  1.00  0.00     0.207 A 
HETATM   19  O4  UNL     1     144.006  71.857  64.339  1.00  0.00    -0.286 OA
ENDROOT
BRANCH   1  20
HETATM   20  C2  UNL     1     148.886  72.815  67.531  1.00  0.00     0.237 C 
BRANCH  20  21
HETATM   21  O1  UNL     1     149.913  72.107  66.942  1.00  0.00    -0.351 OA
HETATM   22  C1  UNL     1     150.439  72.667  65.795  1.00  0.00     0.210 C 
ENDBRANCH  20  21
ENDBRANCH   1  20
BRANCH  16  23
HETATM   23  N6  UNL     1     143.270  69.613  64.041  1.00  0.00    -0.384 N 
ATOM     24  H62 UNL     1     143.437  70.504  63.574  1.00  0.00     0.157 HD
ATOM     25  H61 UNL     1     142.383  69.115  63.966  1.00  0.00     0.157 HD
ENDBRANCH  16  23
BRANCH  13  26
HETATM   26  N4  UNL     1     145.577  66.150  65.882  1.00  0.00    -0.234 N 
ATOM     27  H42 UNL     1     146.451  65.806  66.280  1.00  0.00     0.174 HD
ATOM     28  H41 UNL     1     144.831  65.491  65.655  1.00  0.00     0.174 HD
ENDBRANCH  13  26
TORSDOF 4
ENDMDL
MODEL 3
REMARK VINA RESULT: -8.237421342      2.947      6.602
REMARK  4 active torsions:
REMARK  status: ('A' for Active; 'I' for Inactive)
REMARK    1  A    between atoms: O1_2  and  C2_3 
REMARK    2  A    between atoms: C2_3  and  N1_4 
REMARK    3  A    between atoms: C8_16  and  N4_17 
REMARK    4  A    between atoms: C9_22  and  N6_23 
ROOT
HETATM    1  N1  UNL     1     145.011  68.038  65.256  1.00  0.00    -0.250 N 
HETATM    2  C3  UNL     1     143.919  67.998  64.345  1.00  0.00     0.306 A 
HETATM    3  O2  UNL     1     143.301  66.966  63.954  1.00  0.00    -0.263 OA
HETATM    4  C4  UNL     1     143.671  69.385  63.963  1.00  0.00     0.258 A 
HETATM    5  O3  UNL     1     142.783  69.788  63.167  1.00  0.00    -0.281 OA
HETATM    6  C5  UNL     1     144.644  70.188  64.681  1.00  0.00     0.116 A 
HETATM    7  C6  UNL     1     145.454  69.394  65.460  1.00  0.00     0.136 A 
HETATM    8  N2  UNL     1     146.439  69.906  66.224  1.00  0.00    -0.326 N 
ATOM      9  H2  UNL     1     147.013  69.276  66.784  1.00  0.00     0.169 HD
HETATM   10  C7  UNL     1     146.685  71.234  66.266  1.00  0.00     0.140 A 
HETATM   11  N3  UNL     1     147.655  71.768  67.014  1.00  0.00    -0.176 N 
ATOM     12  H3  UNL     1     148.236  71.147  67.577  1.00  0.00     0.186 HD
HETATM   13  C8  UNL     1     147.900  73.111  67.054  1.00  0.00     0.679 A 
HETATM   14  N5  UNL     1     147.153  73.945  66.322  1.00  0.00    -0.176 N 
ATOM     15  H5  UNL     1     147.325  74.950  66.341  1.00  0.00     0.186 HD
HETATM   16  C9  UNL     1     146.171  73.432  65.561  1.00  0.00     0.132 A 
HETATM   17  C10 UNL     1     145.907  72.071  65.508  1.00  0.00     0.104 A 
HETATM   18  C11 UNL     1     144.895  71.558  64.722  1.00  0.00     0.207 A 
HETATM   19  O4  UNL     1     144.179  72.324  64.026  1.00  0.00    -0.286 OA
ENDROOT
BRANCH   1  20
HETATM   20  C2  UNL     1     145.635  66.914  65.906  1.00  0.00     0.237 C 
BRANCH  20  21
HETATM   21  O1  UNL     1     146.830  66.509  65.349  1.00  0.00    -0.351 OA
HETATM   22  C1  UNL     1     146.745  65.994  64.071  1.00  0.00     0.210 C 
ENDBRANCH  20  21
ENDBRANCH   1  20
BRANCH  16  23
HETATM   23  N6  UNL     1     145.425  74.179  64.843  1.00  0.00    -0.384 N 
ATOM     24  H62 UNL     1     144.550  74.484  65.268  1.00  0.00     0.157 HD
ATOM     25  H61 UNL     1     145.698  74.453  63.898  1.00  0.00     0.157 HD
ENDBRANCH  16  23
BRANCH  13  26
HETATM   26  N4  UNL     1     148.841  73.568  67.788  1.00  0.00    -0.234 N 
ATOM     27  H42 UNL     1     149.396  72.935  68.362  1.00  0.00     0.174 HD
ATOM     28  H41 UNL     1     149.038  74.569  67.801  1.00  0.00     0.174 HD
ENDBRANCH  13  26
TORSDOF 4
ENDMDL
MODEL 4
REMARK VINA RESULT: -8.220085481      3.059      4.529
REMARK  4 active torsions:
REMARK  status: ('A' for Active; 'I' for Inactive)
REMARK    1  A    between atoms: O1_2  and  C2_3 
REMARK    2  A    between atoms: C2_3  and  N1_4 
REMARK    3  A    between atoms: C8_16  and  N4_17 
REMARK    4  A    between atoms: C9_22  and  N6_23 
ROOT
HETATM    1  N1  UNL     1     147.565  74.820  65.516  1.00  0.00    -0.250 N 
HETATM    2  C3  UNL     1     148.455  74.529  66.587  1.00  0.00     0.306 A 
HETATM    3  O2  UNL     1     149.345  75.295  67.056  1.00  0.00    -0.263 OA
HETATM    4  C4  UNL     1     148.124  73.175  67.021  1.00  0.00     0.258 A 
HETATM    5  O3  UNL     1     148.682  72.536  67.951  1.00  0.00    -0.281 OA
HETATM    6  C5  UNL     1     147.036  72.727  66.171  1.00  0.00     0.116 A 
HETATM    7  C6  UNL     1     146.691  73.702  65.264  1.00  0.00     0.136 A 
HETATM    8  N2  UNL     1     145.704  73.526  64.363  1.00  0.00    -0.326 N 
ATOM      9  H2  UNL     1     145.485  74.279  63.711  1.00  0.00     0.169 HD
HETATM   10  C7  UNL     1     144.999  72.375  64.301  1.00  0.00     0.140 A 
HETATM   11  N3  UNL     1     144.017  72.174  63.417  1.00  0.00    -0.176 N 
ATOM     12  H3  UNL     1     143.789  72.920  62.760  1.00  0.00     0.186 HD
HETATM   13  C8  UNL     1     143.305  71.010  63.358  1.00  0.00     0.679 A 
HETATM   14  N5  UNL     1     143.586  70.016  64.209  1.00  0.00    -0.176 N 
ATOM     15  H5  UNL     1     143.064  69.140  64.176  1.00  0.00     0.186 HD
HETATM   16  C9  UNL     1     144.570  70.194  65.107  1.00  0.00     0.132 A 
HETATM   17  C10 UNL     1     145.302  71.370  65.182  1.00  0.00     0.104 A 
HETATM   18  C11 UNL     1     146.311  71.539  66.110  1.00  0.00     0.207 A 
HETATM   19  O4  UNL     1     146.591  70.618  66.920  1.00  0.00    -0.286 OA
ENDROOT
BRANCH   1  20
HETATM   20  C2  UNL     1     147.506  76.037  64.747  1.00  0.00     0.237 C 
BRANCH  20  21
HETATM   21  O1  UNL     1     146.312  76.253  64.091  1.00  0.00    -0.351 OA
HETATM   22  C1  UNL     1     146.307  77.307  63.200  1.00  0.00     0.210 C 
ENDBRANCH  20  21
ENDBRANCH   1  20
BRANCH  16  23
HETATM   23  N6  UNL     1     144.881  69.281  65.944  1.00  0.00    -0.384 N 
ATOM     24  H62 UNL     1     145.836  68.929  65.892  1.00  0.00     0.157 HD
ATOM     25  H61 UNL     1     144.206  68.931  66.624  1.00  0.00     0.157 HD
ENDBRANCH  16  23
BRANCH  13  26
HETATM   26  N4  UNL     1     142.376  70.871  62.493  1.00  0.00    -0.234 N 
ATOM     27  H42 UNL     1     141.398  70.942  62.776  1.00  0.00     0.174 HD
ATOM     28  H41 UNL     1     142.608  70.687  61.517  1.00  0.00     0.174 HD
ENDBRANCH  13  26
TORSDOF 4
ENDMDL
MODEL 5
REMARK VINA RESULT: -8.187846717      3.520      5.693
REMARK  4 active torsions:
REMARK  status: ('A' for Active; 'I' for Inactive)
REMARK    1  A    between atoms: O1_2  and  C2_3 
REMARK    2  A    between atoms: C2_3  and  N1_4 
REMARK    3  A    between atoms: C8_16  and  N4_17 
REMARK    4  A    between atoms: C9_22  and  N6_23 
ROOT
HETATM    1  N1  UNL     1     148.899  73.819  66.544  1.00  0.00    -0.250 N 
HETATM    2  C3  UNL     1     148.450  75.103  66.127  1.00  0.00     0.306 A 
HETATM    3  O2  UNL     1     149.085  76.193  66.229  1.00  0.00    -0.263 OA
HETATM    4  C4  UNL     1     147.118  74.895  65.567  1.00  0.00     0.258 A 
HETATM    5  O3  UNL     1     146.369  75.783  65.083  1.00  0.00    -0.281 OA
HETATM    6  C5  UNL     1     146.844  73.474  65.681  1.00  0.00     0.116 A 
HETATM    7  C6  UNL     1     147.902  72.816  66.265  1.00  0.00     0.136 A 
HETATM    8  N2  UNL     1     147.889  71.486  66.480  1.00  0.00    -0.326 N 
ATOM      9  H2  UNL     1     148.698  71.045  66.916  1.00  0.00     0.169 HD
HETATM   10  C7  UNL     1     146.829  70.723  66.132  1.00  0.00     0.140 A 
HETATM   11  N3  UNL     1     146.790  69.403  66.335  1.00  0.00    -0.176 N 
ATOM     12  H3  UNL     1     147.593  68.951  66.771  1.00  0.00     0.186 HD
HETATM   13  C8  UNL     1     145.717  68.634  65.983  1.00  0.00     0.679 A 
HETATM   14  N5  UNL     1     144.650  69.205  65.411  1.00  0.00    -0.176 N 
ATOM     15  H5  UNL     1     143.841  68.645  65.143  1.00  0.00     0.186 HD
HETATM   16  C9  UNL     1     144.666  70.533  65.196  1.00  0.00     0.132 A 
HETATM   17  C10 UNL     1     145.747  71.328  65.547  1.00  0.00     0.104 A 
HETATM   18  C11 UNL     1     145.749  72.690  65.322  1.00  0.00     0.207 A 
HETATM   19  O4  UNL     1     144.758  73.248  64.784  1.00  0.00    -0.286 OA
ENDROOT
BRANCH   1  20
HETATM   20  C2  UNL     1     150.158  73.504  67.170  1.00  0.00     0.237 C 
BRANCH  20  21
HETATM   21  O1  UNL     1     150.102  72.506  68.121  1.00  0.00    -0.351 OA
HETATM   22  C1  UNL     1     150.441  72.886  69.403  1.00  0.00     0.210 C 
ENDBRANCH  20  21
ENDBRANCH   1  20
BRANCH  16  23
HETATM   23  N6  UNL     1     143.678  71.131  64.653  1.00  0.00    -0.384 N 
ATOM     24  H62 UNL     1     143.348  70.746  63.769  1.00  0.00     0.157 HD
ATOM     25  H61 UNL     1     143.246  71.948  65.087  1.00  0.00     0.157 HD
ENDBRANCH  16  23
BRANCH  13  26
HETATM   26  N4  UNL     1     145.732  67.376  66.199  1.00  0.00    -0.234 N 
ATOM     27  H42 UNL     1     146.060  67.014  67.094  1.00  0.00     0.174 HD
ATOM     28  H41 UNL     1     145.417  66.729  65.476  1.00  0.00     0.174 HD
ENDBRANCH  13  26
TORSDOF 4
ENDMDL
