MODEL 1
REMARK VINA RESULT: -4.464144631      0.000      0.000
REMARK  5 active torsions:
REMARK  status: ('A' for Active; 'I' for Inactive)
REMARK    1  A    between atoms: C3_3  and  C4_4 
REMARK    2  A    between atoms: C4_4  and  N1_5 
REMARK    3  A    between atoms: C4_4  and  N2_9 
REMARK    4  A    between atoms: N2_9  and  N3_10 
REMARK    5  A    between atoms: N3_10  and  C5_12 
ROOT
HETATM    1  N2  UNL     1      11.664   4.472   5.869  1.00  0.00    -0.101 NA
ENDROOT
BRANCH   1   2
HETATM    2  C4  UNL     1      12.146   4.772   4.540  1.00  0.00     0.318 C 
BRANCH   2   3
HETATM    3  C3  UNL     1      12.415   6.221   4.473  1.00  0.00     0.020 C 
HETATM    4  C2  UNL     1      13.476   6.719   5.071  1.00  0.00    -0.032 C 
HETATM    5  C1  UNL     1      13.780   8.179   5.026  1.00  0.00     0.036 C 
ENDBRANCH   2   3
BRANCH   2   6
HETATM    6  N1  UNL     1      13.347   4.021   4.271  1.00  0.00    -0.056 N 
ATOM      7  H13 UNL     1      13.568   4.003   3.275  1.00  0.00     0.276 HD
ATOM      8  H12 UNL     1      14.180   4.506   4.605  1.00  0.00     0.276 HD
ATOM      9  H11 UNL     1      13.275   3.081   4.660  1.00  0.00     0.276 HD
ENDBRANCH   2   6
ENDBRANCH   1   2
BRANCH   1  10
HETATM   10  N3  UNL     1      10.367   4.014   5.892  1.00  0.00    -0.273 N 
ATOM     11  H3  UNL     1       9.713   4.405   6.570  1.00  0.00     0.185 HD
BRANCH  10  12
HETATM   12  C5  UNL     1       9.912   2.999   4.985  1.00  0.00     0.187 C 
HETATM   13  N4  UNL     1      10.322   1.777   4.992  1.00  0.00    -0.360 N 
HETATM   14  C6  UNL     1       9.673   1.004   3.953  1.00  0.00     0.142 C 
ATOM     15  H4  UNL     1      11.012   1.403   5.642  1.00  0.00     0.162 HD
HETATM   16  C7  UNL     1       8.458   1.854   3.641  1.00  0.00     0.142 C 
HETATM   17  N5  UNL     1       8.949   3.185   3.948  1.00  0.00    -0.360 N 
ATOM     18  H5  UNL     1       8.666   4.064   3.516  1.00  0.00     0.162 HD
ENDBRANCH  10  12
ENDBRANCH   1  10
TORSDOF 5
ENDMDL
MODEL 2
REMARK VINA RESULT: -4.414436879      2.182      6.117
REMARK  5 active torsions:
REMARK  status: ('A' for Active; 'I' for Inactive)
REMARK    1  A    between atoms: C3_3  and  C4_4 
REMARK    2  A    between atoms: C4_4  and  N1_5 
REMARK    3  A    between atoms: C4_4  and  N2_9 
REMARK    4  A    between atoms: N2_9  and  N3_10 
REMARK    5  A    between atoms: N3_10  and  C5_12 
ROOT
HETATM    1  N2  UNL     1       8.260   2.010   4.258  1.00  0.00    -0.101 NA
ENDROOT
BRANCH   1   2
HETATM    2  C4  UNL     1       7.363   2.215   3.143  1.00  0.00     0.318 C 
BRANCH   2   3
HETATM    3  C3  UNL     1       7.032   0.893   2.580  1.00  0.00     0.020 C 
HETATM    4  C2  UNL     1       7.081   0.703   1.280  1.00  0.00    -0.032 C 
HETATM    5  C1  UNL     1       6.752  -0.621   0.674  1.00  0.00     0.036 C 
ENDBRANCH   2   3
BRANCH   2   6
HETATM    6  N1  UNL     1       6.170   2.889   3.591  1.00  0.00    -0.056 N 
ATOM      7  H13 UNL     1       5.326   2.372   3.342  1.00  0.00     0.276 HD
ATOM      8  H12 UNL     1       6.075   2.857   4.606  1.00  0.00     0.276 HD
ATOM      9  H11 UNL     1       6.145   3.846   3.237  1.00  0.00     0.276 HD
ENDBRANCH   2   6
ENDBRANCH   1   2
BRANCH   1  10
HETATM   10  N3  UNL     1       8.871   3.165   4.691  1.00  0.00    -0.273 N 
ATOM     11  H3  UNL     1       8.317   4.016   4.785  1.00  0.00     0.185 HD
BRANCH  10  12
HETATM   12  C5  UNL     1      10.269   3.199   5.012  1.00  0.00     0.187 C 
HETATM   13  N4  UNL     1      10.917   2.227   5.558  1.00  0.00    -0.360 N 
HETATM   14  C6  UNL     1      12.309   2.574   5.753  1.00  0.00     0.142 C 
ATOM     15  H4  UNL     1      10.503   1.332   5.819  1.00  0.00     0.162 HD
HETATM   16  C7  UNL     1      12.483   3.732   4.793  1.00  0.00     0.142 C 
HETATM   17  N5  UNL     1      11.147   4.300   4.780  1.00  0.00    -0.360 N 
ATOM     18  H5  UNL     1      10.890   5.276   4.637  1.00  0.00     0.162 HD
ENDBRANCH  10  12
ENDBRANCH   1  10
TORSDOF 5
ENDMDL
MODEL 3
REMARK VINA RESULT: -4.219341401      3.357      4.579
REMARK  5 active torsions:
REMARK  status: ('A' for Active; 'I' for Inactive)
REMARK    1  A    between atoms: C3_3  and  C4_4 
REMARK    2  A    between atoms: C4_4  and  N1_5 
REMARK    3  A    between atoms: C4_4  and  N2_9 
REMARK    4  A    between atoms: N2_9  and  N3_10 
REMARK    5  A    between atoms: N3_10  and  C5_12 
ROOT
HETATM    1  N2  UNL     1      11.630   2.424   5.454  1.00  0.00    -0.101 NA
ENDROOT
BRANCH   1   2
HETATM    2  C4  UNL     1      11.051   3.742   5.322  1.00  0.00     0.318 C 
BRANCH   2   3
HETATM    3  C3  UNL     1      11.076   4.104   3.892  1.00  0.00     0.020 C 
HETATM    4  C2  UNL     1      10.104   3.710   3.098  1.00  0.00    -0.032 C 
HETATM    5  C1  UNL     1      10.097   4.057   1.647  1.00  0.00     0.036 C 
ENDBRANCH   2   3
BRANCH   2   6
HETATM    6  N1  UNL     1       9.698   3.735   5.819  1.00  0.00    -0.056 N 
ATOM      7  H13 UNL     1       9.394   4.667   6.104  1.00  0.00     0.276 HD
ATOM      8  H12 UNL     1       9.021   3.575   5.073  1.00  0.00     0.276 HD
ATOM      9  H11 UNL     1       9.597   3.058   6.575  1.00  0.00     0.276 HD
ENDBRANCH   2   6
ENDBRANCH   1   2
BRANCH   1  10
HETATM   10  N3  UNL     1      12.310   2.240   6.636  1.00  0.00    -0.273 N 
ATOM     11  H3  UNL     1      12.680   3.052   7.130  1.00  0.00     0.185 HD
BRANCH  10  12
HETATM   12  C5  UNL     1      12.512   0.932   7.191  1.00  0.00     0.187 C 
HETATM   13  N4  UNL     1      11.612   0.009   7.232  1.00  0.00    -0.360 N 
HETATM   14  C6  UNL     1      12.127  -1.193   7.853  1.00  0.00     0.142 C 
ATOM     15  H4  UNL     1      10.662   0.113   6.875  1.00  0.00     0.162 HD
HETATM   16  C7  UNL     1      13.624  -0.991   7.738  1.00  0.00     0.142 C 
HETATM   17  N5  UNL     1      13.724   0.457   7.775  1.00  0.00    -0.360 N 
ATOM     18  H5  UNL     1      14.495   1.014   8.141  1.00  0.00     0.162 HD
ENDBRANCH  10  12
ENDBRANCH   1  10
TORSDOF 5
ENDMDL
MODEL 4
REMARK VINA RESULT: -4.194432215      3.970      5.408
REMARK  5 active torsions:
REMARK  status: ('A' for Active; 'I' for Inactive)
REMARK    1  A    between atoms: C3_3  and  C4_4 
REMARK    2  A    between atoms: C4_4  and  N1_5 
REMARK    3  A    between atoms: C4_4  and  N2_9 
REMARK    4  A    between atoms: N2_9  and  N3_10 
REMARK    5  A    between atoms: N3_10  and  C5_12 
ROOT
HETATM    1  N2  UNL     1      12.748   2.183   6.985  1.00  0.00    -0.101 NA
ENDROOT
BRANCH   1   2
HETATM    2  C4  UNL     1      12.901   0.750   7.092  1.00  0.00     0.318 C 
BRANCH   2   3
HETATM    3  C3  UNL     1      14.307   0.469   7.440  1.00  0.00     0.020 C 
HETATM    4  C2  UNL     1      14.664  -0.745   7.797  1.00  0.00    -0.032 C 
HETATM    5  C1  UNL     1      16.076  -1.066   8.156  1.00  0.00     0.036 C 
ENDBRANCH   2   3
BRANCH   2   6
HETATM    6  N1  UNL     1      12.015   0.237   8.107  1.00  0.00    -0.056 N 
ATOM      7  H13 UNL     1      11.466  -0.553   7.767  1.00  0.00     0.276 HD
ATOM      8  H12 UNL     1      12.526  -0.241   8.849  1.00  0.00     0.276 HD
ATOM      9  H11 UNL     1      11.421   0.980   8.473  1.00  0.00     0.276 HD
ENDBRANCH   2   6
ENDBRANCH   1   2
BRANCH   1  10
HETATM   10  N3  UNL     1      11.656   2.566   6.241  1.00  0.00    -0.273 N 
ATOM     11  H3  UNL     1      10.750   2.134   6.428  1.00  0.00     0.185 HD
BRANCH  10  12
HETATM   12  C5  UNL     1      11.759   3.556   5.208  1.00  0.00     0.187 C 
HETATM   13  N4  UNL     1      10.770   3.975   4.495  1.00  0.00    -0.360 N 
HETATM   14  C6  UNL     1      11.201   4.975   3.541  1.00  0.00     0.142 C 
ATOM     15  H4  UNL     1       9.810   3.644   4.590  1.00  0.00     0.162 HD
HETATM   16  C7  UNL     1      12.520   5.427   4.134  1.00  0.00     0.142 C 
HETATM   17  N5  UNL     1      12.959   4.224   4.816  1.00  0.00    -0.360 N 
ATOM     18  H5  UNL     1      13.918   3.920   4.981  1.00  0.00     0.162 HD
ENDBRANCH  10  12
ENDBRANCH   1  10
TORSDOF 5
ENDMDL
MODEL 5
REMARK VINA RESULT: -4.151759924      3.326      6.055
REMARK  5 active torsions:
REMARK  status: ('A' for Active; 'I' for Inactive)
REMARK    1  A    between atoms: C3_3  and  C4_4 
REMARK    2  A    between atoms: C4_4  and  N1_5 
REMARK    3  A    between atoms: C4_4  and  N2_9 
REMARK    4  A    between atoms: N2_9  and  N3_10 
REMARK    5  A    between atoms: N3_10  and  C5_12 
ROOT
HETATM    1  N2  UNL     1       8.248   2.338   4.372  1.00  0.00    -0.101 NA
ENDROOT
BRANCH   1   2
HETATM    2  C4  UNL     1       7.263   2.431   3.318  1.00  0.00     0.318 C 
BRANCH   2   3
HETATM    3  C3  UNL     1       7.016   1.069   2.808  1.00  0.00     0.020 C 
HETATM    4  C2  UNL     1       7.156   0.815   1.525  1.00  0.00    -0.032 C 
HETATM    5  C1  UNL     1       6.915  -0.550   0.973  1.00  0.00     0.036 C 
ENDBRANCH   2   3
BRANCH   2   6
HETATM    6  N1  UNL     1       6.046   3.007   3.835  1.00  0.00    -0.056 N 
ATOM      7  H13 UNL     1       5.241   2.401   3.671  1.00  0.00     0.276 HD
ATOM      8  H12 UNL     1       6.031   3.008   4.855  1.00  0.00     0.276 HD
ATOM      9  H11 UNL     1       5.901   3.941   3.452  1.00  0.00     0.276 HD
ENDBRANCH   2   6
ENDBRANCH   1   2
BRANCH   1  10
HETATM   10  N3  UNL     1       9.260   3.265   4.260  1.00  0.00    -0.273 N 
ATOM     11  H3  UNL     1       9.477   3.862   5.058  1.00  0.00     0.185 HD
BRANCH  10  12
HETATM   12  C5  UNL     1      10.015   3.411   3.049  1.00  0.00     0.187 C 
HETATM   13  N4  UNL     1      11.008   2.660   2.713  1.00  0.00    -0.360 N 
HETATM   14  C6  UNL     1      11.557   3.064   1.435  1.00  0.00     0.142 C 
ATOM     15  H4  UNL     1      11.361   1.885   3.274  1.00  0.00     0.162 HD
HETATM   16  C7  UNL     1      10.420   3.874   0.846  1.00  0.00     0.142 C 
HETATM   17  N5  UNL     1       9.786   4.396   2.042  1.00  0.00    -0.360 N 
ATOM     18  H5  UNL     1       9.284   5.278   2.142  1.00  0.00     0.162 HD
ENDBRANCH  10  12
ENDBRANCH   1  10
TORSDOF 5
ENDMDL
