MODEL 1
REMARK VINA RESULT: -4.331597067      0.000      0.000
REMARK  5 active torsions:
REMARK  status: ('A' for Active; 'I' for Inactive)
REMARK    1  A    between atoms: N1_2  and  C2_5 
REMARK    2  A    between atoms: C2_5  and  C3_6 
REMARK    3  A    between atoms: C3_6  and  O1_7 
REMARK    4  A    between atoms: O1_7  and  C4_8 
REMARK    5  A    between atoms: C7_15  and  N4_16 
ROOT
HETATM    1  C4  UNL     1      12.864   5.948   4.579  1.00  0.00     0.253 C 
HETATM    2  N2  UNL     1      14.157   5.603   5.014  1.00  0.00    -0.358 N 
ATOM      3  H2  UNL     1      14.348   4.682   5.409  1.00  0.00     0.162 HD
HETATM    4  C5  UNL     1      15.190   6.569   4.887  1.00  0.00     0.173 C 
HETATM    5  N3  UNL     1      14.833   7.915   5.189  1.00  0.00    -0.384 N 
ATOM      6  H3  UNL     1      15.510   8.677   5.209  1.00  0.00     0.160 HD
HETATM    7  C6  UNL     1      13.432   8.107   5.463  1.00  0.00     0.157 C 
HETATM    8  C7  UNL     1      12.706   7.408   4.334  1.00  0.00     0.249 C 
ENDROOT
BRANCH   1   9
HETATM    9  O1  UNL     1      12.458   5.161   3.506  1.00  0.00    -0.363 OA
BRANCH   9  10
HETATM   10  C3  UNL     1      11.257   4.522   3.673  1.00  0.00     0.198 C 
BRANCH  10  11
HETATM   11  C2  UNL     1      11.262   3.965   5.102  1.00  0.00     0.258 C 
BRANCH  11  12
HETATM   12  N1  UNL     1       9.933   3.557   5.503  1.00  0.00    -0.077 N 
HETATM   13  C1  UNL     1       9.224   2.834   4.477  1.00  0.00     0.267 C 
ATOM     14  H12 UNL     1       9.389   4.358   5.824  1.00  0.00     0.276 HD
ATOM     15  H11 UNL     1       9.966   3.018   6.369  1.00  0.00     0.276 HD
ENDBRANCH  11  12
ENDBRANCH  10  11
ENDBRANCH   9  10
ENDBRANCH   1   9
BRANCH   8  16
HETATM   16  N4  UNL     1      11.328   7.851   4.376  1.00  0.00    -0.069 N 
ATOM     17  H43 UNL     1      10.921   7.678   5.295  1.00  0.00     0.275 HD
ATOM     18  H42 UNL     1      11.275   8.869   4.357  1.00  0.00     0.275 HD
ATOM     19  H41 UNL     1      10.750   7.444   3.640  1.00  0.00     0.275 HD
ENDBRANCH   8  16
TORSDOF 5
ENDMDL
MODEL 2
REMARK VINA RESULT: -4.166586321      0.804      1.012
REMARK  5 active torsions:
REMARK  status: ('A' for Active; 'I' for Inactive)
REMARK    1  A    between atoms: N1_2  and  C2_5 
REMARK    2  A    between atoms: C2_5  and  C3_6 
REMARK    3  A    between atoms: C3_6  and  O1_7 
REMARK    4  A    between atoms: O1_7  and  C4_8 
REMARK    5  A    between atoms: C7_15  and  N4_16 
ROOT
HETATM    1  C4  UNL     1      12.723   6.033   4.563  1.00  0.00     0.253 C 
HETATM    2  N2  UNL     1      13.997   5.616   4.991  1.00  0.00    -0.358 N 
ATOM      3  H2  UNL     1      14.137   4.688   5.391  1.00  0.00     0.162 HD
HETATM    4  C5  UNL     1      15.083   6.520   4.852  1.00  0.00     0.173 C 
HETATM    5  N3  UNL     1      14.806   7.886   5.149  1.00  0.00    -0.384 N 
ATOM      6  H3  UNL     1      15.527   8.608   5.160  1.00  0.00     0.160 HD
HETATM    7  C6  UNL     1      13.421   8.161   5.431  1.00  0.00     0.157 C 
HETATM    8  C7  UNL     1      12.648   7.498   4.311  1.00  0.00     0.249 C 
ENDROOT
BRANCH   1   9
HETATM    9  O1  UNL     1      12.265   5.265   3.498  1.00  0.00    -0.363 OA
BRANCH   9  10
HETATM   10  C3  UNL     1      11.465   4.207   3.842  1.00  0.00     0.198 C 
BRANCH  10  11
HETATM   11  C2  UNL     1      10.391   4.108   2.752  1.00  0.00     0.258 C 
BRANCH  11  12
HETATM   12  N1  UNL     1       9.207   3.442   3.249  1.00  0.00    -0.077 N 
HETATM   13  C1  UNL     1       9.379   2.882   4.567  1.00  0.00     0.267 C 
ATOM     14  H12 UNL     1       8.889   2.730   2.592  1.00  0.00     0.276 HD
ATOM     15  H11 UNL     1       8.401   4.067   3.223  1.00  0.00     0.276 HD
ENDBRANCH  11  12
ENDBRANCH  10  11
ENDBRANCH   9  10
ENDBRANCH   1   9
BRANCH   8  16
HETATM   16  N4  UNL     1      11.299   8.020   4.359  1.00  0.00    -0.069 N 
ATOM     17  H43 UNL     1      10.716   7.584   3.645  1.00  0.00     0.275 HD
ATOM     18  H42 UNL     1      10.814   7.693   5.195  1.00  0.00     0.275 HD
ATOM     19  H41 UNL     1      11.256   9.037   4.291  1.00  0.00     0.275 HD
ENDBRANCH   8  16
TORSDOF 5
ENDMDL
MODEL 3
REMARK VINA RESULT: -4.153662598      1.019      2.114
REMARK  5 active torsions:
REMARK  status: ('A' for Active; 'I' for Inactive)
REMARK    1  A    between atoms: N1_2  and  C2_5 
REMARK    2  A    between atoms: C2_5  and  C3_6 
REMARK    3  A    between atoms: C3_6  and  O1_7 
REMARK    4  A    between atoms: O1_7  and  C4_8 
REMARK    5  A    between atoms: C7_15  and  N4_16 
ROOT
HETATM    1  C4  UNL     1      13.022   5.922   4.578  1.00  0.00     0.253 C 
HETATM    2  N2  UNL     1      12.722   7.293   4.674  1.00  0.00    -0.358 N 
ATOM      3  H2  UNL     1      11.901   7.683   4.211  1.00  0.00     0.162 HD
HETATM    4  C5  UNL     1      13.593   8.121   5.432  1.00  0.00     0.173 C 
HETATM    5  N3  UNL     1      14.986   7.854   5.302  1.00  0.00    -0.384 N 
ATOM      6  H3  UNL     1      15.704   8.434   5.735  1.00  0.00     0.160 HD
HETATM    7  C6  UNL     1      15.294   6.695   4.505  1.00  0.00     0.157 C 
HETATM    8  C7  UNL     1      14.400   5.597   5.038  1.00  0.00     0.249 C 
ENDROOT
BRANCH   1   9
HETATM    9  O1  UNL     1      12.041   5.141   5.180  1.00  0.00    -0.363 OA
BRANCH   9  10
HETATM   10  C3  UNL     1      11.335   4.332   4.329  1.00  0.00     0.198 C 
BRANCH  10  11
HETATM   11  C2  UNL     1      10.768   3.195   5.187  1.00  0.00     0.258 C 
BRANCH  11  12
HETATM   12  N1  UNL     1       9.334   3.319   5.332  1.00  0.00    -0.077 N 
HETATM   13  C1  UNL     1       8.595   2.673   4.275  1.00  0.00     0.267 C 
ATOM     14  H12 UNL     1       9.062   4.299   5.418  1.00  0.00     0.276 HD
ATOM     15  H11 UNL     1       9.032   2.981   6.246  1.00  0.00     0.276 HD
ENDBRANCH  11  12
ENDBRANCH  10  11
ENDBRANCH   9  10
ENDBRANCH   1   9
BRANCH   8  16
HETATM   16  N4  UNL     1      14.901   4.346   4.508  1.00  0.00    -0.069 N 
ATOM     17  H43 UNL     1      15.324   3.784   5.246  1.00  0.00     0.275 HD
ATOM     18  H42 UNL     1      14.132   3.730   4.246  1.00  0.00     0.275 HD
ATOM     19  H41 UNL     1      15.549   4.468   3.729  1.00  0.00     0.275 HD
ENDBRANCH   8  16
TORSDOF 5
ENDMDL
MODEL 4
REMARK VINA RESULT: -4.139187487      1.803      5.035
REMARK  5 active torsions:
REMARK  status: ('A' for Active; 'I' for Inactive)
REMARK    1  A    between atoms: N1_2  and  C2_5 
REMARK    2  A    between atoms: C2_5  and  C3_6 
REMARK    3  A    between atoms: C3_6  and  O1_7 
REMARK    4  A    between atoms: O1_7  and  C4_8 
REMARK    5  A    between atoms: C7_15  and  N4_16 
ROOT
HETATM    1  C4  UNL     1      11.908   3.754   4.860  1.00  0.00     0.253 C 
HETATM    2  N2  UNL     1      12.931   3.003   5.468  1.00  0.00    -0.358 N 
ATOM      3  H2  UNL     1      13.912   3.189   5.257  1.00  0.00     0.162 HD
HETATM    4  C5  UNL     1      12.564   1.981   6.383  1.00  0.00     0.173 C 
HETATM    5  N3  UNL     1      11.424   1.202   6.031  1.00  0.00    -0.384 N 
ATOM      6  H3  UNL     1      11.118   0.393   6.571  1.00  0.00     0.160 HD
HETATM    7  C6  UNL     1      10.741   1.655   4.847  1.00  0.00     0.157 C 
HETATM    8  C7  UNL     1      10.561   3.145   5.038  1.00  0.00     0.249 C 
ENDROOT
BRANCH   1   9
HETATM    9  O1  UNL     1      11.963   5.092   5.236  1.00  0.00    -0.363 OA
BRANCH   9  10
HETATM   10  C3  UNL     1      12.927   5.836   4.608  1.00  0.00     0.198 C 
BRANCH  10  11
HETATM   11  C2  UNL     1      12.360   7.255   4.482  1.00  0.00     0.258 C 
BRANCH  11  12
HETATM   12  N1  UNL     1      13.376   8.246   4.763  1.00  0.00    -0.077 N 
HETATM   13  C1  UNL     1      14.618   7.675   5.223  1.00  0.00     0.267 C 
ATOM     14  H12 UNL     1      13.031   8.942   5.424  1.00  0.00     0.276 HD
ATOM     15  H11 UNL     1      13.531   8.846   3.953  1.00  0.00     0.276 HD
ENDBRANCH  11  12
ENDBRANCH  10  11
ENDBRANCH   9  10
ENDBRANCH   1   9
BRANCH   8  16
HETATM   16  N4  UNL     1       9.598   3.586   4.051  1.00  0.00    -0.069 N 
ATOM     17  H43 UNL     1       9.132   2.789   3.618  1.00  0.00     0.275 HD
ATOM     18  H42 UNL     1       8.795   4.027   4.500  1.00  0.00     0.275 HD
ATOM     19  H41 UNL     1       9.998   4.201   3.341  1.00  0.00     0.275 HD
ENDBRANCH   8  16
TORSDOF 5
ENDMDL
MODEL 5
REMARK VINA RESULT: -4.099766156      1.784      5.331
REMARK  5 active torsions:
REMARK  status: ('A' for Active; 'I' for Inactive)
REMARK    1  A    between atoms: N1_2  and  C2_5 
REMARK    2  A    between atoms: C2_5  and  C3_6 
REMARK    3  A    between atoms: C3_6  and  O1_7 
REMARK    4  A    between atoms: O1_7  and  C4_8 
REMARK    5  A    between atoms: C7_15  and  N4_16 
ROOT
HETATM    1  C4  UNL     1      11.321   3.713   5.823  1.00  0.00     0.253 C 
HETATM    2  N2  UNL     1       9.956   3.682   5.481  1.00  0.00    -0.358 N 
ATOM      3  H2  UNL     1       9.271   4.216   6.014  1.00  0.00     0.162 HD
HETATM    4  C5  UNL     1       9.559   2.888   4.371  1.00  0.00     0.173 C 
HETATM    5  N3  UNL     1      10.204   1.625   4.239  1.00  0.00    -0.384 N 
ATOM      6  H3  UNL     1       9.941   0.941   3.529  1.00  0.00     0.160 HD
HETATM    7  C6  UNL     1      11.258   1.396   5.193  1.00  0.00     0.157 C 
HETATM    8  C7  UNL     1      12.111   2.646   5.150  1.00  0.00     0.249 C 
ENDROOT
BRANCH   1   9
HETATM    9  O1  UNL     1      11.861   4.984   5.661  1.00  0.00    -0.363 OA
BRANCH   9  10
HETATM   10  C3  UNL     1      12.296   5.277   4.395  1.00  0.00     0.198 C 
BRANCH  10  11
HETATM   11  C2  UNL     1      12.362   6.806   4.306  1.00  0.00     0.258 C 
BRANCH  11  12
HETATM   12  N1  UNL     1      13.030   7.365   5.461  1.00  0.00    -0.077 N 
HETATM   13  C1  UNL     1      14.376   7.803   5.186  1.00  0.00     0.267 C 
ATOM     14  H12 UNL     1      13.016   6.707   6.241  1.00  0.00     0.276 HD
ATOM     15  H11 UNL     1      12.479   8.120   5.868  1.00  0.00     0.276 HD
ENDBRANCH  11  12
ENDBRANCH  10  11
ENDBRANCH   9  10
ENDBRANCH   1   9
BRANCH   8  16
HETATM   16  N4  UNL     1      13.352   2.336   5.828  1.00  0.00    -0.069 N 
ATOM     17  H43 UNL     1      13.369   2.752   6.759  1.00  0.00     0.275 HD
ATOM     18  H42 UNL     1      13.388   1.349   6.083  1.00  0.00     0.275 HD
ATOM     19  H41 UNL     1      14.181   2.604   5.297  1.00  0.00     0.275 HD
ENDBRANCH   8  16
TORSDOF 5
ENDMDL
