MODEL 1
REMARK VINA RESULT: -4.892943579      0.000      0.000
REMARK  4 active torsions:
REMARK  status: ('A' for Active; 'I' for Inactive)
REMARK    1  A    between atoms: C2_2  and  N1_3 
REMARK    2  A    between atoms: C2_2  and  O1_7 
REMARK    3  A    between atoms: O1_7  and  C3_8 
REMARK    4  A    between atoms: C3_8  and  N2_9 
ROOT
HETATM    1  N2  UNL     1      13.190   6.309   4.624  1.00  0.00    -0.239 N 
HETATM    2  N3  UNL     1      14.385   6.494   5.139  1.00  0.00    -0.290 N 
ATOM      3  H3  UNL     1      15.049   5.748   5.348  1.00  0.00     0.188 HD
HETATM    4  C4  UNL     1      14.612   7.803   5.351  1.00  0.00     0.200 A 
HETATM    5  N4  UNL     1      13.516   8.490   4.958  1.00  0.00    -0.324 N 
ATOM      6  H4  UNL     1      13.376   9.499   4.991  1.00  0.00     0.169 HD
HETATM    7  C5  UNL     1      12.652   7.562   4.514  1.00  0.00     0.212 A 
HETATM    8  N5  UNL     1      11.368   7.869   4.008  1.00  0.00    -0.062 NA
ENDROOT
BRANCH   1   9
HETATM    9  C3  UNL     1      12.493   5.096   4.232  1.00  0.00     0.322 C 
BRANCH   9  10
HETATM   10  O1  UNL     1      11.703   4.692   5.261  1.00  0.00    -0.338 OA
BRANCH  10  11
HETATM   11  C2  UNL     1      10.945   3.588   5.139  1.00  0.00     0.315 C 
HETATM   12  C1  UNL     1      11.603   2.296   5.563  1.00  0.00     0.070 C 
BRANCH  11  13
HETATM   13  N1  UNL     1       9.696   3.743   5.894  1.00  0.00    -0.053 N 
ATOM     14  H13 UNL     1       9.081   2.934   5.804  1.00  0.00     0.277 HD
ATOM     15  H12 UNL     1       9.840   3.697   6.903  1.00  0.00     0.277 HD
ATOM     16  H11 UNL     1       9.248   4.610   5.600  1.00  0.00     0.277 HD
ENDBRANCH  11  13
ENDBRANCH  10  11
ENDBRANCH   9  10
ENDBRANCH   1   9
TORSDOF 4
ENDMDL
MODEL 2
REMARK VINA RESULT: -4.823167040      0.943      1.798
REMARK  4 active torsions:
REMARK  status: ('A' for Active; 'I' for Inactive)
REMARK    1  A    between atoms: C2_2  and  N1_3 
REMARK    2  A    between atoms: C2_2  and  O1_7 
REMARK    3  A    between atoms: O1_7  and  C3_8 
REMARK    4  A    between atoms: C3_8  and  N2_9 
ROOT
HETATM    1  N2  UNL     1      13.062   6.540   4.599  1.00  0.00    -0.239 N 
HETATM    2  N3  UNL     1      12.748   7.815   4.570  1.00  0.00    -0.290 N 
ATOM      3  H3  UNL     1      11.848   8.184   4.258  1.00  0.00     0.188 HD
HETATM    4  C4  UNL     1      13.774   8.567   5.006  1.00  0.00     0.200 A 
HETATM    5  N4  UNL     1      14.793   7.740   5.330  1.00  0.00    -0.324 N 
ATOM      6  H4  UNL     1      15.710   8.003   5.691  1.00  0.00     0.169 HD
HETATM    7  C5  UNL     1      14.344   6.500   5.076  1.00  0.00     0.212 A 
HETATM    8  N5  UNL     1      15.114   5.333   5.282  1.00  0.00    -0.062 NA
ENDROOT
BRANCH   1   9
HETATM    9  C3  UNL     1      12.305   5.357   4.226  1.00  0.00     0.322 C 
BRANCH   9  10
HETATM   10  O1  UNL     1      11.743   4.825   5.343  1.00  0.00    -0.338 OA
BRANCH  10  11
HETATM   11  C2  UNL     1      11.188   3.601   5.303  1.00  0.00     0.315 C 
HETATM   12  C1  UNL     1      11.952   2.515   6.021  1.00  0.00     0.070 C 
BRANCH  11  13
HETATM   13  N1  UNL     1       9.824   3.645   5.844  1.00  0.00    -0.053 N 
ATOM     14  H13 UNL     1       9.807   3.802   6.852  1.00  0.00     0.277 HD
ATOM     15  H12 UNL     1       9.319   4.485   5.563  1.00  0.00     0.277 HD
ATOM     16  H11 UNL     1       9.342   2.787   5.574  1.00  0.00     0.277 HD
ENDBRANCH  11  13
ENDBRANCH  10  11
ENDBRANCH   9  10
ENDBRANCH   1   9
TORSDOF 4
ENDMDL
MODEL 3
REMARK VINA RESULT: -4.731997187      1.263      2.037
REMARK  4 active torsions:
REMARK  status: ('A' for Active; 'I' for Inactive)
REMARK    1  A    between atoms: C2_2  and  N1_3 
REMARK    2  A    between atoms: C2_2  and  O1_7 
REMARK    3  A    between atoms: O1_7  and  C3_8 
REMARK    4  A    between atoms: C3_8  and  N2_9 
ROOT
HETATM    1  N2  UNL     1      13.042   6.440   4.689  1.00  0.00    -0.239 N 
HETATM    2  N3  UNL     1      12.681   7.700   4.588  1.00  0.00    -0.290 N 
ATOM      3  H3  UNL     1      11.756   8.018   4.299  1.00  0.00     0.188 HD
HETATM    4  C4  UNL     1      13.702   8.513   4.917  1.00  0.00     0.200 A 
HETATM    5  N4  UNL     1      14.764   7.744   5.244  1.00  0.00    -0.324 N 
ATOM      6  H4  UNL     1      15.688   8.060   5.538  1.00  0.00     0.169 HD
HETATM    7  C5  UNL     1      14.346   6.475   5.100  1.00  0.00     0.212 A 
HETATM    8  N5  UNL     1      15.166   5.350   5.347  1.00  0.00    -0.062 NA
ENDROOT
BRANCH   1   9
HETATM    9  C3  UNL     1      12.309   5.211   4.439  1.00  0.00     0.322 C 
BRANCH   9  10
HETATM   10  O1  UNL     1      11.742   4.793   5.601  1.00  0.00    -0.338 OA
BRANCH  10  11
HETATM   11  C2  UNL     1      10.991   3.678   5.625  1.00  0.00     0.315 C 
HETATM   12  C1  UNL     1      10.390   3.268   4.302  1.00  0.00     0.070 C 
BRANCH  11  13
HETATM   13  N1  UNL     1      11.772   2.552   6.149  1.00  0.00    -0.053 N 
ATOM     14  H13 UNL     1      12.754   2.788   6.294  1.00  0.00     0.277 HD
ATOM     15  H12 UNL     1      11.538   2.331   7.117  1.00  0.00     0.277 HD
ATOM     16  H11 UNL     1      11.649   1.755   5.524  1.00  0.00     0.277 HD
ENDBRANCH  11  13
ENDBRANCH  10  11
ENDBRANCH   9  10
ENDBRANCH   1   9
TORSDOF 4
ENDMDL
MODEL 4
REMARK VINA RESULT: -4.609633694      1.675      4.880
REMARK  4 active torsions:
REMARK  status: ('A' for Active; 'I' for Inactive)
REMARK    1  A    between atoms: C2_2  and  N1_3 
REMARK    2  A    between atoms: C2_2  and  O1_7 
REMARK    3  A    between atoms: O1_7  and  C3_8 
REMARK    4  A    between atoms: C3_8  and  N2_9 
ROOT
HETATM    1  N2  UNL     1      11.697   4.175   4.769  1.00  0.00    -0.239 N 
HETATM    2  N3  UNL     1      10.524   4.071   4.185  1.00  0.00    -0.290 N 
ATOM      3  H3  UNL     1      10.158   4.729   3.496  1.00  0.00     0.188 HD
HETATM    4  C4  UNL     1       9.873   2.977   4.621  1.00  0.00     0.200 A 
HETATM    5  N4  UNL     1      10.660   2.351   5.524  1.00  0.00    -0.324 N 
ATOM      6  H4  UNL     1      10.451   1.495   6.036  1.00  0.00     0.169 HD
HETATM    7  C5  UNL     1      11.776   3.096   5.605  1.00  0.00     0.212 A 
HETATM    8  N5  UNL     1      12.865   2.782   6.450  1.00  0.00    -0.062 NA
ENDROOT
BRANCH   1   9
HETATM    9  C3  UNL     1      12.747   5.171   4.638  1.00  0.00     0.322 C 
BRANCH   9  10
HETATM   10  O1  UNL     1      12.564   6.129   5.586  1.00  0.00    -0.338 OA
BRANCH  10  11
HETATM   11  C2  UNL     1      12.965   7.391   5.359  1.00  0.00     0.315 C 
HETATM   12  C1  UNL     1      14.451   7.578   5.162  1.00  0.00     0.070 C 
BRANCH  11  13
HETATM   13  N1  UNL     1      12.269   7.943   4.191  1.00  0.00    -0.053 N 
ATOM     14  H13 UNL     1      11.621   8.690   4.438  1.00  0.00     0.277 HD
ATOM     15  H12 UNL     1      12.887   8.487   3.588  1.00  0.00     0.277 HD
ATOM     16  H11 UNL     1      11.813   7.177   3.696  1.00  0.00     0.277 HD
ENDBRANCH  11  13
ENDBRANCH  10  11
ENDBRANCH   9  10
ENDBRANCH   1   9
TORSDOF 4
ENDMDL
MODEL 5
REMARK VINA RESULT: -4.534790263      1.607      1.686
REMARK  4 active torsions:
REMARK  status: ('A' for Active; 'I' for Inactive)
REMARK    1  A    between atoms: C2_2  and  N1_3 
REMARK    2  A    between atoms: C2_2  and  O1_7 
REMARK    3  A    between atoms: O1_7  and  C3_8 
REMARK    4  A    between atoms: C3_8  and  N2_9 
ROOT
HETATM    1  N2  UNL     1      13.133   6.236   4.736  1.00  0.00    -0.239 N 
HETATM    2  N3  UNL     1      14.352   6.436   5.185  1.00  0.00    -0.290 N 
ATOM      3  H3  UNL     1      14.998   5.696   5.462  1.00  0.00     0.188 HD
HETATM    4  C4  UNL     1      14.630   7.752   5.230  1.00  0.00     0.200 A 
HETATM    5  N4  UNL     1      13.544   8.427   4.791  1.00  0.00    -0.324 N 
ATOM      6  H4  UNL     1      13.439   9.437   4.706  1.00  0.00     0.169 HD
HETATM    7  C5  UNL     1      12.634   7.485   4.491  1.00  0.00     0.212 A 
HETATM    8  N5  UNL     1      11.344   7.778   3.994  1.00  0.00    -0.062 NA
ENDROOT
BRANCH   1   9
HETATM    9  C3  UNL     1      12.382   5.012   4.516  1.00  0.00     0.322 C 
BRANCH   9  10
HETATM   10  O1  UNL     1      12.563   4.610   3.231  1.00  0.00    -0.338 OA
BRANCH  10  11
HETATM   11  C2  UNL     1      11.543   4.070   2.541  1.00  0.00     0.315 C 
HETATM   12  C1  UNL     1      11.300   2.599   2.779  1.00  0.00     0.070 C 
BRANCH  11  13
HETATM   13  N1  UNL     1      10.300   4.798   2.820  1.00  0.00    -0.053 N 
ATOM     14  H13 UNL     1       9.655   4.791   2.030  1.00  0.00     0.277 HD
ATOM     15  H12 UNL     1       9.704   4.312   3.490  1.00  0.00     0.277 HD
ATOM     16  H11 UNL     1      10.539   5.743   3.121  1.00  0.00     0.277 HD
ENDBRANCH  11  13
ENDBRANCH  10  11
ENDBRANCH   9  10
ENDBRANCH   1   9
TORSDOF 4
ENDMDL
