MODEL 1
REMARK VINA RESULT: -8.222249310      0.000      0.000
REMARK  8 active torsions:
REMARK  status: ('A' for Active; 'I' for Inactive)
REMARK    1  A    between atoms: C2_3  and  O1_4 
REMARK    2  A    between atoms: C4_11  and  N4_12 
REMARK    3  A    between atoms: C5_17  and  N6_18 
REMARK    4  A    between atoms: N6_18  and  C6_20 
REMARK    5  A    between atoms: C6_20  and  C7_21 
REMARK    6  A    between atoms: C7_21  and  O2_22 
REMARK    7  A    between atoms: C7_21  and  C8_24 
REMARK    8  A    between atoms: C8_24  and  N7_25 
ROOT
HETATM    1  C1  UNL     1      40.164  33.112  34.812  1.00  0.00     0.163 C 
HETATM    2  N1  UNL     1      39.954  34.243  35.706  1.00  0.00    -0.283 N 
HETATM    3  C2  UNL     1      40.289  34.223  37.001  1.00  0.00     0.227 A 
HETATM    4  N2  UNL     1      40.113  35.240  37.854  1.00  0.00    -0.307 N 
ATOM      5  H2  UNL     1      40.396  35.148  38.830  1.00  0.00     0.171 HD
HETATM    6  C3  UNL     1      39.554  36.397  37.408  1.00  0.00     0.143 A 
HETATM    7  N3  UNL     1      39.349  37.450  38.206  1.00  0.00    -0.176 N 
ATOM      8  H3  UNL     1      39.621  37.386  39.187  1.00  0.00     0.186 HD
HETATM    9  C4  UNL     1      38.797  38.586  37.755  1.00  0.00     0.679 A 
HETATM   10  N5  UNL     1      38.449  38.639  36.459  1.00  0.00    -0.176 N 
ATOM     11  H5  UNL     1      38.030  39.506  36.123  1.00  0.00     0.186 HD
HETATM   12  C5  UNL     1      38.607  37.645  35.568  1.00  0.00     0.140 A 
HETATM   13  C9  UNL     1      39.192  36.468  36.083  1.00  0.00     0.121 A 
HETATM   14  C10 UNL     1      39.391  35.396  35.239  1.00  0.00     0.268 A 
HETATM   15  O3  UNL     1      39.060  35.467  34.037  1.00  0.00    -0.267 OA
ENDROOT
BRANCH  12  16
HETATM   16  N6  UNL     1      38.315  37.615  34.368  1.00  0.00    -0.352 N 
ATOM     17  H6  UNL     1      37.918  36.701  34.153  1.00  0.00     0.166 HD
BRANCH  16  18
HETATM   18  C6  UNL     1      38.332  38.370  33.214  1.00  0.00     0.096 C 
BRANCH  18  19
HETATM   19  C7  UNL     1      37.594  37.890  32.007  1.00  0.00     0.178 C 
BRANCH  19  20
HETATM   20  O2  UNL     1      36.760  36.832  32.429  1.00  0.00    -0.389 OA
ATOM     21  H2  UNL     1      36.837  36.142  31.779  1.00  0.00     0.210 HD
ENDBRANCH  19  20
BRANCH  19  22
HETATM   22  C8  UNL     1      36.575  38.962  31.554  1.00  0.00     0.209 C 
BRANCH  22  23
HETATM   23  N7  UNL     1      35.424  38.320  31.008  1.00  0.00    -0.200 N 
HETATM   24  N8  UNL     1      34.153  38.545  31.349  1.00  0.00    -0.209 N 
HETATM   25  N9  UNL     1      33.344  37.782  30.640  1.00  0.00    -0.211 N 
ATOM     26  H8  UNL     1      33.850  39.212  32.057  1.00  0.00     0.211 HD
HETATM   27  N10 UNL     1      34.115  37.072  29.848  1.00  0.00    -0.211 N 
ATOM     28  H9  UNL     1      32.326  37.750  30.695  1.00  0.00     0.211 HD
HETATM   29  N11 UNL     1      35.366  37.389  30.063  1.00  0.00    -0.209 N 
ATOM     30  H10 UNL     1      33.789  36.382  29.171  1.00  0.00     0.211 HD
ATOM     31  H11 UNL     1      36.169  36.986  29.581  1.00  0.00     0.211 HD
ENDBRANCH  22  23
ENDBRANCH  19  22
ENDBRANCH  18  19
ENDBRANCH  16  18
ENDBRANCH  12  16
BRANCH   9  32
HETATM   32  N4  UNL     1      38.602  39.612  38.545  1.00  0.00    -0.234 N 
ATOM     33  H42 UNL     1      38.499  39.485  39.552  1.00  0.00     0.174 HD
ATOM     34  H41 UNL     1      38.547  40.563  38.180  1.00  0.00     0.174 HD
ENDBRANCH   9  32
BRANCH   3  35
HETATM   35  O1  UNL     1      40.865  33.046  37.480  1.00  0.00    -0.332 OA
ATOM     36  H1  UNL     1      41.534  33.140  38.148  1.00  0.00     0.221 HD
ENDBRANCH   3  35
TORSDOF 8
ENDMDL
MODEL 2
REMARK VINA RESULT: -7.781890793      4.517      6.496
REMARK  8 active torsions:
REMARK  status: ('A' for Active; 'I' for Inactive)
REMARK    1  A    between atoms: C2_3  and  O1_4 
REMARK    2  A    between atoms: C4_11  and  N4_12 
REMARK    3  A    between atoms: C5_17  and  N6_18 
REMARK    4  A    between atoms: N6_18  and  C6_20 
REMARK    5  A    between atoms: C6_20  and  C7_21 
REMARK    6  A    between atoms: C7_21  and  O2_22 
REMARK    7  A    between atoms: C7_21  and  C8_24 
REMARK    8  A    between atoms: C8_24  and  N7_25 
ROOT
HETATM    1  C1  UNL     1      43.807  39.687  33.638  1.00  0.00     0.163 C 
HETATM    2  N1  UNL     1      43.583  40.033  35.034  1.00  0.00    -0.283 N 
HETATM    3  C2  UNL     1      44.526  40.576  35.813  1.00  0.00     0.227 A 
HETATM    4  N2  UNL     1      44.361  40.909  37.100  1.00  0.00    -0.307 N 
ATOM      5  H2  UNL     1      45.130  41.320  37.628  1.00  0.00     0.171 HD
HETATM    6  C3  UNL     1      43.157  40.694  37.695  1.00  0.00     0.143 A 
HETATM    7  N3  UNL     1      42.924  41.002  38.975  1.00  0.00    -0.176 N 
ATOM      8  H3  UNL     1      43.675  41.413  39.529  1.00  0.00     0.186 HD
HETATM    9  C4  UNL     1      41.733  40.785  39.552  1.00  0.00     0.679 A 
HETATM   10  N5  UNL     1      40.764  40.242  38.798  1.00  0.00    -0.176 N 
ATOM     11  H5  UNL     1      39.860  40.079  39.243  1.00  0.00     0.186 HD
HETATM   12  C5  UNL     1      40.885  39.893  37.505  1.00  0.00     0.140 A 
HETATM   13  C9  UNL     1      42.154  40.138  36.937  1.00  0.00     0.121 A 
HETATM   14  C10 UNL     1      42.368  39.810  35.615  1.00  0.00     0.268 A 
HETATM   15  O3  UNL     1      41.452  39.305  34.932  1.00  0.00    -0.267 OA
ENDROOT
BRANCH  12  16
HETATM   16  N6  UNL     1      40.048  39.391  36.748  1.00  0.00    -0.352 N 
ATOM     17  H6  UNL     1      40.175  39.786  35.816  1.00  0.00     0.166 HD
BRANCH  16  18
HETATM   18  C6  UNL     1      39.004  38.491  36.705  1.00  0.00     0.096 C 
BRANCH  18  19
HETATM   19  C7  UNL     1      39.090  37.305  35.801  1.00  0.00     0.178 C 
BRANCH  19  20
HETATM   20  O2  UNL     1      40.437  36.882  35.802  1.00  0.00    -0.389 OA
ATOM     21  H2  UNL     1      40.965  37.639  36.029  1.00  0.00     0.210 HD
ENDBRANCH  19  20
BRANCH  19  22
HETATM   22  C8  UNL     1      38.358  36.102  36.442  1.00  0.00     0.209 C 
BRANCH  22  23
HETATM   23  N7  UNL     1      39.264  35.004  36.557  1.00  0.00    -0.200 N 
HETATM   24  N8  UNL     1      39.893  34.607  37.666  1.00  0.00    -0.209 N 
HETATM   25  N9  UNL     1      40.648  33.557  37.416  1.00  0.00    -0.211 N 
ATOM     26  H8  UNL     1      39.801  35.054  38.578  1.00  0.00     0.211 HD
HETATM   27  N10 UNL     1      40.491  33.292  36.138  1.00  0.00    -0.211 N 
ATOM     28  H9  UNL     1      41.235  33.051  38.079  1.00  0.00     0.211 HD
HETATM   29  N11 UNL     1      39.661  34.158  35.615  1.00  0.00    -0.209 N 
ATOM     30  H10 UNL     1      40.946  32.532  35.634  1.00  0.00     0.211 HD
ATOM     31  H11 UNL     1      39.367  34.179  34.639  1.00  0.00     0.211 HD
ENDBRANCH  22  23
ENDBRANCH  19  22
ENDBRANCH  18  19
ENDBRANCH  16  18
ENDBRANCH  12  16
BRANCH   9  32
HETATM   32  N4  UNL     1      41.515  41.092  40.807  1.00  0.00    -0.234 N 
ATOM     33  H42 UNL     1      41.009  41.941  41.058  1.00  0.00     0.174 HD
ATOM     34  H41 UNL     1      41.842  40.493  41.566  1.00  0.00     0.174 HD
ENDBRANCH   9  32
BRANCH   3  35
HETATM   35  O1  UNL     1      45.770  40.806  35.222  1.00  0.00    -0.332 OA
ATOM     36  H1  UNL     1      46.043  41.713  35.146  1.00  0.00     0.221 HD
ENDBRANCH   3  35
TORSDOF 8
ENDMDL
MODEL 3
REMARK VINA RESULT: -7.531426442      4.566      7.518
REMARK  8 active torsions:
REMARK  status: ('A' for Active; 'I' for Inactive)
REMARK    1  A    between atoms: C2_3  and  O1_4 
REMARK    2  A    between atoms: C4_11  and  N4_12 
REMARK    3  A    between atoms: C5_17  and  N6_18 
REMARK    4  A    between atoms: N6_18  and  C6_20 
REMARK    5  A    between atoms: C6_20  and  C7_21 
REMARK    6  A    between atoms: C7_21  and  O2_22 
REMARK    7  A    between atoms: C7_21  and  C8_24 
REMARK    8  A    between atoms: C8_24  and  N7_25 
ROOT
HETATM    1  C1  UNL     1      39.473  43.976  34.347  1.00  0.00     0.163 C 
HETATM    2  N1  UNL     1      38.501  43.433  35.285  1.00  0.00    -0.283 N 
HETATM    3  C2  UNL     1      37.427  44.114  35.701  1.00  0.00     0.227 A 
HETATM    4  N2  UNL     1      36.510  43.650  36.561  1.00  0.00    -0.307 N 
ATOM      5  H2  UNL     1      35.717  44.232  36.830  1.00  0.00     0.171 HD
HETATM    6  C3  UNL     1      36.648  42.397  37.071  1.00  0.00     0.143 A 
HETATM    7  N3  UNL     1      35.771  41.874  37.933  1.00  0.00    -0.176 N 
ATOM      8  H3  UNL     1      34.968  42.432  38.222  1.00  0.00     0.186 HD
HETATM    9  C4  UNL     1      35.915  40.636  38.430  1.00  0.00     0.679 A 
HETATM   10  N5  UNL     1      36.983  39.926  38.033  1.00  0.00    -0.176 N 
ATOM     11  H5  UNL     1      37.087  38.985  38.415  1.00  0.00     0.186 HD
HETATM   12  C5  UNL     1      37.926  40.349  37.174  1.00  0.00     0.140 A 
HETATM   13  C9  UNL     1      37.735  41.656  36.674  1.00  0.00     0.121 A 
HETATM   14  C10 UNL     1      38.655  42.172  35.787  1.00  0.00     0.268 A 
HETATM   15  O3  UNL     1      39.642  41.494  35.430  1.00  0.00    -0.267 OA
ENDROOT
BRANCH  12  16
HETATM   16  N6  UNL     1      38.930  39.761  36.761  1.00  0.00    -0.352 N 
ATOM     17  H6  UNL     1      39.148  40.106  35.826  1.00  0.00     0.166 HD
BRANCH  16  18
HETATM   18  C6  UNL     1      39.864  38.806  37.105  1.00  0.00     0.096 C 
BRANCH  18  19
HETATM   19  C7  UNL     1      39.978  37.558  36.293  1.00  0.00     0.178 C 
BRANCH  19  20
HETATM   20  O2  UNL     1      41.206  36.952  36.637  1.00  0.00    -0.389 OA
ATOM     21  H2  UNL     1      41.008  36.254  37.251  1.00  0.00     0.210 HD
ENDBRANCH  19  20
BRANCH  19  22
HETATM   22  C8  UNL     1      38.941  36.518  36.779  1.00  0.00     0.209 C 
BRANCH  22  23
HETATM   23  N7  UNL     1      39.538  35.222  36.786  1.00  0.00    -0.200 N 
HETATM   24  N8  UNL     1      40.044  34.588  37.846  1.00  0.00    -0.209 N 
HETATM   25  N9  UNL     1      40.508  33.405  37.496  1.00  0.00    -0.211 N 
ATOM     26  H8  UNL     1      40.068  34.965  38.793  1.00  0.00     0.211 HD
HETATM   27  N10 UNL     1      40.291  33.296  36.205  1.00  0.00    -0.211 N 
ATOM     28  H9  UNL     1      40.947  32.713  38.104  1.00  0.00     0.211 HD
HETATM   29  N11 UNL     1      39.708  34.385  35.771  1.00  0.00    -0.209 N 
ATOM     30  H10 UNL     1      40.538  32.491  35.631  1.00  0.00     0.211 HD
ATOM     31  H11 UNL     1      39.429  34.561  34.806  1.00  0.00     0.211 HD
ENDBRANCH  22  23
ENDBRANCH  19  22
ENDBRANCH  18  19
ENDBRANCH  16  18
ENDBRANCH  12  16
BRANCH   9  32
HETATM   32  N4  UNL     1      35.049  40.132  39.274  1.00  0.00    -0.234 N 
ATOM     33  H42 UNL     1      34.128  40.553  39.391  1.00  0.00     0.174 HD
ATOM     34  H41 UNL     1      35.270  39.309  39.835  1.00  0.00     0.174 HD
ENDBRANCH   9  32
BRANCH   3  35
HETATM   35  O1  UNL     1      37.266  45.402  35.189  1.00  0.00    -0.332 OA
ATOM     36  H1  UNL     1      37.218  45.482  34.244  1.00  0.00     0.221 HD
ENDBRANCH   3  35
TORSDOF 8
ENDMDL
MODEL 4
REMARK VINA RESULT: -7.445057195      2.734      4.679
REMARK  8 active torsions:
REMARK  status: ('A' for Active; 'I' for Inactive)
REMARK    1  A    between atoms: C2_3  and  O1_4 
REMARK    2  A    between atoms: C4_11  and  N4_12 
REMARK    3  A    between atoms: C5_17  and  N6_18 
REMARK    4  A    between atoms: N6_18  and  C6_20 
REMARK    5  A    between atoms: C6_20  and  C7_21 
REMARK    6  A    between atoms: C7_21  and  O2_22 
REMARK    7  A    between atoms: C7_21  and  C8_24 
REMARK    8  A    between atoms: C8_24  and  N7_25 
ROOT
HETATM    1  C1  UNL     1      40.425  33.023  34.981  1.00  0.00     0.163 C 
HETATM    2  N1  UNL     1      40.124  34.182  35.809  1.00  0.00    -0.283 N 
HETATM    3  C2  UNL     1      40.349  34.217  37.127  1.00  0.00     0.227 A 
HETATM    4  N2  UNL     1      40.087  35.262  37.923  1.00  0.00    -0.307 N 
ATOM      5  H2  UNL     1      40.288  35.211  38.922  1.00  0.00     0.171 HD
HETATM    6  C3  UNL     1      39.552  36.391  37.386  1.00  0.00     0.143 A 
HETATM    7  N3  UNL     1      39.266  37.469  38.123  1.00  0.00    -0.176 N 
ATOM      8  H3  UNL     1      39.454  37.448  39.125  1.00  0.00     0.186 HD
HETATM    9  C4  UNL     1      38.738  38.578  37.583  1.00  0.00     0.679 A 
HETATM   10  N5  UNL     1      38.500  38.577  36.262  1.00  0.00    -0.176 N 
ATOM     11  H5  UNL     1      38.098  39.423  35.858  1.00  0.00     0.186 HD
HETATM   12  C5  UNL     1      38.747  37.553  35.427  1.00  0.00     0.140 A 
HETATM   13  C9  UNL     1      39.302  36.406  36.035  1.00  0.00     0.121 A 
HETATM   14  C10 UNL     1      39.587  35.307  35.252  1.00  0.00     0.268 A 
HETATM   15  O3  UNL     1      39.357  35.327  34.025  1.00  0.00    -0.267 OA
ENDROOT
BRANCH  12  16
HETATM   16  N6  UNL     1      38.558  37.473  34.208  1.00  0.00    -0.352 N 
ATOM     17  H6  UNL     1      37.934  36.687  34.027  1.00  0.00     0.166 HD
BRANCH  16  18
HETATM   18  C6  UNL     1      38.883  38.063  33.005  1.00  0.00     0.096 C 
BRANCH  18  19
HETATM   19  C7  UNL     1      40.314  38.351  32.688  1.00  0.00     0.178 C 
BRANCH  19  20
HETATM   20  O2  UNL     1      40.388  38.595  31.299  1.00  0.00    -0.389 OA
ATOM     21  H2  UNL     1      41.307  38.707  31.086  1.00  0.00     0.210 HD
ENDBRANCH  19  20
BRANCH  19  22
HETATM   22  C8  UNL     1      40.721  39.716  33.292  1.00  0.00     0.209 C 
BRANCH  22  23
HETATM   23  N7  UNL     1      42.064  39.642  33.769  1.00  0.00    -0.200 N 
HETATM   24  N8  UNL     1      43.149  39.364  33.043  1.00  0.00    -0.209 N 
HETATM   25  N9  UNL     1      44.227  39.385  33.801  1.00  0.00    -0.211 N 
ATOM     26  H8  UNL     1      43.145  39.165  32.044  1.00  0.00     0.211 HD
HETATM   27  N10 UNL     1      43.814  39.678  35.013  1.00  0.00    -0.211 N 
ATOM     28  H9  UNL     1      45.188  39.209  33.506  1.00  0.00     0.211 HD
HETATM   29  N11 UNL     1      42.515  39.833  35.002  1.00  0.00    -0.209 N 
ATOM     30  H10 UNL     1      44.412  39.769  35.834  1.00  0.00     0.211 HD
ATOM     31  H11 UNL     1      41.941  40.065  35.813  1.00  0.00     0.211 HD
ENDBRANCH  22  23
ENDBRANCH  19  22
ENDBRANCH  18  19
ENDBRANCH  16  18
ENDBRANCH  12  16
BRANCH   9  32
HETATM   32  N4  UNL     1      38.462  39.630  38.314  1.00  0.00    -0.234 N 
ATOM     33  H42 UNL     1      38.810  39.709  39.270  1.00  0.00     0.174 HD
ATOM     34  H41 UNL     1      37.896  40.397  37.951  1.00  0.00     0.174 HD
ENDBRANCH   9  32
BRANCH   3  35
HETATM   35  O1  UNL     1      40.899  33.068  37.699  1.00  0.00    -0.332 OA
ATOM     36  H1  UNL     1      40.542  32.796  38.536  1.00  0.00     0.221 HD
ENDBRANCH   3  35
TORSDOF 8
ENDMDL
MODEL 5
REMARK VINA RESULT: -7.438176168      2.539      3.311
REMARK  8 active torsions:
REMARK  status: ('A' for Active; 'I' for Inactive)
REMARK    1  A    between atoms: C2_3  and  O1_4 
REMARK    2  A    between atoms: C4_11  and  N4_12 
REMARK    3  A    between atoms: C5_17  and  N6_18 
REMARK    4  A    between atoms: N6_18  and  C6_20 
REMARK    5  A    between atoms: C6_20  and  C7_21 
REMARK    6  A    between atoms: C7_21  and  O2_22 
REMARK    7  A    between atoms: C7_21  and  C8_24 
REMARK    8  A    between atoms: C8_24  and  N7_25 
ROOT
HETATM    1  C1  UNL     1      39.999  32.862  35.028  1.00  0.00     0.163 C 
HETATM    2  N1  UNL     1      39.837  34.075  35.816  1.00  0.00    -0.283 N 
HETATM    3  C2  UNL     1      40.286  34.198  37.070  1.00  0.00     0.227 A 
HETATM    4  N2  UNL     1      40.158  35.295  37.828  1.00  0.00    -0.307 N 
ATOM      5  H2  UNL     1      40.528  35.310  38.778  1.00  0.00     0.171 HD
HETATM    6  C3  UNL     1      39.530  36.388  37.318  1.00  0.00     0.143 A 
HETATM    7  N3  UNL     1      39.367  37.514  38.019  1.00  0.00    -0.176 N 
ATOM      8  H3  UNL     1      39.726  37.559  38.973  1.00  0.00     0.186 HD
HETATM    9  C4  UNL     1      38.746  38.587  37.506  1.00  0.00     0.679 A 
HETATM   10  N5  UNL     1      38.283  38.498  36.249  1.00  0.00    -0.176 N 
ATOM     11  H5  UNL     1      37.811  39.316  35.865  1.00  0.00     0.186 HD
HETATM   12  C5  UNL     1      38.390  37.419  35.454  1.00  0.00     0.140 A 
HETATM   13  C9  UNL     1      39.050  36.313  36.032  1.00  0.00     0.121 A 
HETATM   14  C10 UNL     1      39.204  35.163  35.287  1.00  0.00     0.268 A 
HETATM   15  O3  UNL     1      38.765  35.102  34.119  1.00  0.00    -0.267 OA
ENDROOT
BRANCH  12  16
HETATM   16  N6  UNL     1      37.994  37.259  34.294  1.00  0.00    -0.352 N 
ATOM     17  H6  UNL     1      38.105  36.276  34.046  1.00  0.00     0.166 HD
BRANCH  16  18
HETATM   18  C6  UNL     1      37.456  37.927  33.214  1.00  0.00     0.096 C 
BRANCH  18  19
HETATM   19  C7  UNL     1      38.019  39.250  32.810  1.00  0.00     0.178 C 
BRANCH  19  20
HETATM   20  O2  UNL     1      38.106  39.248  31.401  1.00  0.00    -0.389 OA
ATOM     21  H2  UNL     1      38.855  39.786  31.169  1.00  0.00     0.210 HD
ENDBRANCH  19  20
BRANCH  19  22
HETATM   22  C8  UNL     1      36.984  40.367  33.082  1.00  0.00     0.209 C 
BRANCH  22  23
HETATM   23  N7  UNL     1      37.391  41.121  34.223  1.00  0.00    -0.200 N 
HETATM   24  N8  UNL     1      36.610  41.524  35.228  1.00  0.00    -0.209 N 
HETATM   25  N9  UNL     1      37.314  42.193  36.119  1.00  0.00    -0.211 N 
ATOM     26  H8  UNL     1      35.610  41.339  35.297  1.00  0.00     0.211 HD
HETATM   27  N10 UNL     1      38.547  42.211  35.668  1.00  0.00    -0.211 N 
ATOM     28  H9  UNL     1      36.970  42.613  36.983  1.00  0.00     0.211 HD
HETATM   29  N11 UNL     1      38.602  41.569  34.529  1.00  0.00    -0.209 N 
ATOM     30  H10 UNL     1      39.339  42.656  36.133  1.00  0.00     0.211 HD
ATOM     31  H11 UNL     1      39.442  41.435  33.966  1.00  0.00     0.211 HD
ENDBRANCH  22  23
ENDBRANCH  19  22
ENDBRANCH  18  19
ENDBRANCH  16  18
ENDBRANCH  12  16
BRANCH   9  32
HETATM   32  N4  UNL     1      38.592  39.686  38.202  1.00  0.00    -0.234 N 
ATOM     33  H42 UNL     1      37.756  40.260  38.095  1.00  0.00     0.174 HD
ATOM     34  H41 UNL     1      39.300  40.000  38.866  1.00  0.00     0.174 HD
ENDBRANCH   9  32
BRANCH   3  35
HETATM   35  O1  UNL     1      40.935  33.087  37.614  1.00  0.00    -0.332 OA
ATOM     36  H1  UNL     1      41.048  33.080  38.557  1.00  0.00     0.221 HD
ENDBRANCH   3  35
TORSDOF 8
ENDMDL
