MODEL 1
REMARK VINA RESULT: -7.712335534      0.000      0.000
REMARK  12 active torsions:
REMARK  status: ('A' for Active; 'I' for Inactive)
REMARK    1  A    between atoms: N1_1  and  C1_5 
REMARK    2  A    between atoms: C1_5  and  C2_6 
REMARK    3  A    between atoms: C2_6  and  N2_7 
REMARK    4  A    between atoms: N2_7  and  C3_10 
REMARK    5  A    between atoms: C3_10  and  C4_11 
REMARK    6  A    between atoms: C4_11  and  C5_12 
REMARK    7  A    between atoms: C5_12  and  N3_13 
REMARK    8  A    between atoms: C7_18  and  N5_19 
REMARK    9  A    between atoms: C8_27  and  N8_28 
REMARK   10  A    between atoms: N9_30  and  N10_32 
REMARK   11  A    between atoms: N10_32  and  N11_33 
REMARK   12  A    between atoms: N10_32  and  O1_36 
ROOT
HETATM    1  N3  UNL     1      18.011  10.812  28.577  1.00  0.00    -0.373 N 
ATOM      2  H3  UNL     1      18.780  10.442  28.019  1.00  0.00     0.161 HD
HETATM    3  C6  UNL     1      17.524  10.000  29.415  1.00  0.00     0.147 C 
HETATM    4  N4  UNL     1      16.449  10.354  30.267  1.00  0.00    -0.329 N 
ATOM      5  H4  UNL     1      16.188  11.336  30.354  1.00  0.00     0.165 HD
HETATM    6  C7  UNL     1      15.705   9.351  31.025  1.00  0.00     0.402 C 
HETATM    7  N6  UNL     1      16.512   8.200  31.288  1.00  0.00    -0.288 N 
ATOM      8  H6  UNL     1      16.311   7.621  32.103  1.00  0.00     0.184 HD
HETATM    9  N7  UNL     1      17.583   7.854  30.435  1.00  0.00    -0.282 N 
ATOM     10  H7  UNL     1      17.979   6.919  30.523  1.00  0.00     0.188 HD
HETATM   11  C8  UNL     1      18.088   8.635  29.559  1.00  0.00     0.180 C 
ENDROOT
BRANCH   1  12
HETATM   12  C5  UNL     1      17.656  12.162  28.287  1.00  0.00     0.123 C 
BRANCH  12  13
HETATM   13  C4  UNL     1      16.472  12.071  27.266  1.00  0.00     0.047 C 
BRANCH  13  14
HETATM   14  C3  UNL     1      16.947  12.924  26.116  1.00  0.00     0.234 C 
BRANCH  14  15
HETATM   15  N2  UNL     1      15.873  13.446  25.368  1.00  0.00    -0.073 N 
ATOM     16  H22 UNL     1      15.005  13.403  25.902  1.00  0.00     0.277 HD
ATOM     17  H21 UNL     1      15.630  12.822  24.599  1.00  0.00     0.277 HD
BRANCH  15  18
HETATM   18  C2  UNL     1      16.113  14.799  24.878  1.00  0.00     0.259 C 
BRANCH  18  19
HETATM   19  C1  UNL     1      16.091  14.746  23.368  1.00  0.00     0.257 C 
BRANCH  19  20
HETATM   20  N1  UNL     1      15.741  16.030  22.788  1.00  0.00    -0.078 N 
ATOM     21  H13 UNL     1      14.730  16.150  22.735  1.00  0.00     0.274 HD
ATOM     22  H12 UNL     1      15.960  16.797  23.425  1.00  0.00     0.274 HD
ATOM     23  H11 UNL     1      16.180  16.167  21.878  1.00  0.00     0.274 HD
ENDBRANCH  19  20
ENDBRANCH  18  19
ENDBRANCH  15  18
ENDBRANCH  14  15
ENDBRANCH  13  14
ENDBRANCH  12  13
ENDBRANCH   1  12
BRANCH  11  24
HETATM   24  N8  UNL     1      19.146   8.246  28.753  1.00  0.00    -0.264 N 
HETATM   25  N9  UNL     1      20.359   8.156  28.949  1.00  0.00    -0.199 N 
ATOM     26  H9  UNL     1      20.897   7.833  28.145  1.00  0.00     0.212 HD
ATOM     27  H8  UNL     1      18.864   7.982  27.809  1.00  0.00     0.190 HD
BRANCH  25  28
HETATM   28  N10 UNL     1      21.102   8.416  30.068  1.00  0.00    -0.087 N 
BRANCH  28  29
HETATM   29  N11 UNL     1      21.141   7.568  31.204  1.00  0.00    -0.302 N 
ATOM     30 2H11 UNL     1      20.298   7.552  31.779  1.00  0.00     0.181 HD
ATOM     31 1H11 UNL     1      21.942   6.987  31.452  1.00  0.00     0.181 HD
ENDBRANCH  28  29
BRANCH  28  32
HETATM   32  O1  UNL     1      21.845   9.548  30.145  1.00  0.00    -0.253 OA
ATOM     33  H1  UNL     1      21.447  10.393  29.976  1.00  0.00     0.248 HD
ENDBRANCH  28  32
ENDBRANCH  25  28
ENDBRANCH  11  24
BRANCH   6  34
HETATM   34  N5  UNL     1      14.592   8.930  30.174  1.00  0.00    -0.039 N 
ATOM     35  H53 UNL     1      13.892   9.658  30.035  1.00  0.00     0.279 HD
ATOM     36  H52 UNL     1      14.853   8.818  29.194  1.00  0.00     0.279 HD
ATOM     37  H51 UNL     1      14.214   8.080  30.591  1.00  0.00     0.279 HD
ENDBRANCH   6  34
TORSDOF 12
ENDMDL
MODEL 2
REMARK VINA RESULT: -7.312059038      2.077      2.865
REMARK  12 active torsions:
REMARK  status: ('A' for Active; 'I' for Inactive)
REMARK    1  A    between atoms: N1_1  and  C1_5 
REMARK    2  A    between atoms: C1_5  and  C2_6 
REMARK    3  A    between atoms: C2_6  and  N2_7 
REMARK    4  A    between atoms: N2_7  and  C3_10 
REMARK    5  A    between atoms: C3_10  and  C4_11 
REMARK    6  A    between atoms: C4_11  and  C5_12 
REMARK    7  A    between atoms: C5_12  and  N3_13 
REMARK    8  A    between atoms: C7_18  and  N5_19 
REMARK    9  A    between atoms: C8_27  and  N8_28 
REMARK   10  A    between atoms: N9_30  and  N10_32 
REMARK   11  A    between atoms: N10_32  and  N11_33 
REMARK   12  A    between atoms: N10_32  and  O1_36 
ROOT
HETATM    1  N3  UNL     1      18.373  10.851  28.930  1.00  0.00    -0.373 N 
ATOM      2  H3  UNL     1      19.136  10.466  28.373  1.00  0.00     0.161 HD
HETATM    3  C6  UNL     1      17.750  10.005  29.632  1.00  0.00     0.147 C 
HETATM    4  N4  UNL     1      16.662  10.374  30.462  1.00  0.00    -0.329 N 
ATOM      5  H4  UNL     1      16.498  11.362  30.656  1.00  0.00     0.165 HD
HETATM    6  C7  UNL     1      15.768   9.377  31.047  1.00  0.00     0.402 C 
HETATM    7  N6  UNL     1      16.431   8.121  31.208  1.00  0.00    -0.288 N 
ATOM      8  H6  UNL     1      16.116   7.476  31.933  1.00  0.00     0.184 HD
HETATM    9  N7  UNL     1      17.515   7.761  30.379  1.00  0.00    -0.282 N 
ATOM     10  H7  UNL     1      17.805   6.783  30.372  1.00  0.00     0.188 HD
HETATM   11  C8  UNL     1      18.157   8.579  29.636  1.00  0.00     0.180 C 
ENDROOT
BRANCH   1  12
HETATM   12  C5  UNL     1      18.182  12.257  28.791  1.00  0.00     0.123 C 
BRANCH  12  13
HETATM   13  C4  UNL     1      17.707  12.468  27.314  1.00  0.00     0.047 C 
BRANCH  13  14
HETATM   14  C3  UNL     1      18.064  13.910  27.045  1.00  0.00     0.234 C 
BRANCH  14  15
HETATM   15  N2  UNL     1      18.307  14.624  28.235  1.00  0.00    -0.073 N 
ATOM     16  H22 UNL     1      18.770  14.032  28.925  1.00  0.00     0.277 HD
ATOM     17  H21 UNL     1      17.434  14.809  28.731  1.00  0.00     0.277 HD
BRANCH  15  18
HETATM   18  C2  UNL     1      19.054  15.859  28.027  1.00  0.00     0.259 C 
BRANCH  18  19
HETATM   19  C1  UNL     1      19.836  16.134  29.290  1.00  0.00     0.257 C 
BRANCH  19  20
HETATM   20  N1  UNL     1      19.468  15.225  30.361  1.00  0.00    -0.078 N 
ATOM     21  H13 UNL     1      19.567  15.668  31.274  1.00  0.00     0.274 HD
ATOM     22  H12 UNL     1      18.463  15.054  30.374  1.00  0.00     0.274 HD
ATOM     23  H11 UNL     1      19.992  14.352  30.313  1.00  0.00     0.274 HD
ENDBRANCH  19  20
ENDBRANCH  18  19
ENDBRANCH  15  18
ENDBRANCH  14  15
ENDBRANCH  13  14
ENDBRANCH  12  13
ENDBRANCH   1  12
BRANCH  11  24
HETATM   24  N8  UNL     1      19.221   8.172  28.847  1.00  0.00    -0.264 N 
HETATM   25  N9  UNL     1      20.431   8.075  29.057  1.00  0.00    -0.199 N 
ATOM     26  H9  UNL     1      20.976   7.739  28.263  1.00  0.00     0.212 HD
ATOM     27  H8  UNL     1      18.948   7.899  27.903  1.00  0.00     0.190 HD
BRANCH  25  28
HETATM   28  N10 UNL     1      21.163   8.343  30.181  1.00  0.00    -0.087 N 
BRANCH  28  29
HETATM   29  N11 UNL     1      21.239   7.474  31.300  1.00  0.00    -0.302 N 
ATOM     30 2H11 UNL     1      20.384   6.968  31.531  1.00  0.00     0.181 HD
ATOM     31 1H11 UNL     1      22.085   7.332  31.852  1.00  0.00     0.181 HD
ENDBRANCH  28  29
BRANCH  28  32
HETATM   32  O1  UNL     1      21.858   9.503  30.282  1.00  0.00    -0.253 OA
ATOM     33  H1  UNL     1      22.770   9.493  30.548  1.00  0.00     0.248 HD
ENDBRANCH  28  32
ENDBRANCH  25  28
ENDBRANCH  11  24
BRANCH   6  34
HETATM   34  N5  UNL     1      14.677   9.187  30.091  1.00  0.00    -0.039 N 
ATOM     35  H53 UNL     1      14.120  10.028  29.941  1.00  0.00     0.279 HD
ATOM     36  H52 UNL     1      14.998   9.074  29.129  1.00  0.00     0.279 HD
ATOM     37  H51 UNL     1      14.131   8.395  30.430  1.00  0.00     0.279 HD
ENDBRANCH   6  34
TORSDOF 12
ENDMDL
MODEL 3
REMARK VINA RESULT: -7.273482065      2.346      2.798
REMARK  12 active torsions:
REMARK  status: ('A' for Active; 'I' for Inactive)
REMARK    1  A    between atoms: N1_1  and  C1_5 
REMARK    2  A    between atoms: C1_5  and  C2_6 
REMARK    3  A    between atoms: C2_6  and  N2_7 
REMARK    4  A    between atoms: N2_7  and  C3_10 
REMARK    5  A    between atoms: C3_10  and  C4_11 
REMARK    6  A    between atoms: C4_11  and  C5_12 
REMARK    7  A    between atoms: C5_12  and  N3_13 
REMARK    8  A    between atoms: C7_18  and  N5_19 
REMARK    9  A    between atoms: C8_27  and  N8_28 
REMARK   10  A    between atoms: N9_30  and  N10_32 
REMARK   11  A    between atoms: N10_32  and  N11_33 
REMARK   12  A    between atoms: N10_32  and  O1_36 
ROOT
HETATM    1  N3  UNL     1      18.155  10.633  28.308  1.00  0.00    -0.373 N 
ATOM      2  H3  UNL     1      18.914  10.163  27.815  1.00  0.00     0.161 HD
HETATM    3  C6  UNL     1      17.621   9.954  29.231  1.00  0.00     0.147 C 
HETATM    4  N4  UNL     1      16.552  10.458  30.012  1.00  0.00    -0.329 N 
ATOM      5  H4  UNL     1      16.335  11.453  29.972  1.00  0.00     0.165 HD
HETATM    6  C7  UNL     1      15.752   9.590  30.874  1.00  0.00     0.402 C 
HETATM    7  N6  UNL     1      16.502   8.447  31.293  1.00  0.00    -0.288 N 
ATOM      8  H6  UNL     1      16.264   7.983  32.170  1.00  0.00     0.184 HD
HETATM    9  N7  UNL     1      17.567   7.950  30.510  1.00  0.00    -0.282 N 
ATOM     10  H7  UNL     1      17.919   7.017  30.721  1.00  0.00     0.188 HD
HETATM   11  C8  UNL     1      18.119   8.594  29.554  1.00  0.00     0.180 C 
ENDROOT
BRANCH   1  12
HETATM   12  C5  UNL     1      17.867  11.950  27.847  1.00  0.00     0.123 C 
BRANCH  12  13
HETATM   13  C4  UNL     1      19.029  12.846  28.395  1.00  0.00     0.047 C 
BRANCH  13  14
HETATM   14  C3  UNL     1      18.368  13.614  29.513  1.00  0.00     0.234 C 
BRANCH  14  15
HETATM   15  N2  UNL     1      19.107  14.758  29.876  1.00  0.00    -0.073 N 
ATOM     16  H22 UNL     1      19.696  14.566  30.687  1.00  0.00     0.277 HD
ATOM     17  H21 UNL     1      18.497  15.471  30.276  1.00  0.00     0.277 HD
BRANCH  15  18
HETATM   18  C2  UNL     1      19.897  15.307  28.780  1.00  0.00     0.259 C 
BRANCH  18  19
HETATM   19  C1  UNL     1      19.366  16.692  28.488  1.00  0.00     0.257 C 
BRANCH  19  20
HETATM   20  N1  UNL     1      18.150  16.645  27.696  1.00  0.00    -0.078 N 
ATOM     21  H13 UNL     1      17.401  17.182  28.134  1.00  0.00     0.274 HD
ATOM     22  H12 UNL     1      18.246  17.182  26.834  1.00  0.00     0.274 HD
ATOM     23  H11 UNL     1      17.857  15.687  27.506  1.00  0.00     0.274 HD
ENDBRANCH  19  20
ENDBRANCH  18  19
ENDBRANCH  15  18
ENDBRANCH  14  15
ENDBRANCH  13  14
ENDBRANCH  12  13
ENDBRANCH   1  12
BRANCH  11  24
HETATM   24  N8  UNL     1      19.169   8.061  28.822  1.00  0.00    -0.264 N 
HETATM   25  N9  UNL     1      20.381   7.984  29.031  1.00  0.00    -0.199 N 
ATOM     26  H9  UNL     1      20.912   7.526  28.290  1.00  0.00     0.212 HD
ATOM     27  H8  UNL     1      18.881   7.652  27.934  1.00  0.00     0.190 HD
BRANCH  25  28
HETATM   28  N10 UNL     1      21.131   8.411  30.092  1.00  0.00    -0.087 N 
BRANCH  28  29
HETATM   29  N11 UNL     1      21.262   7.690  31.307  1.00  0.00    -0.302 N 
ATOM     30 2H11 UNL     1      21.717   6.779  31.239  1.00  0.00     0.181 HD
ATOM     31 1H11 UNL     1      20.944   8.039  32.211  1.00  0.00     0.181 HD
ENDBRANCH  28  29
BRANCH  28  32
HETATM   32  O1  UNL     1      21.789   9.595  30.031  1.00  0.00    -0.253 OA
ATOM     33  H1  UNL     1      21.321  10.391  29.806  1.00  0.00     0.248 HD
ENDBRANCH  28  32
ENDBRANCH  25  28
ENDBRANCH  11  24
BRANCH   6  34
HETATM   34  N5  UNL     1      14.633   9.116  30.061  1.00  0.00    -0.039 N 
ATOM     35  H53 UNL     1      14.684   9.419  29.088  1.00  0.00     0.279 HD
ATOM     36  H52 UNL     1      14.660   8.112  29.882  1.00  0.00     0.279 HD
ATOM     37  H51 UNL     1      13.782   9.419  30.535  1.00  0.00     0.279 HD
ENDBRANCH   6  34
TORSDOF 12
ENDMDL
MODEL 4
REMARK VINA RESULT: -7.271636129      1.705      2.341
REMARK  12 active torsions:
REMARK  status: ('A' for Active; 'I' for Inactive)
REMARK    1  A    between atoms: N1_1  and  C1_5 
REMARK    2  A    between atoms: C1_5  and  C2_6 
REMARK    3  A    between atoms: C2_6  and  N2_7 
REMARK    4  A    between atoms: N2_7  and  C3_10 
REMARK    5  A    between atoms: C3_10  and  C4_11 
REMARK    6  A    between atoms: C4_11  and  C5_12 
REMARK    7  A    between atoms: C5_12  and  N3_13 
REMARK    8  A    between atoms: C7_18  and  N5_19 
REMARK    9  A    between atoms: C8_27  and  N8_28 
REMARK   10  A    between atoms: N9_30  and  N10_32 
REMARK   11  A    between atoms: N10_32  and  N11_33 
REMARK   12  A    between atoms: N10_32  and  O1_36 
ROOT
HETATM    1  N3  UNL     1      18.318  10.973  29.216  1.00  0.00    -0.373 N 
ATOM      2  H3  UNL     1      19.039  10.630  28.582  1.00  0.00     0.161 HD
HETATM    3  C6  UNL     1      17.733  10.076  29.889  1.00  0.00     0.147 C 
HETATM    4  N4  UNL     1      16.706  10.382  30.815  1.00  0.00    -0.329 N 
ATOM      5  H4  UNL     1      16.565  11.351  31.098  1.00  0.00     0.165 HD
HETATM    6  C7  UNL     1      15.841   9.345  31.376  1.00  0.00     0.402 C 
HETATM    7  N6  UNL     1      16.501   8.077  31.392  1.00  0.00    -0.288 N 
ATOM      8  H6  UNL     1      16.228   7.377  32.082  1.00  0.00     0.184 HD
HETATM    9  N7  UNL     1      17.525   7.779  30.466  1.00  0.00    -0.282 N 
ATOM     10  H7  UNL     1      17.805   6.805  30.362  1.00  0.00     0.188 HD
HETATM   11  C8  UNL     1      18.125   8.652  29.751  1.00  0.00     0.180 C 
ENDROOT
BRANCH   1  12
HETATM   12  C5  UNL     1      18.132  12.386  29.204  1.00  0.00     0.123 C 
BRANCH  12  13
HETATM   13  C4  UNL     1      18.460  12.836  27.741  1.00  0.00     0.047 C 
BRANCH  13  14
HETATM   14  C3  UNL     1      17.527  11.990  26.908  1.00  0.00     0.234 C 
BRANCH  14  15
HETATM   15  N2  UNL     1      16.492  12.756  26.334  1.00  0.00    -0.073 N 
ATOM     16  H22 UNL     1      16.768  13.109  25.417  1.00  0.00     0.277 HD
ATOM     17  H21 UNL     1      16.380  13.641  26.829  1.00  0.00     0.277 HD
BRANCH  15  18
HETATM   18  C2  UNL     1      15.222  12.043  26.254  1.00  0.00     0.259 C 
BRANCH  18  19
HETATM   19  C1  UNL     1      15.055  11.268  27.540  1.00  0.00     0.257 C 
BRANCH  19  20
HETATM   20  N1  UNL     1      13.952  10.328  27.463  1.00  0.00    -0.078 N 
ATOM     21  H13 UNL     1      13.472  10.243  28.360  1.00  0.00     0.274 HD
ATOM     22  H12 UNL     1      13.183  10.701  26.906  1.00  0.00     0.274 HD
ATOM     23  H11 UNL     1      14.254   9.417  27.116  1.00  0.00     0.274 HD
ENDBRANCH  19  20
ENDBRANCH  18  19
ENDBRANCH  15  18
ENDBRANCH  14  15
ENDBRANCH  13  14
ENDBRANCH  12  13
ENDBRANCH   1  12
BRANCH  11  24
HETATM   24  N8  UNL     1      19.132   8.305  28.863  1.00  0.00    -0.264 N 
HETATM   25  N9  UNL     1      20.356   8.230  28.973  1.00  0.00    -0.199 N 
ATOM     26  H9  UNL     1      20.843   7.941  28.125  1.00  0.00     0.212 HD
ATOM     27  H8  UNL     1      18.790   8.063  27.933  1.00  0.00     0.190 HD
BRANCH  25  28
HETATM   28  N10 UNL     1      21.170   8.472  30.046  1.00  0.00    -0.087 N 
BRANCH  28  29
HETATM   29  N11 UNL     1      21.264   7.616  31.174  1.00  0.00    -0.302 N 
ATOM     30 2H11 UNL     1      21.445   8.074  32.068  1.00  0.00     0.181 HD
ATOM     31 1H11 UNL     1      21.147   6.604  31.129  1.00  0.00     0.181 HD
ENDBRANCH  28  29
BRANCH  28  32
HETATM   32  O1  UNL     1      21.936   9.590  30.084  1.00  0.00    -0.253 OA
ATOM     33  H1  UNL     1      21.531  10.444  30.166  1.00  0.00     0.248 HD
ENDBRANCH  28  32
ENDBRANCH  25  28
ENDBRANCH  11  24
BRANCH   6  34
HETATM   34  N5  UNL     1      14.689   9.238  30.481  1.00  0.00    -0.039 N 
ATOM     35  H53 UNL     1      14.604   8.321  30.042  1.00  0.00     0.279 HD
ATOM     36  H52 UNL     1      13.796   9.226  30.973  1.00  0.00     0.279 HD
ATOM     37  H51 UNL     1      14.771  10.001  29.810  1.00  0.00     0.279 HD
ENDBRANCH   6  34
TORSDOF 12
ENDMDL
MODEL 5
REMARK VINA RESULT: -7.229760485      2.174      3.955
REMARK  12 active torsions:
REMARK  status: ('A' for Active; 'I' for Inactive)
REMARK    1  A    between atoms: N1_1  and  C1_5 
REMARK    2  A    between atoms: C1_5  and  C2_6 
REMARK    3  A    between atoms: C2_6  and  N2_7 
REMARK    4  A    between atoms: N2_7  and  C3_10 
REMARK    5  A    between atoms: C3_10  and  C4_11 
REMARK    6  A    between atoms: C4_11  and  C5_12 
REMARK    7  A    between atoms: C5_12  and  N3_13 
REMARK    8  A    between atoms: C7_18  and  N5_19 
REMARK    9  A    between atoms: C8_27  and  N8_28 
REMARK   10  A    between atoms: N9_30  and  N10_32 
REMARK   11  A    between atoms: N10_32  and  N11_33 
REMARK   12  A    between atoms: N10_32  and  O1_36 
ROOT
HETATM    1  N3  UNL     1      17.312  11.174  29.161  1.00  0.00    -0.373 N 
ATOM      2  H3  UNL     1      16.367  11.320  29.516  1.00  0.00     0.161 HD
HETATM    3  C6  UNL     1      17.782  10.018  29.363  1.00  0.00     0.147 C 
HETATM    4  N4  UNL     1      19.081   9.650  28.935  1.00  0.00    -0.329 N 
ATOM      5  H4  UNL     1      19.577  10.254  28.280  1.00  0.00     0.165 HD
HETATM    6  C7  UNL     1      19.731   8.430  29.408  1.00  0.00     0.402 C 
HETATM    7  N6  UNL     1      18.766   7.442  29.780  1.00  0.00    -0.288 N 
ATOM      8  H6  UNL     1      19.015   6.454  29.737  1.00  0.00     0.184 HD
HETATM    9  N7  UNL     1      17.472   7.816  30.204  1.00  0.00    -0.282 N 
ATOM     10  H7  UNL     1      16.902   7.112  30.671  1.00  0.00     0.188 HD
HETATM   11  C8  UNL     1      16.968   8.979  30.041  1.00  0.00     0.180 C 
ENDROOT
BRANCH   1  12
HETATM   12  C5  UNL     1      17.890  12.306  28.516  1.00  0.00     0.123 C 
BRANCH  12  13
HETATM   13  C4  UNL     1      17.599  12.109  26.991  1.00  0.00     0.047 C 
BRANCH  13  14
HETATM   14  C3  UNL     1      17.270  13.506  26.524  1.00  0.00     0.234 C 
BRANCH  14  15
HETATM   15  N2  UNL     1      16.409  13.500  25.408  1.00  0.00    -0.073 N 
ATOM     16  H22 UNL     1      15.552  12.986  25.614  1.00  0.00     0.277 HD
ATOM     17  H21 UNL     1      16.784  12.911  24.665  1.00  0.00     0.277 HD
BRANCH  15  18
HETATM   18  C2  UNL     1      16.104  14.835  24.906  1.00  0.00     0.259 C 
BRANCH  18  19
HETATM   19  C1  UNL     1      16.094  14.760  23.396  1.00  0.00     0.257 C 
BRANCH  19  20
HETATM   20  N1  UNL     1      15.752  16.037  22.796  1.00  0.00    -0.078 N 
ATOM     21  H13 UNL     1      16.585  16.533  22.479  1.00  0.00     0.274 HD
ATOM     22  H12 UNL     1      15.289  15.912  21.896  1.00  0.00     0.274 HD
ATOM     23  H11 UNL     1      15.193  16.613  23.424  1.00  0.00     0.274 HD
ENDBRANCH  19  20
ENDBRANCH  18  19
ENDBRANCH  15  18
ENDBRANCH  14  15
ENDBRANCH  13  14
ENDBRANCH  12  13
ENDBRANCH   1  12
BRANCH  11  24
HETATM   24  N8  UNL     1      15.687   9.289  30.469  1.00  0.00    -0.264 N 
HETATM   25  N9  UNL     1      14.626   9.477  29.872  1.00  0.00    -0.199 N 
ATOM     26  H9  UNL     1      13.831   9.694  30.473  1.00  0.00     0.212 HD
ATOM     27  H8  UNL     1      15.606   9.381  31.482  1.00  0.00     0.190 HD
BRANCH  25  28
HETATM   28  N10 UNL     1      14.339   9.441  28.535  1.00  0.00    -0.087 N 
BRANCH  28  29
HETATM   29  N11 UNL     1      14.364  10.581  27.691  1.00  0.00    -0.302 N 
ATOM     30 2H11 UNL     1      13.455  10.961  27.426  1.00  0.00     0.181 HD
ATOM     31 1H11 UNL     1      15.222  11.026  27.365  1.00  0.00     0.181 HD
ENDBRANCH  28  29
BRANCH  28  32
HETATM   32  O1  UNL     1      13.987   8.272  27.943  1.00  0.00    -0.253 OA
ATOM     33  H1  UNL     1      13.076   8.009  27.910  1.00  0.00     0.248 HD
ENDBRANCH  28  32
ENDBRANCH  25  28
ENDBRANCH  11  24
BRANCH   6  34
HETATM   34  N5  UNL     1      20.478   8.797  30.610  1.00  0.00    -0.039 N 
ATOM     35  H53 UNL     1      21.383   8.332  30.681  1.00  0.00     0.279 HD
ATOM     36  H52 UNL     1      20.830   9.754  30.591  1.00  0.00     0.279 HD
ATOM     37  H51 UNL     1      19.864   8.608  31.402  1.00  0.00     0.279 HD
ENDBRANCH   6  34
TORSDOF 12
ENDMDL
