MODEL 1
REMARK VINA RESULT: -7.056719303      0.000      0.000
REMARK  9 active torsions:
REMARK  status: ('A' for Active; 'I' for Inactive)
REMARK    1  A    between atoms: N1_1  and  C1_4 
REMARK    2  A    between atoms: C4_14  and  O1_15 
REMARK    3  A    between atoms: O1_15  and  C5_16 
REMARK    4  A    between atoms: C5_16  and  O2_17 
REMARK    5  A    between atoms: N5_19  and  C6_20 
REMARK    6  A    between atoms: C6_20  and  O3_21 
REMARK    7  A    between atoms: O3_21  and  C7_22 
REMARK    8  A    between atoms: C7_22  and  C8_23 
REMARK    9  A    between atoms: C8_23  and  O4_24 
ROOT
HETATM    1  C1  UNL     1      20.503   6.866  30.913  1.00  0.00     0.679 A 
HETATM    2  N2  UNL     1      21.476   7.804  31.057  1.00  0.00    -0.175 N 
ATOM      3  H2  UNL     1      22.355   7.542  31.503  1.00  0.00     0.186 HD
HETATM    4  C2  UNL     1      21.311   9.065  30.626  1.00  0.00     0.145 A 
HETATM    5  N3  UNL     1      22.228   9.960  30.758  1.00  0.00    -0.383 N 
ATOM      6  H31 UNL     1      22.102  10.918  30.431  1.00  0.00     0.157 HD
ATOM      7  H32 UNL     1      23.116   9.726  31.200  1.00  0.00     0.157 HD
HETATM    8  C3  UNL     1      20.110   9.381  30.028  1.00  0.00     0.125 A 
HETATM    9  N4  UNL     1      19.605  10.497  29.495  1.00  0.00    -0.316 N 
ATOM     10  H4  UNL     1      20.086  11.394  29.441  1.00  0.00     0.169 HD
HETATM   11  C4  UNL     1      18.362  10.253  29.041  1.00  0.00     0.232 A 
HETATM   12  N5  UNL     1      18.033   8.968  29.269  1.00  0.00    -0.274 N 
HETATM   13  C9  UNL     1      19.100   8.424  29.874  1.00  0.00     0.159 A 
HETATM   14  N6  UNL     1      19.330   7.197  30.323  1.00  0.00    -0.174 N 
ATOM     15  H6  UNL     1      18.606   6.486  30.220  1.00  0.00     0.186 HD
ENDROOT
BRANCH  12  16
HETATM   16  C6  UNL     1      16.757   8.384  28.896  1.00  0.00     0.303 C 
BRANCH  16  17
HETATM   17  O3  UNL     1      15.857   8.359  29.909  1.00  0.00    -0.369 OA
BRANCH  17  18
HETATM   18  C7  UNL     1      14.738   9.101  29.605  1.00  0.00     0.196 C 
BRANCH  18  19
HETATM   19  C8  UNL     1      14.571   9.494  28.176  1.00  0.00     0.190 C 
BRANCH  19  20
HETATM   20  O4  UNL     1      13.513   8.686  27.681  1.00  0.00    -0.399 OA
ATOM     21  H4  UNL     1      12.769   9.270  27.590  1.00  0.00     0.209 HD
ENDBRANCH  19  20
ENDBRANCH  18  19
ENDBRANCH  17  18
ENDBRANCH  16  17
ENDBRANCH  12  16
BRANCH  11  22
HETATM   22  O1  UNL     1      17.572  11.210  28.433  1.00  0.00    -0.296 OA
BRANCH  22  23
HETATM   23  C5  UNL     1      17.006  12.257  29.181  1.00  0.00     0.344 C 
BRANCH  23  24
HETATM   24  O2  UNL     1      17.033  11.929  30.534  1.00  0.00    -0.377 OA
ATOM     25  H2  UNL     1      16.599  12.611  31.034  1.00  0.00     0.212 HD
ENDBRANCH  23  24
ENDBRANCH  22  23
ENDBRANCH  11  22
BRANCH   1  26
HETATM   26  N1  UNL     1      20.648   5.650  31.322  1.00  0.00    -0.234 N 
ATOM     27  H12 UNL     1      21.166   5.007  30.723  1.00  0.00     0.174 HD
ATOM     28  H11 UNL     1      20.266   5.321  32.209  1.00  0.00     0.174 HD
ENDBRANCH   1  26
TORSDOF 9
ENDMDL
MODEL 2
REMARK VINA RESULT: -6.974391470      3.032      5.419
REMARK  9 active torsions:
REMARK  status: ('A' for Active; 'I' for Inactive)
REMARK    1  A    between atoms: N1_1  and  C1_4 
REMARK    2  A    between atoms: C4_14  and  O1_15 
REMARK    3  A    between atoms: O1_15  and  C5_16 
REMARK    4  A    between atoms: C5_16  and  O2_17 
REMARK    5  A    between atoms: N5_19  and  C6_20 
REMARK    6  A    between atoms: C6_20  and  O3_21 
REMARK    7  A    between atoms: O3_21  and  C7_22 
REMARK    8  A    between atoms: C7_22  and  C8_23 
REMARK    9  A    between atoms: C8_23  and  O4_24 
ROOT
HETATM    1  C1  UNL     1      16.373   8.760  30.229  1.00  0.00     0.679 A 
HETATM    2  N2  UNL     1      15.201   8.595  29.561  1.00  0.00    -0.175 N 
ATOM      3  H2  UNL     1      14.601   7.805  29.801  1.00  0.00     0.186 HD
HETATM    4  C2  UNL     1      14.812   9.442  28.595  1.00  0.00     0.145 A 
HETATM    5  N3  UNL     1      13.703   9.294  27.957  1.00  0.00    -0.383 N 
ATOM      6  H31 UNL     1      13.408   9.937  27.224  1.00  0.00     0.157 HD
ATOM      7  H32 UNL     1      13.083   8.513  28.177  1.00  0.00     0.157 HD
HETATM    8  C3  UNL     1      15.649  10.497  28.299  1.00  0.00     0.125 A 
HETATM    9  N4  UNL     1      15.594  11.508  27.428  1.00  0.00    -0.316 N 
ATOM     10  H4  UNL     1      14.835  11.678  26.769  1.00  0.00     0.169 HD
HETATM   11  C4  UNL     1      16.696  12.269  27.556  1.00  0.00     0.232 A 
HETATM   12  N5  UNL     1      17.493  11.766  28.517  1.00  0.00    -0.274 N 
HETATM   13  C9  UNL     1      16.858  10.678  28.980  1.00  0.00     0.159 A 
HETATM   14  N6  UNL     1      17.181   9.803  29.923  1.00  0.00    -0.174 N 
ATOM     15  H6  UNL     1      18.059   9.918  30.430  1.00  0.00     0.186 HD
ENDROOT
BRANCH  12  16
HETATM   16  C6  UNL     1      18.763  12.356  28.901  1.00  0.00     0.303 C 
BRANCH  16  17
HETATM   17  O3  UNL     1      19.398  11.679  29.888  1.00  0.00    -0.369 OA
BRANCH  17  18
HETATM   18  C7  UNL     1      20.497  11.004  29.406  1.00  0.00     0.196 C 
BRANCH  18  19
HETATM   19  C8  UNL     1      20.784   9.678  30.025  1.00  0.00     0.190 C 
BRANCH  19  20
HETATM   20  O4  UNL     1      22.199   9.606  30.129  1.00  0.00    -0.399 OA
ATOM     21  H4  UNL     1      22.443   8.788  29.712  1.00  0.00     0.209 HD
ENDBRANCH  19  20
ENDBRANCH  18  19
ENDBRANCH  17  18
ENDBRANCH  16  17
ENDBRANCH  12  16
BRANCH  11  22
HETATM   22  O1  UNL     1      16.937  13.395  26.792  1.00  0.00    -0.296 OA
BRANCH  22  23
HETATM   23  C5  UNL     1      16.586  13.430  25.431  1.00  0.00     0.344 C 
BRANCH  23  24
HETATM   24  O2  UNL     1      15.199  13.432  25.309  1.00  0.00    -0.377 OA
ATOM     25  H2  UNL     1      14.942  14.029  24.615  1.00  0.00     0.212 HD
ENDBRANCH  23  24
ENDBRANCH  22  23
ENDBRANCH  11  22
BRANCH   1  26
HETATM   26  N1  UNL     1      16.759   7.954  31.159  1.00  0.00    -0.234 N 
ATOM     27  H12 UNL     1      16.418   6.993  31.127  1.00  0.00     0.174 HD
ATOM     28  H11 UNL     1      17.384   8.245  31.911  1.00  0.00     0.174 HD
ENDBRANCH   1  26
TORSDOF 9
ENDMDL
MODEL 3
REMARK VINA RESULT: -6.859632825      3.131      5.956
REMARK  9 active torsions:
REMARK  status: ('A' for Active; 'I' for Inactive)
REMARK    1  A    between atoms: N1_1  and  C1_4 
REMARK    2  A    between atoms: C4_14  and  O1_15 
REMARK    3  A    between atoms: O1_15  and  C5_16 
REMARK    4  A    between atoms: C5_16  and  O2_17 
REMARK    5  A    between atoms: N5_19  and  C6_20 
REMARK    6  A    between atoms: C6_20  and  O3_21 
REMARK    7  A    between atoms: O3_21  and  C7_22 
REMARK    8  A    between atoms: C7_22  and  C8_23 
REMARK    9  A    between atoms: C8_23  and  O4_24 
ROOT
HETATM    1  C1  UNL     1      16.309  12.093  30.064  1.00  0.00     0.679 A 
HETATM    2  N2  UNL     1      15.186  11.650  29.441  1.00  0.00    -0.175 N 
ATOM      3  H2  UNL     1      14.319  12.178  29.546  1.00  0.00     0.186 HD
HETATM    4  C2  UNL     1      15.185  10.535  28.693  1.00  0.00     0.145 A 
HETATM    5  N3  UNL     1      14.125  10.108  28.099  1.00  0.00    -0.383 N 
ATOM      6  H31 UNL     1      14.125   9.261  27.531  1.00  0.00     0.157 HD
ATOM      7  H32 UNL     1      13.245  10.616  28.187  1.00  0.00     0.157 HD
HETATM    8  C3  UNL     1      16.375   9.848  28.574  1.00  0.00     0.125 A 
HETATM    9  N4  UNL     1      16.743   8.735  27.933  1.00  0.00    -0.316 N 
ATOM     10  H4  UNL     1      16.129   8.153  27.364  1.00  0.00     0.169 HD
HETATM   11  C4  UNL     1      18.049   8.503  28.156  1.00  0.00     0.232 A 
HETATM   12  N5  UNL     1      18.559   9.464  28.948  1.00  0.00    -0.274 N 
HETATM   13  C9  UNL     1      17.538  10.295  29.210  1.00  0.00     0.159 A 
HETATM   14  N6  UNL     1      17.468  11.404  29.935  1.00  0.00    -0.174 N 
ATOM     15  H6  UNL     1      18.306  11.745  30.406  1.00  0.00     0.186 HD
ENDROOT
BRANCH  12  16
HETATM   16  C6  UNL     1      19.946   9.504  29.375  1.00  0.00     0.303 C 
BRANCH  16  17
HETATM   17  O3  UNL     1      20.146   8.991  30.613  1.00  0.00    -0.369 OA
BRANCH  17  18
HETATM   18  C7  UNL     1      20.743   7.751  30.552  1.00  0.00     0.196 C 
BRANCH  18  19
HETATM   19  C8  UNL     1      20.468   6.826  31.688  1.00  0.00     0.190 C 
BRANCH  19  20
HETATM   20  O4  UNL     1      21.189   5.638  31.393  1.00  0.00    -0.399 OA
ATOM     21  H4  UNL     1      20.790   5.288  30.605  1.00  0.00     0.209 HD
ENDBRANCH  19  20
ENDBRANCH  18  19
ENDBRANCH  17  18
ENDBRANCH  16  17
ENDBRANCH  12  16
BRANCH  11  22
HETATM   22  O1  UNL     1      18.731   7.423  27.627  1.00  0.00    -0.296 OA
BRANCH  22  23
HETATM   23  C5  UNL     1      19.197   7.445  26.301  1.00  0.00     0.344 C 
BRANCH  23  24
HETATM   24  O2  UNL     1      18.801   6.280  25.649  1.00  0.00    -0.377 OA
ATOM     25  H2  UNL     1      19.512   5.650  25.664  1.00  0.00     0.212 HD
ENDBRANCH  23  24
ENDBRANCH  22  23
ENDBRANCH  11  22
BRANCH   1  26
HETATM   26  N1  UNL     1      16.325  13.163  30.786  1.00  0.00    -0.234 N 
ATOM     27  H12 UNL     1      16.390  14.060  30.304  1.00  0.00     0.174 HD
ATOM     28  H11 UNL     1      16.273  13.137  31.804  1.00  0.00     0.174 HD
ENDBRANCH   1  26
TORSDOF 9
ENDMDL
MODEL 4
REMARK VINA RESULT: -6.834784747      2.949      5.750
REMARK  9 active torsions:
REMARK  status: ('A' for Active; 'I' for Inactive)
REMARK    1  A    between atoms: N1_1  and  C1_4 
REMARK    2  A    between atoms: C4_14  and  O1_15 
REMARK    3  A    between atoms: O1_15  and  C5_16 
REMARK    4  A    between atoms: C5_16  and  O2_17 
REMARK    5  A    between atoms: N5_19  and  C6_20 
REMARK    6  A    between atoms: C6_20  and  O3_21 
REMARK    7  A    between atoms: O3_21  and  C7_22 
REMARK    8  A    between atoms: C7_22  and  C8_23 
REMARK    9  A    between atoms: C8_23  and  O4_24 
ROOT
HETATM    1  C1  UNL     1      15.328  11.116  27.761  1.00  0.00     0.679 A 
HETATM    2  N2  UNL     1      14.689  10.172  28.500  1.00  0.00    -0.175 N 
ATOM      3  H2  UNL     1      13.698   9.996  28.331  1.00  0.00     0.186 HD
HETATM    4  C2  UNL     1      15.326   9.464  29.447  1.00  0.00     0.145 A 
HETATM    5  N3  UNL     1      14.729   8.567  30.152  1.00  0.00    -0.383 N 
ATOM      6  H31 UNL     1      15.213   8.030  30.871  1.00  0.00     0.157 HD
ATOM      7  H32 UNL     1      13.739   8.371  30.004  1.00  0.00     0.157 HD
HETATM    8  C3  UNL     1      16.665   9.730  29.647  1.00  0.00     0.125 A 
HETATM    9  N4  UNL     1      17.593   9.241  30.473  1.00  0.00    -0.316 N 
ATOM     10  H4  UNL     1      17.439   8.509  31.165  1.00  0.00     0.169 HD
HETATM   11  C4  UNL     1      18.764   9.866  30.249  1.00  0.00     0.232 A 
HETATM   12  N5  UNL     1      18.619  10.776  29.269  1.00  0.00    -0.274 N 
HETATM   13  C9  UNL     1      17.333  10.700  28.892  1.00  0.00     0.159 A 
HETATM   14  N6  UNL     1      16.643  11.363  27.973  1.00  0.00    -0.174 N 
ATOM     15  H6  UNL     1      17.113  12.073  27.413  1.00  0.00     0.186 HD
ENDROOT
BRANCH  12  16
HETATM   16  C6  UNL     1      19.699  11.620  28.787  1.00  0.00     0.303 C 
BRANCH  16  17
HETATM   17  O3  UNL     1      19.448  12.945  28.917  1.00  0.00    -0.369 OA
BRANCH  17  18
HETATM   18  C7  UNL     1      19.582  13.601  27.714  1.00  0.00     0.196 C 
BRANCH  18  19
HETATM   19  C8  UNL     1      18.418  14.422  27.273  1.00  0.00     0.190 C 
BRANCH  19  20
HETATM   20  O4  UNL     1      17.427  14.245  28.275  1.00  0.00    -0.399 OA
ATOM     21  H4  UNL     1      17.404  15.064  28.757  1.00  0.00     0.209 HD
ENDBRANCH  19  20
ENDBRANCH  18  19
ENDBRANCH  17  18
ENDBRANCH  16  17
ENDBRANCH  12  16
BRANCH  11  22
HETATM   22  O1  UNL     1      19.923   9.583  30.946  1.00  0.00    -0.296 OA
BRANCH  22  23
HETATM   23  C5  UNL     1      20.934   8.793  30.371  1.00  0.00     0.344 C 
BRANCH  23  24
HETATM   24  O2  UNL     1      22.124   9.514  30.338  1.00  0.00    -0.377 OA
ATOM     25  H2  UNL     1      22.196  10.045  31.123  1.00  0.00     0.212 HD
ENDBRANCH  23  24
ENDBRANCH  22  23
ENDBRANCH  11  22
BRANCH   1  26
HETATM   26  N1  UNL     1      14.728  11.804  26.848  1.00  0.00    -0.234 N 
ATOM     27  H12 UNL     1      13.800  12.169  27.062  1.00  0.00     0.174 HD
ATOM     28  H11 UNL     1      15.148  11.988  25.937  1.00  0.00     0.174 HD
ENDBRANCH   1  26
TORSDOF 9
ENDMDL
MODEL 5
REMARK VINA RESULT: -6.831008923      2.188      4.436
REMARK  9 active torsions:
REMARK  status: ('A' for Active; 'I' for Inactive)
REMARK    1  A    between atoms: N1_1  and  C1_4 
REMARK    2  A    between atoms: C4_14  and  O1_15 
REMARK    3  A    between atoms: O1_15  and  C5_16 
REMARK    4  A    between atoms: C5_16  and  O2_17 
REMARK    5  A    between atoms: N5_19  and  C6_20 
REMARK    6  A    between atoms: C6_20  and  O3_21 
REMARK    7  A    between atoms: O3_21  and  C7_22 
REMARK    8  A    between atoms: C7_22  and  C8_23 
REMARK    9  A    between atoms: C8_23  and  O4_24 
ROOT
HETATM    1  C1  UNL     1      20.267   9.704  30.279  1.00  0.00     0.679 A 
HETATM    2  N2  UNL     1      19.579   8.834  31.065  1.00  0.00    -0.175 N 
ATOM      3  H2  UNL     1      20.095   8.229  31.704  1.00  0.00     0.186 HD
HETATM    4  C2  UNL     1      18.240   8.750  31.022  1.00  0.00     0.145 A 
HETATM    5  N3  UNL     1      17.580   7.929  31.763  1.00  0.00    -0.383 N 
ATOM      6  H31 UNL     1      16.563   7.865  31.730  1.00  0.00     0.157 HD
ATOM      7  H32 UNL     1      18.070   7.312  32.411  1.00  0.00     0.157 HD
HETATM    8  C3  UNL     1      17.577   9.584  30.146  1.00  0.00     0.125 A 
HETATM    9  N4  UNL     1      16.291   9.775  29.840  1.00  0.00    -0.316 N 
ATOM     10  H4  UNL     1      15.506   9.275  30.257  1.00  0.00     0.169 HD
HETATM   11  C4  UNL     1      16.193  10.729  28.898  1.00  0.00     0.232 A 
HETATM   12  N5  UNL     1      17.418  11.181  28.571  1.00  0.00    -0.274 N 
HETATM   13  C9  UNL     1      18.275  10.484  29.332  1.00  0.00     0.159 A 
HETATM   14  N6  UNL     1      19.598  10.515  29.425  1.00  0.00    -0.174 N 
ATOM     15  H6  UNL     1      20.124  11.164  28.840  1.00  0.00     0.186 HD
ENDROOT
BRANCH  12  16
HETATM   16  C6  UNL     1      17.657  12.217  27.581  1.00  0.00     0.303 C 
BRANCH  16  17
HETATM   17  O3  UNL     1      17.335  13.461  28.012  1.00  0.00    -0.369 OA
BRANCH  17  18
HETATM   18  C7  UNL     1      18.455  14.165  28.393  1.00  0.00     0.196 C 
BRANCH  18  19
HETATM   19  C8  UNL     1      18.888  15.265  27.483  1.00  0.00     0.190 C 
BRANCH  19  20
HETATM   20  O4  UNL     1      17.735  16.072  27.288  1.00  0.00    -0.399 OA
ATOM     21  H4  UNL     1      18.015  16.961  27.468  1.00  0.00     0.209 HD
ENDBRANCH  19  20
ENDBRANCH  18  19
ENDBRANCH  17  18
ENDBRANCH  16  17
ENDBRANCH  12  16
BRANCH  11  22
HETATM   22  O1  UNL     1      14.989  11.156  28.369  1.00  0.00    -0.296 OA
BRANCH  22  23
HETATM   23  C5  UNL     1      14.308  10.382  27.414  1.00  0.00     0.344 C 
BRANCH  23  24
HETATM   24  O2  UNL     1      13.886   9.190  27.997  1.00  0.00    -0.377 OA
ATOM     25  H2  UNL     1      14.639   8.638  28.172  1.00  0.00     0.212 HD
ENDBRANCH  23  24
ENDBRANCH  22  23
ENDBRANCH  11  22
BRANCH   1  26
HETATM   26  N1  UNL     1      21.554   9.795  30.310  1.00  0.00    -0.234 N 
ATOM     27  H12 UNL     1      21.994   9.996  31.208  1.00  0.00     0.174 HD
ATOM     28  H11 UNL     1      22.132   9.675  29.478  1.00  0.00     0.174 HD
ENDBRANCH   1  26
TORSDOF 9
ENDMDL
