MODEL 1
REMARK VINA RESULT: -7.682355798      0.000      0.000
REMARK  10 active torsions:
REMARK  status: ('A' for Active; 'I' for Inactive)
REMARK    1  A    between atoms: C2_2  and  C3_3 
REMARK    2  A    between atoms: C3_3  and  C4_4 
REMARK    3  A    between atoms: C4_4  and  C5_5 
REMARK    4  A    between atoms: C5_5  and  C6_6 
REMARK    5  A    between atoms: C6_6  and  C7_7 
REMARK    6  A    between atoms: C7_7  and  C8_8 
REMARK    7  A    between atoms: C8_8  and  S1_9 
REMARK    8  A    between atoms: S1_9  and  C9_10 
REMARK    9  A    between atoms: C14_15  and  C15_16 
REMARK       I    between atoms: C15_16  and  N1_18 
REMARK   10  A    between atoms: N1_18  and  C16_20 
ROOT
HETATM    1  C15 UNL     1      17.352  23.003  42.405  1.00  0.00     0.253 C 
HETATM    2  O1  UNL     1      17.907  24.125  42.298  1.00  0.00    -0.268 OA
HETATM    3  N1  UNL     1      16.601  22.526  41.286  1.00  0.00    -0.352 N 
ATOM      4  H1  UNL     1      16.133  21.621  41.345  1.00  0.00     0.163 HD
ENDROOT
BRANCH   1   5
HETATM    5  C14 UNL     1      17.521  22.289  43.640  1.00  0.00     0.048 A 
HETATM    6  C9  UNL     1      16.726  22.514  44.739  1.00  0.00     0.016 A 
HETATM    7  C10 UNL     1      16.917  21.831  45.918  1.00  0.00     0.019 A 
HETATM    8  C11 UNL     1      17.908  20.882  46.069  1.00  0.00     0.001 A 
HETATM    9  C12 UNL     1      18.706  20.651  44.972  1.00  0.00     0.001 A 
HETATM   10  C13 UNL     1      18.529  21.328  43.786  1.00  0.00     0.018 A 
BRANCH   6  11
HETATM   11  S1  UNL     1      15.369  23.674  44.594  1.00  0.00    -0.129 SA
BRANCH  11  12
HETATM   12  C8  UNL     1      14.414  23.678  46.106  1.00  0.00     0.079 C 
BRANCH  12  13
HETATM   13  C7  UNL     1      13.049  23.052  45.903  1.00  0.00     0.010 C 
BRANCH  13  14
HETATM   14  C6  UNL     1      13.085  22.377  44.557  1.00  0.00     0.001 C 
BRANCH  14  15
HETATM   15  C5  UNL     1      12.014  22.771  43.608  1.00  0.00     0.000 C 
BRANCH  15  16
HETATM   16  C4  UNL     1      12.421  22.788  42.174  1.00  0.00     0.000 C 
BRANCH  16  17
HETATM   17  C3  UNL     1      13.543  21.759  42.003  1.00  0.00    -0.000 C 
BRANCH  17  18
HETATM   18  C2  UNL     1      13.120  20.565  41.194  1.00  0.00    -0.005 C 
HETATM   19  C1  UNL     1      13.009  19.390  42.164  1.00  0.00     0.005 C 
ENDBRANCH  17  18
ENDBRANCH  16  17
ENDBRANCH  15  16
ENDBRANCH  14  15
ENDBRANCH  13  14
ENDBRANCH  12  13
ENDBRANCH  11  12
ENDBRANCH   6  11
ENDBRANCH   1   5
BRANCH   3  20
HETATM   20  C16 UNL     1      16.494  23.308  40.068  1.00  0.00     0.084 C 
HETATM   21  C17 UNL     1      15.990  22.394  38.986  1.00  0.00     0.025 C 
HETATM   22  C18 UNL     1      17.089  21.972  38.051  1.00  0.00     0.002 C 
HETATM   23  C19 UNL     1      16.578  21.717  36.653  1.00  0.00     0.000 C 
HETATM   24  C20 UNL     1      17.134  22.724  35.661  1.00  0.00     0.000 C 
HETATM   25  C21 UNL     1      16.125  23.806  35.466  1.00  0.00     0.000 C 
HETATM   26  C22 UNL     1      16.710  25.196  35.488  1.00  0.00     0.000 C 
HETATM   27  C23 UNL     1      16.948  25.714  36.877  1.00  0.00     0.000 C 
HETATM   28  C24 UNL     1      15.655  26.034  37.564  1.00  0.00     0.000 C 
HETATM   29  C25 UNL     1      15.829  26.692  38.900  1.00  0.00     0.000 C 
HETATM   30  C26 UNL     1      16.441  25.812  39.955  1.00  0.00     0.002 C 
HETATM   31  C27 UNL     1      15.650  24.555  40.220  1.00  0.00     0.025 C 
ENDBRANCH   3  20
TORSDOF 10
ENDMDL
MODEL 2
REMARK VINA RESULT: -7.484018651      0.680      1.047
REMARK  10 active torsions:
REMARK  status: ('A' for Active; 'I' for Inactive)
REMARK    1  A    between atoms: C2_2  and  C3_3 
REMARK    2  A    between atoms: C3_3  and  C4_4 
REMARK    3  A    between atoms: C4_4  and  C5_5 
REMARK    4  A    between atoms: C5_5  and  C6_6 
REMARK    5  A    between atoms: C6_6  and  C7_7 
REMARK    6  A    between atoms: C7_7  and  C8_8 
REMARK    7  A    between atoms: C8_8  and  S1_9 
REMARK    8  A    between atoms: S1_9  and  C9_10 
REMARK    9  A    between atoms: C14_15  and  C15_16 
REMARK       I    between atoms: C15_16  and  N1_18 
REMARK   10  A    between atoms: N1_18  and  C16_20 
ROOT
HETATM    1  C15 UNL     1      17.270  22.996  42.352  1.00  0.00     0.253 C 
HETATM    2  O1  UNL     1      17.848  24.105  42.232  1.00  0.00    -0.268 OA
HETATM    3  N1  UNL     1      16.505  22.524  41.241  1.00  0.00    -0.352 N 
ATOM      4  H1  UNL     1      16.019  21.630  41.310  1.00  0.00     0.163 HD
ENDROOT
BRANCH   1   5
HETATM    5  C14 UNL     1      17.429  22.291  43.593  1.00  0.00     0.048 A 
HETATM    6  C9  UNL     1      16.610  22.506  44.676  1.00  0.00     0.016 A 
HETATM    7  C10 UNL     1      16.791  21.832  45.862  1.00  0.00     0.019 A 
HETATM    8  C11 UNL     1      17.795  20.901  46.035  1.00  0.00     0.001 A 
HETATM    9  C12 UNL     1      18.617  20.678  44.954  1.00  0.00     0.001 A 
HETATM   10  C13 UNL     1      18.450  21.347  43.762  1.00  0.00     0.018 A 
BRANCH   6  11
HETATM   11  S1  UNL     1      15.236  23.642  44.501  1.00  0.00    -0.129 SA
BRANCH  11  12
HETATM   12  C8  UNL     1      13.819  23.018  45.395  1.00  0.00     0.079 C 
BRANCH  12  13
HETATM   13  C7  UNL     1      12.709  22.594  44.454  1.00  0.00     0.010 C 
BRANCH  13  14
HETATM   14  C6  UNL     1      13.085  23.115  43.091  1.00  0.00     0.001 C 
BRANCH  14  15
HETATM   15  C5  UNL     1      12.989  22.139  41.978  1.00  0.00     0.000 C 
BRANCH  15  16
HETATM   16  C4  UNL     1      13.494  20.772  42.295  1.00  0.00     0.000 C 
BRANCH  16  17
HETATM   17  C3  UNL     1      12.622  19.772  41.528  1.00  0.00    -0.000 C 
BRANCH  17  18
HETATM   18  C2  UNL     1      12.863  19.807  40.045  1.00  0.00    -0.005 C 
HETATM   19  C1  UNL     1      11.526  19.496  39.373  1.00  0.00     0.005 C 
ENDBRANCH  17  18
ENDBRANCH  16  17
ENDBRANCH  15  16
ENDBRANCH  14  15
ENDBRANCH  13  14
ENDBRANCH  12  13
ENDBRANCH  11  12
ENDBRANCH   6  11
ENDBRANCH   1   5
BRANCH   3  20
HETATM   20  C16 UNL     1      16.410  23.296  40.015  1.00  0.00     0.084 C 
HETATM   21  C17 UNL     1      15.910  22.376  38.938  1.00  0.00     0.025 C 
HETATM   22  C18 UNL     1      17.012  21.941  38.014  1.00  0.00     0.002 C 
HETATM   23  C19 UNL     1      16.510  21.676  36.614  1.00  0.00     0.000 C 
HETATM   24  C20 UNL     1      17.077  22.673  35.617  1.00  0.00     0.000 C 
HETATM   25  C21 UNL     1      16.074  23.757  35.407  1.00  0.00     0.000 C 
HETATM   26  C22 UNL     1      16.666  25.146  35.421  1.00  0.00     0.000 C 
HETATM   27  C23 UNL     1      16.896  25.674  36.807  1.00  0.00     0.000 C 
HETATM   28  C24 UNL     1      15.601  26.006  37.483  1.00  0.00     0.000 C 
HETATM   29  C25 UNL     1      15.768  26.673  38.815  1.00  0.00     0.000 C 
HETATM   30  C26 UNL     1      16.369  25.800  39.881  1.00  0.00     0.002 C 
HETATM   31  C27 UNL     1      15.571  24.549  40.151  1.00  0.00     0.025 C 
ENDBRANCH   3  20
TORSDOF 10
ENDMDL
MODEL 3
REMARK VINA RESULT: -7.294463853      1.392      2.641
REMARK  10 active torsions:
REMARK  status: ('A' for Active; 'I' for Inactive)
REMARK    1  A    between atoms: C2_2  and  C3_3 
REMARK    2  A    between atoms: C3_3  and  C4_4 
REMARK    3  A    between atoms: C4_4  and  C5_5 
REMARK    4  A    between atoms: C5_5  and  C6_6 
REMARK    5  A    between atoms: C6_6  and  C7_7 
REMARK    6  A    between atoms: C7_7  and  C8_8 
REMARK    7  A    between atoms: C8_8  and  S1_9 
REMARK    8  A    between atoms: S1_9  and  C9_10 
REMARK    9  A    between atoms: C14_15  and  C15_16 
REMARK       I    between atoms: C15_16  and  N1_18 
REMARK   10  A    between atoms: N1_18  and  C16_20 
ROOT
HETATM    1  C15 UNL     1      17.040  23.098  41.550  1.00  0.00     0.253 C 
HETATM    2  O1  UNL     1      17.272  24.332  41.596  1.00  0.00    -0.268 OA
HETATM    3  N1  UNL     1      16.686  22.538  40.283  1.00  0.00    -0.352 N 
ATOM      4  H1  UNL     1      16.485  21.540  40.215  1.00  0.00     0.163 HD
ENDROOT
BRANCH   1   5
HETATM    5  C14 UNL     1      17.155  22.350  42.771  1.00  0.00     0.048 A 
HETATM    6  C9  UNL     1      16.109  21.634  43.301  1.00  0.00     0.016 A 
HETATM    7  C10 UNL     1      16.236  20.938  44.481  1.00  0.00     0.019 A 
HETATM    8  C11 UNL     1      17.415  20.914  45.199  1.00  0.00     0.001 A 
HETATM    9  C12 UNL     1      18.467  21.627  44.673  1.00  0.00     0.001 A 
HETATM   10  C13 UNL     1      18.354  22.329  43.494  1.00  0.00     0.018 A 
BRANCH   6  11
HETATM   11  S1  UNL     1      14.572  21.555  42.385  1.00  0.00    -0.129 SA
BRANCH  11  12
HETATM   12  C8  UNL     1      13.697  23.107  42.538  1.00  0.00     0.079 C 
BRANCH  12  13
HETATM   13  C7  UNL     1      12.363  22.928  43.235  1.00  0.00     0.010 C 
BRANCH  13  14
HETATM   14  C6  UNL     1      12.639  22.133  44.485  1.00  0.00     0.001 C 
BRANCH  14  15
HETATM   15  C5  UNL     1      12.356  22.825  45.766  1.00  0.00     0.000 C 
BRANCH  15  16
HETATM   16  C4  UNL     1      13.507  22.891  46.712  1.00  0.00     0.000 C 
BRANCH  16  17
HETATM   17  C3  UNL     1      14.585  23.765  46.062  1.00  0.00    -0.000 C 
BRANCH  17  18
HETATM   18  C2  UNL     1      15.882  23.751  46.822  1.00  0.00    -0.005 C 
HETATM   19  C1  UNL     1      15.669  22.859  48.043  1.00  0.00     0.005 C 
ENDBRANCH  17  18
ENDBRANCH  16  17
ENDBRANCH  15  16
ENDBRANCH  14  15
ENDBRANCH  13  14
ENDBRANCH  12  13
ENDBRANCH  11  12
ENDBRANCH   6  11
ENDBRANCH   1   5
BRANCH   3  20
HETATM   20  C16 UNL     1      16.607  23.366  39.094  1.00  0.00     0.084 C 
HETATM   21  C17 UNL     1      16.357  22.456  37.924  1.00  0.00     0.025 C 
HETATM   22  C18 UNL     1      17.599  22.236  37.108  1.00  0.00     0.002 C 
HETATM   23  C19 UNL     1      17.286  21.995  35.650  1.00  0.00     0.000 C 
HETATM   24  C20 UNL     1      17.804  23.121  34.772  1.00  0.00     0.000 C 
HETATM   25  C21 UNL     1      16.682  24.069  34.505  1.00  0.00     0.000 C 
HETATM   26  C22 UNL     1      17.064  25.522  34.652  1.00  0.00     0.000 C 
HETATM   27  C23 UNL     1      17.073  25.987  36.079  1.00  0.00     0.000 C 
HETATM   28  C24 UNL     1      15.681  26.094  36.622  1.00  0.00     0.000 C 
HETATM   29  C25 UNL     1      15.614  26.692  37.995  1.00  0.00     0.000 C 
HETATM   30  C26 UNL     1      16.221  25.844  39.078  1.00  0.00     0.002 C 
HETATM   31  C27 UNL     1      15.587  24.480  39.197  1.00  0.00     0.025 C 
ENDBRANCH   3  20
TORSDOF 10
ENDMDL
MODEL 4
REMARK VINA RESULT: -7.279148689      4.836      9.029
REMARK  10 active torsions:
REMARK  status: ('A' for Active; 'I' for Inactive)
REMARK    1  A    between atoms: C2_2  and  C3_3 
REMARK    2  A    between atoms: C3_3  and  C4_4 
REMARK    3  A    between atoms: C4_4  and  C5_5 
REMARK    4  A    between atoms: C5_5  and  C6_6 
REMARK    5  A    between atoms: C6_6  and  C7_7 
REMARK    6  A    between atoms: C7_7  and  C8_8 
REMARK    7  A    between atoms: C8_8  and  S1_9 
REMARK    8  A    between atoms: S1_9  and  C9_10 
REMARK    9  A    between atoms: C14_15  and  C15_16 
REMARK       I    between atoms: C15_16  and  N1_18 
REMARK   10  A    between atoms: N1_18  and  C16_20 
ROOT
HETATM    1  C15 UNL     1      20.061  22.111  46.130  1.00  0.00     0.253 C 
HETATM    2  O1  UNL     1      20.052  21.160  46.951  1.00  0.00    -0.268 OA
HETATM    3  N1  UNL     1      21.122  23.063  46.230  1.00  0.00    -0.352 N 
ATOM      4  H1  UNL     1      21.152  23.850  45.582  1.00  0.00     0.163 HD
ENDROOT
BRANCH   1   5
HETATM    5  C14 UNL     1      19.007  22.161  45.155  1.00  0.00     0.048 A 
HETATM    6  C9  UNL     1      17.687  22.322  45.501  1.00  0.00     0.016 A 
HETATM    7  C10 UNL     1      16.690  22.349  44.552  1.00  0.00     0.019 A 
HETATM    8  C11 UNL     1      16.955  22.223  43.202  1.00  0.00     0.001 A 
HETATM    9  C12 UNL     1      18.275  22.065  42.849  1.00  0.00     0.001 A 
HETATM   10  C13 UNL     1      19.282  22.032  43.788  1.00  0.00     0.018 A 
BRANCH   6  11
HETATM   11  S1  UNL     1      17.275  22.570  47.226  1.00  0.00    -0.129 SA
BRANCH  11  12
HETATM   12  C8  UNL     1      15.834  23.621  47.359  1.00  0.00     0.079 C 
BRANCH  12  13
HETATM   13  C7  UNL     1      14.551  22.815  47.312  1.00  0.00     0.010 C 
BRANCH  13  14
HETATM   14  C6  UNL     1      13.681  23.459  46.264  1.00  0.00     0.001 C 
BRANCH  14  15
HETATM   15  C5  UNL     1      12.565  22.627  45.751  1.00  0.00     0.000 C 
BRANCH  15  16
HETATM   16  C4  UNL     1      12.325  22.734  44.284  1.00  0.00     0.000 C 
BRANCH  16  17
HETATM   17  C3  UNL     1      12.771  21.412  43.648  1.00  0.00    -0.000 C 
BRANCH  17  18
HETATM   18  C2  UNL     1      13.226  21.575  42.225  1.00  0.00    -0.005 C 
HETATM   19  C1  UNL     1      13.382  20.168  41.648  1.00  0.00     0.005 C 
ENDBRANCH  17  18
ENDBRANCH  16  17
ENDBRANCH  15  16
ENDBRANCH  14  15
ENDBRANCH  13  14
ENDBRANCH  12  13
ENDBRANCH  11  12
ENDBRANCH   6  11
ENDBRANCH   1   5
BRANCH   3  20
HETATM   20  C16 UNL     1      22.157  22.927  47.239  1.00  0.00     0.084 C 
HETATM   21  C17 UNL     1      22.996  21.737  46.869  1.00  0.00     0.025 C 
HETATM   22  C18 UNL     1      22.677  20.539  47.720  1.00  0.00     0.002 C 
HETATM   23  C19 UNL     1      23.878  19.643  47.913  1.00  0.00     0.000 C 
HETATM   24  C20 UNL     1      24.335  19.622  49.362  1.00  0.00     0.000 C 
HETATM   25  C21 UNL     1      25.458  20.591  49.520  1.00  0.00     0.000 C 
HETATM   26  C22 UNL     1      25.343  21.463  50.746  1.00  0.00     0.000 C 
HETATM   27  C23 UNL     1      24.411  22.625  50.556  1.00  0.00     0.000 C 
HETATM   28  C24 UNL     1      25.005  23.652  49.641  1.00  0.00     0.000 C 
HETATM   29  C25 UNL     1      24.188  24.903  49.525  1.00  0.00     0.000 C 
HETATM   30  C26 UNL     1      22.861  24.723  48.842  1.00  0.00     0.002 C 
HETATM   31  C27 UNL     1      22.979  24.183  47.438  1.00  0.00     0.025 C 
ENDBRANCH   3  20
TORSDOF 10
ENDMDL
MODEL 5
REMARK VINA RESULT: -7.138536272      1.150      1.819
REMARK  10 active torsions:
REMARK  status: ('A' for Active; 'I' for Inactive)
REMARK    1  A    between atoms: C2_2  and  C3_3 
REMARK    2  A    between atoms: C3_3  and  C4_4 
REMARK    3  A    between atoms: C4_4  and  C5_5 
REMARK    4  A    between atoms: C5_5  and  C6_6 
REMARK    5  A    between atoms: C6_6  and  C7_7 
REMARK    6  A    between atoms: C7_7  and  C8_8 
REMARK    7  A    between atoms: C8_8  and  S1_9 
REMARK    8  A    between atoms: S1_9  and  C9_10 
REMARK    9  A    between atoms: C14_15  and  C15_16 
REMARK       I    between atoms: C15_16  and  N1_18 
REMARK   10  A    between atoms: N1_18  and  C16_20 
ROOT
HETATM    1  C15 UNL     1      17.201  23.127  42.020  1.00  0.00     0.253 C 
HETATM    2  O1  UNL     1      17.670  24.288  41.922  1.00  0.00    -0.268 OA
HETATM    3  N1  UNL     1      16.570  22.567  40.866  1.00  0.00    -0.352 N 
ATOM      4  H1  UNL     1      16.174  21.629  40.916  1.00  0.00     0.163 HD
ENDROOT
BRANCH   1   5
HETATM    5  C14 UNL     1      17.342  22.454  43.281  1.00  0.00     0.048 A 
HETATM    6  C9  UNL     1      16.482  22.665  44.332  1.00  0.00     0.016 A 
HETATM    7  C10 UNL     1      16.645  22.023  45.538  1.00  0.00     0.019 A 
HETATM    8  C11 UNL     1      17.673  21.130  45.764  1.00  0.00     0.001 A 
HETATM    9  C12 UNL     1      18.537  20.912  44.716  1.00  0.00     0.001 A 
HETATM   10  C13 UNL     1      18.387  21.549  43.504  1.00  0.00     0.018 A 
BRANCH   6  11
HETATM   11  S1  UNL     1      15.078  23.751  44.087  1.00  0.00    -0.129 SA
BRANCH  11  12
HETATM   12  C8  UNL     1      13.589  22.780  43.892  1.00  0.00     0.079 C 
BRANCH  12  13
HETATM   13  C7  UNL     1      13.451  22.252  42.478  1.00  0.00     0.010 C 
BRANCH  13  14
HETATM   14  C6  UNL     1      13.859  20.802  42.522  1.00  0.00     0.001 C 
BRANCH  14  15
HETATM   15  C5  UNL     1      12.962  19.858  41.811  1.00  0.00     0.000 C 
BRANCH  15  16
HETATM   16  C4  UNL     1      13.020  19.936  40.324  1.00  0.00     0.000 C 
BRANCH  16  17
HETATM   17  C3  UNL     1      11.606  19.670  39.795  1.00  0.00    -0.000 C 
BRANCH  17  18
HETATM   18  C2  UNL     1      11.602  19.087  38.410  1.00  0.00    -0.005 C 
HETATM   19  C1  UNL     1      13.058  19.037  37.947  1.00  0.00     0.005 C 
ENDBRANCH  17  18
ENDBRANCH  16  17
ENDBRANCH  15  16
ENDBRANCH  14  15
ENDBRANCH  13  14
ENDBRANCH  12  13
ENDBRANCH  11  12
ENDBRANCH   6  11
ENDBRANCH   1   5
BRANCH   3  20
HETATM   20  C16 UNL     1      16.485  23.314  39.624  1.00  0.00     0.084 C 
HETATM   21  C17 UNL     1      16.135  22.340  38.534  1.00  0.00     0.025 C 
HETATM   22  C18 UNL     1      17.328  21.993  37.687  1.00  0.00     0.002 C 
HETATM   23  C19 UNL     1      16.939  21.668  36.264  1.00  0.00     0.000 C 
HETATM   24  C20 UNL     1      17.478  22.699  35.286  1.00  0.00     0.000 C 
HETATM   25  C21 UNL     1      16.399  23.688  34.996  1.00  0.00     0.000 C 
HETATM   26  C22 UNL     1      16.865  25.123  35.022  1.00  0.00     0.000 C 
HETATM   27  C23 UNL     1      16.962  25.686  36.411  1.00  0.00     0.000 C 
HETATM   28  C24 UNL     1      15.603  25.911  37.000  1.00  0.00     0.000 C 
HETATM   29  C25 UNL     1      15.627  26.606  38.327  1.00  0.00     0.000 C 
HETATM   30  C26 UNL     1      16.234  25.802  39.443  1.00  0.00     0.002 C 
HETATM   31  C27 UNL     1      15.533  24.489  39.686  1.00  0.00     0.025 C 
ENDBRANCH   3  20
TORSDOF 10
ENDMDL
