MODEL 1
REMARK VINA RESULT: -4.825880733      0.000      0.000
REMARK  1 active torsions:
REMARK  status: ('A' for Active; 'I' for Inactive)
REMARK    1  A    between atoms: C2_2  and  C3_3 
ROOT
HETATM    1  C3  UNL     1       5.672  -5.916  28.278  1.00  0.00     0.015 C 
HETATM    2  C4  UNL     1       4.276  -5.613  28.777  1.00  0.00     0.042 C 
HETATM    3  C5  UNL     1       4.734  -4.157  28.930  1.00  0.00     0.191 C 
HETATM    4  N1  UNL     1       4.447  -3.459  27.704  1.00  0.00    -0.070 N 
ATOM      5  H11 UNL     1       3.648  -2.829  27.777  1.00  0.00     0.277 HD
ATOM      6  H12 UNL     1       4.067  -4.064  26.976  1.00  0.00     0.277 HD
HETATM    7  C6  UNL     1       5.668  -2.790  27.312  1.00  0.00     0.233 C 
HETATM    8  C7  UNL     1       6.784  -3.662  27.845  1.00  0.00     0.034 C 
HETATM    9  C8  UNL     1       6.173  -4.618  28.821  1.00  0.00     0.025 C 
ENDROOT
BRANCH   1  10
HETATM   10  C2  UNL     1       6.216  -7.085  29.016  1.00  0.00    -0.032 C 
HETATM   11  C1  UNL     1       5.970  -7.325  30.285  1.00  0.00     0.007 C 
ENDBRANCH   1  10
TORSDOF 1
ENDMDL
MODEL 2
REMARK VINA RESULT: -4.805969000      1.141      1.950
REMARK  1 active torsions:
REMARK  status: ('A' for Active; 'I' for Inactive)
REMARK    1  A    between atoms: C2_2  and  C3_3 
ROOT
HETATM    1  C3  UNL     1       5.515  -6.068  29.896  1.00  0.00     0.015 C 
HETATM    2  C4  UNL     1       6.606  -5.023  30.003  1.00  0.00     0.042 C 
HETATM    3  C5  UNL     1       6.219  -4.590  28.584  1.00  0.00     0.191 C 
HETATM    4  N1  UNL     1       5.221  -3.558  28.680  1.00  0.00    -0.070 N 
ATOM      5  H11 UNL     1       5.583  -2.627  28.468  1.00  0.00     0.277 HD
ATOM      6  H12 UNL     1       4.930  -3.367  29.638  1.00  0.00     0.277 HD
HETATM    7  C6  UNL     1       4.128  -3.954  27.818  1.00  0.00     0.233 C 
HETATM    8  C7  UNL     1       4.148  -5.468  27.828  1.00  0.00     0.034 C 
HETATM    9  C8  UNL     1       5.459  -5.890  28.415  1.00  0.00     0.025 C 
ENDROOT
BRANCH   1  10
HETATM   10  C2  UNL     1       6.062  -7.393  30.286  1.00  0.00    -0.032 C 
HETATM   11  C1  UNL     1       6.935  -8.062  29.567  1.00  0.00     0.007 C 
ENDBRANCH   1  10
TORSDOF 1
ENDMDL
MODEL 3
REMARK VINA RESULT: -4.800896044      1.234      1.560
REMARK  1 active torsions:
REMARK  status: ('A' for Active; 'I' for Inactive)
REMARK    1  A    between atoms: C2_2  and  C3_3 
ROOT
HETATM    1  C3  UNL     1       6.334  -6.300  29.389  1.00  0.00     0.015 C 
HETATM    2  C4  UNL     1       5.459  -6.289  28.153  1.00  0.00     0.042 C 
HETATM    3  C5  UNL     1       5.348  -4.772  28.343  1.00  0.00     0.191 C 
HETATM    4  N1  UNL     1       6.407  -4.142  27.599  1.00  0.00    -0.070 N 
ATOM      5  H11 UNL     1       6.083  -3.688  26.744  1.00  0.00     0.277 HD
ATOM      6  H12 UNL     1       7.041  -4.808  27.158  1.00  0.00     0.277 HD
HETATM    7  C6  UNL     1       7.073  -3.236  28.509  1.00  0.00     0.233 C 
HETATM    8  C7  UNL     1       6.915  -3.865  29.877  1.00  0.00     0.034 C 
HETATM    9  C8  UNL     1       5.869  -4.929  29.757  1.00  0.00     0.025 C 
ENDROOT
BRANCH   1  10
HETATM   10  C2  UNL     1       5.842  -7.336  30.332  1.00  0.00    -0.032 C 
HETATM   11  C1  UNL     1       6.584  -8.322  30.784  1.00  0.00     0.007 C 
ENDBRANCH   1  10
TORSDOF 1
ENDMDL
MODEL 4
REMARK VINA RESULT: -4.780396598      1.342      1.629
REMARK  1 active torsions:
REMARK  status: ('A' for Active; 'I' for Inactive)
REMARK    1  A    between atoms: C2_2  and  C3_3 
ROOT
HETATM    1  C3  UNL     1       6.182  -6.073  28.977  1.00  0.00     0.015 C 
HETATM    2  C4  UNL     1       5.514  -6.257  27.631  1.00  0.00     0.042 C 
HETATM    3  C5  UNL     1       4.389  -5.357  28.156  1.00  0.00     0.191 C 
HETATM    4  N1  UNL     1       4.700  -3.994  27.814  1.00  0.00    -0.070 N 
ATOM      5  H11 UNL     1       4.133  -3.632  27.048  1.00  0.00     0.277 HD
ATOM      6  H12 UNL     1       5.609  -3.890  27.362  1.00  0.00     0.277 HD
HETATM    7  C6  UNL     1       4.577  -3.222  29.031  1.00  0.00     0.233 C 
HETATM    8  C7  UNL     1       4.929  -4.183  30.146  1.00  0.00     0.034 C 
HETATM    9  C8  UNL     1       4.908  -5.563  29.565  1.00  0.00     0.025 C 
ENDROOT
BRANCH   1  10
HETATM   10  C2  UNL     1       6.566  -7.400  29.523  1.00  0.00    -0.032 C 
HETATM   11  C1  UNL     1       6.160  -7.853  30.689  1.00  0.00     0.007 C 
ENDBRANCH   1  10
TORSDOF 1
ENDMDL
MODEL 5
REMARK VINA RESULT: -4.682114877      1.609      2.302
REMARK  1 active torsions:
REMARK  status: ('A' for Active; 'I' for Inactive)
REMARK    1  A    between atoms: C2_2  and  C3_3 
ROOT
HETATM    1  C3  UNL     1       4.722  -5.934  29.074  1.00  0.00     0.015 C 
HETATM    2  C4  UNL     1       5.218  -4.804  29.951  1.00  0.00     0.042 C 
HETATM    3  C5  UNL     1       4.423  -3.857  29.043  1.00  0.00     0.191 C 
HETATM    4  N1  UNL     1       3.102  -3.703  29.594  1.00  0.00    -0.070 N 
ATOM      5  H11 UNL     1       2.956  -2.800  30.044  1.00  0.00     0.277 HD
ATOM      6  H12 UNL     1       2.938  -4.284  30.416  1.00  0.00     0.277 HD
HETATM    7  C6  UNL     1       2.171  -3.961  28.517  1.00  0.00     0.233 C 
HETATM    8  C7  UNL     1       2.877  -4.950  27.613  1.00  0.00     0.034 C 
HETATM    9  C8  UNL     1       4.320  -4.963  28.013  1.00  0.00     0.025 C 
ENDROOT
BRANCH   1  10
HETATM   10  C2  UNL     1       5.872  -6.779  28.661  1.00  0.00    -0.032 C 
HETATM   11  C1  UNL     1       6.607  -7.471  29.502  1.00  0.00     0.007 C 
ENDBRANCH   1  10
TORSDOF 1
ENDMDL
