MODEL 1
REMARK VINA RESULT: -4.853746764      0.000      0.000
REMARK  1 active torsions:
REMARK  status: ('A' for Active; 'I' for Inactive)
REMARK    1  A    between atoms: C2_2  and  C4_4 
ROOT
HETATM    1  C4  UNL     1       5.512  -6.749  29.773  1.00  0.00     0.021 C 
HETATM    2  C5  UNL     1       5.698  -6.541  28.259  1.00  0.00     0.040 C 
HETATM    3  C6  UNL     1       5.696  -5.031  28.259  1.00  0.00     0.189 C 
HETATM    4  C7  UNL     1       6.650  -4.687  29.371  1.00  0.00     0.066 C 
HETATM    5  C8  UNL     1       5.540  -5.319  30.197  1.00  0.00     0.192 C 
HETATM    6  N1  UNL     1       4.625  -4.708  29.218  1.00  0.00    -0.066 N 
ATOM      7  H11 UNL     1       3.661  -5.018  29.094  1.00  0.00     0.278 HD
ATOM      8  H12 UNL     1       4.246  -3.768  29.327  1.00  0.00     0.278 HD
ENDROOT
BRANCH   1   9
HETATM    9  C2  UNL     1       6.614  -7.580  30.357  1.00  0.00    -0.017 C 
HETATM   10  C1  UNL     1       7.238  -8.524  29.393  1.00  0.00     0.010 C 
HETATM   11  C3  UNL     1       5.971  -8.421  31.464  1.00  0.00     0.010 C 
ENDBRANCH   1   9
TORSDOF 1
ENDMDL
MODEL 2
REMARK VINA RESULT: -4.543786757      2.007      3.630
REMARK  1 active torsions:
REMARK  status: ('A' for Active; 'I' for Inactive)
REMARK    1  A    between atoms: C2_2  and  C4_4 
ROOT
HETATM    1  C4  UNL     1       4.644  -4.946  28.570  1.00  0.00     0.021 C 
HETATM    2  C5  UNL     1       5.316  -6.078  27.772  1.00  0.00     0.040 C 
HETATM    3  C6  UNL     1       6.167  -6.637  28.887  1.00  0.00     0.189 C 
HETATM    4  C7  UNL     1       5.197  -6.753  30.032  1.00  0.00     0.066 C 
HETATM    5  C8  UNL     1       5.237  -5.238  29.907  1.00  0.00     0.192 C 
HETATM    6  N1  UNL     1       6.657  -5.422  29.561  1.00  0.00    -0.066 N 
ATOM      7  H11 UNL     1       7.206  -4.708  29.082  1.00  0.00     0.278 HD
ATOM      8  H12 UNL     1       7.398  -5.439  30.260  1.00  0.00     0.278 HD
ENDROOT
BRANCH   1   9
HETATM    9  C2  UNL     1       3.150  -5.053  28.529  1.00  0.00    -0.017 C 
HETATM   10  C1  UNL     1       2.566  -4.880  27.173  1.00  0.00     0.010 C 
HETATM   11  C3  UNL     1       2.618  -3.912  29.401  1.00  0.00     0.010 C 
ENDBRANCH   1   9
TORSDOF 1
ENDMDL
MODEL 3
REMARK VINA RESULT: -4.511739813      2.132      3.468
REMARK  1 active torsions:
REMARK  status: ('A' for Active; 'I' for Inactive)
REMARK    1  A    between atoms: C2_2  and  C4_4 
ROOT
HETATM    1  C4  UNL     1       6.152  -4.326  28.812  1.00  0.00     0.021 C 
HETATM    2  C5  UNL     1       5.184  -3.252  29.340  1.00  0.00     0.040 C 
HETATM    3  C6  UNL     1       5.891  -2.043  28.776  1.00  0.00     0.189 C 
HETATM    4  C7  UNL     1       6.157  -2.437  27.348  1.00  0.00     0.066 C 
HETATM    5  C8  UNL     1       7.070  -3.435  28.043  1.00  0.00     0.192 C 
HETATM    6  N1  UNL     1       7.310  -2.357  29.018  1.00  0.00    -0.066 N 
ATOM      7  H11 UNL     1       7.687  -2.528  29.950  1.00  0.00     0.278 HD
ATOM      8  H12 UNL     1       8.054  -1.669  28.908  1.00  0.00     0.278 HD
ENDROOT
BRANCH   1   9
HETATM    9  C2  UNL     1       5.444  -5.343  27.971  1.00  0.00    -0.017 C 
HETATM   10  C1  UNL     1       3.962  -5.254  28.028  1.00  0.00     0.010 C 
HETATM   11  C3  UNL     1       5.838  -6.711  28.536  1.00  0.00     0.010 C 
ENDBRANCH   1   9
TORSDOF 1
ENDMDL
MODEL 4
REMARK VINA RESULT: -4.480866661      1.815      3.060
REMARK  1 active torsions:
REMARK  status: ('A' for Active; 'I' for Inactive)
REMARK    1  A    between atoms: C2_2  and  C4_4 
ROOT
HETATM    1  C4  UNL     1       6.574  -4.696  29.378  1.00  0.00     0.021 C 
HETATM    2  C5  UNL     1       6.409  -3.874  30.669  1.00  0.00     0.040 C 
HETATM    3  C6  UNL     1       6.350  -2.505  30.034  1.00  0.00     0.189 C 
HETATM    4  C7  UNL     1       5.361  -2.690  28.914  1.00  0.00     0.066 C 
HETATM    5  C8  UNL     1       6.479  -3.580  28.393  1.00  0.00     0.192 C 
HETATM    6  N1  UNL     1       7.388  -2.587  28.992  1.00  0.00    -0.066 N 
ATOM      7  H11 UNL     1       8.366  -2.787  29.201  1.00  0.00     0.278 HD
ATOM      8  H12 UNL     1       7.726  -1.770  28.484  1.00  0.00     0.278 HD
ENDROOT
BRANCH   1   9
HETATM    9  C2  UNL     1       5.496  -5.727  29.238  1.00  0.00    -0.017 C 
HETATM   10  C1  UNL     1       5.716  -6.950  30.051  1.00  0.00     0.010 C 
HETATM   11  C3  UNL     1       5.504  -6.152  27.767  1.00  0.00     0.010 C 
ENDBRANCH   1   9
TORSDOF 1
ENDMDL
MODEL 5
REMARK VINA RESULT: -4.480025088      2.573      3.827
REMARK  1 active torsions:
REMARK  status: ('A' for Active; 'I' for Inactive)
REMARK    1  A    between atoms: C2_2  and  C4_4 
ROOT
HETATM    1  C4  UNL     1       6.023  -3.754  27.512  1.00  0.00     0.021 C 
HETATM    2  C5  UNL     1       7.298  -2.982  27.899  1.00  0.00     0.040 C 
HETATM    3  C6  UNL     1       6.733  -1.586  27.790  1.00  0.00     0.189 C 
HETATM    4  C7  UNL     1       5.435  -1.682  28.546  1.00  0.00     0.066 C 
HETATM    5  C8  UNL     1       5.096  -2.593  27.377  1.00  0.00     0.192 C 
HETATM    6  N1  UNL     1       5.908  -1.665  26.572  1.00  0.00    -0.066 N 
ATOM      7  H11 UNL     1       6.292  -1.915  25.660  1.00  0.00     0.278 HD
ATOM      8  H12 UNL     1       5.517  -0.842  26.116  1.00  0.00     0.278 HD
ENDROOT
BRANCH   1   9
HETATM    9  C2  UNL     1       5.625  -4.733  28.574  1.00  0.00    -0.017 C 
HETATM   10  C1  UNL     1       6.655  -4.940  29.625  1.00  0.00     0.010 C 
HETATM   11  C3  UNL     1       5.426  -6.074  27.863  1.00  0.00     0.010 C 
ENDBRANCH   1   9
TORSDOF 1
ENDMDL
