MODEL 1
REMARK VINA RESULT: -4.874589560      0.000      0.000
REMARK  1 active torsions:
REMARK  status: ('A' for Active; 'I' for Inactive)
REMARK    1  A    between atoms: C4_4  and  C5_5 
ROOT
HETATM    1  C1  UNL     1       6.143  -1.962  31.390  1.00  0.00     0.044 C 
HETATM    2  C2  UNL     1       7.235  -2.653  30.597  1.00  0.00     0.007 C 
HETATM    3  C3  UNL     1       8.119  -3.321  31.648  1.00  0.00     0.026 C 
HETATM    4  C4  UNL     1       8.786  -2.251  32.494  1.00  0.00     0.084 C 
HETATM    5  N1  UNL     1       7.884  -1.296  32.995  1.00  0.00    -0.397 N 
ATOM      6  H1  UNL     1       8.033  -0.894  33.920  1.00  0.00     0.159 HD
HETATM    7  C8  UNL     1       6.789  -0.897  32.235  1.00  0.00     0.056 C 
ENDROOT
BRANCH   4   8
HETATM    8  C5  UNL     1       9.520  -2.989  33.594  1.00  0.00     0.008 A 
HETATM    9  C6  UNL     1      10.111  -2.249  34.731  1.00  0.00     0.007 A 
HETATM   10  C7  UNL     1      11.041  -2.753  33.675  1.00  0.00     0.007 A 
ENDBRANCH   4   8
TORSDOF 1
ENDMDL
MODEL 2
REMARK VINA RESULT: -4.827564576      0.966      3.814
REMARK  1 active torsions:
REMARK  status: ('A' for Active; 'I' for Inactive)
REMARK    1  A    between atoms: C4_4  and  C5_5 
ROOT
HETATM    1  C1  UNL     1      10.908  -1.525  34.470  1.00  0.00     0.044 C 
HETATM    2  C2  UNL     1      11.182  -2.868  33.821  1.00  0.00     0.007 C 
HETATM    3  C3  UNL     1      10.426  -2.823  32.495  1.00  0.00     0.026 C 
HETATM    4  C4  UNL     1       8.935  -2.753  32.770  1.00  0.00     0.084 C 
HETATM    5  N1  UNL     1       8.586  -1.746  33.688  1.00  0.00    -0.397 N 
ATOM      6  H1  UNL     1       7.709  -1.238  33.575  1.00  0.00     0.159 HD
HETATM    7  C8  UNL     1       9.432  -1.440  34.749  1.00  0.00     0.056 C 
ENDROOT
BRANCH   4   8
HETATM    8  C5  UNL     1       8.272  -2.563  31.422  1.00  0.00     0.008 A 
HETATM    9  C6  UNL     1       6.838  -2.209  31.332  1.00  0.00     0.007 A 
HETATM   10  C7  UNL     1       7.223  -3.620  31.025  1.00  0.00     0.007 A 
ENDBRANCH   4   8
TORSDOF 1
ENDMDL
MODEL 3
REMARK VINA RESULT: -4.805691130      3.661      5.104
REMARK  1 active torsions:
REMARK  status: ('A' for Active; 'I' for Inactive)
REMARK    1  A    between atoms: C4_4  and  C5_5 
ROOT
HETATM    1  C1  UNL     1       6.076  -2.262  29.619  1.00  0.00     0.044 C 
HETATM    2  C2  UNL     1       6.975  -2.893  28.572  1.00  0.00     0.007 C 
HETATM    3  C3  UNL     1       6.409  -4.297  28.367  1.00  0.00     0.026 C 
HETATM    4  C4  UNL     1       6.578  -5.097  29.645  1.00  0.00     0.084 C 
HETATM    5  N1  UNL     1       6.105  -4.427  30.787  1.00  0.00    -0.397 N 
ATOM      6  H1  UNL     1       5.665  -4.955  31.540  1.00  0.00     0.159 HD
HETATM    7  C8  UNL     1       6.232  -3.046  30.894  1.00  0.00     0.056 C 
ENDROOT
BRANCH   4   8
HETATM    8  C5  UNL     1       5.867  -6.412  29.408  1.00  0.00     0.008 A 
HETATM    9  C6  UNL     1       5.715  -7.394  30.506  1.00  0.00     0.007 A 
HETATM   10  C7  UNL     1       6.744  -7.679  29.460  1.00  0.00     0.007 A 
ENDBRANCH   4   8
TORSDOF 1
ENDMDL
MODEL 4
REMARK VINA RESULT: -4.631491109      4.098      5.419
REMARK  1 active torsions:
REMARK  status: ('A' for Active; 'I' for Inactive)
REMARK    1  A    between atoms: C4_4  and  C5_5 
ROOT
HETATM    1  C1  UNL     1       6.335  -1.653  28.591  1.00  0.00     0.044 C 
HETATM    2  C2  UNL     1       7.256  -2.487  27.721  1.00  0.00     0.007 C 
HETATM    3  C3  UNL     1       6.534  -3.822  27.553  1.00  0.00     0.026 C 
HETATM    4  C4  UNL     1       6.440  -4.514  28.900  1.00  0.00     0.084 C 
HETATM    5  N1  UNL     1       5.931  -3.686  29.916  1.00  0.00    -0.397 N 
ATOM      6  H1  UNL     1       5.339  -4.083  30.645  1.00  0.00     0.159 HD
HETATM    7  C8  UNL     1       6.232  -2.328  29.932  1.00  0.00     0.056 C 
ENDROOT
BRANCH   4   8
HETATM    8  C5  UNL     1       5.590  -5.747  28.676  1.00  0.00     0.008 A 
HETATM    9  C6  UNL     1       5.105  -6.545  29.824  1.00  0.00     0.007 A 
HETATM   10  C7  UNL     1       6.243  -7.097  29.028  1.00  0.00     0.007 A 
ENDBRANCH   4   8
TORSDOF 1
ENDMDL
MODEL 5
REMARK VINA RESULT: -4.598270829      4.992      6.086
REMARK  1 active torsions:
REMARK  status: ('A' for Active; 'I' for Inactive)
REMARK    1  A    between atoms: C4_4  and  C5_5 
ROOT
HETATM    1  C1  UNL     1       5.587  -6.638  29.249  1.00  0.00     0.044 C 
HETATM    2  C2  UNL     1       4.306  -5.904  28.899  1.00  0.00     0.007 C 
HETATM    3  C3  UNL     1       4.721  -4.870  27.854  1.00  0.00     0.026 C 
HETATM    4  C4  UNL     1       5.658  -3.860  28.493  1.00  0.00     0.084 C 
HETATM    5  N1  UNL     1       6.720  -4.455  29.196  1.00  0.00    -0.397 N 
ATOM      6  H1  UNL     1       7.637  -4.009  29.201  1.00  0.00     0.159 HD
HETATM    7  C8  UNL     1       6.527  -5.649  29.884  1.00  0.00     0.056 C 
ENDROOT
BRANCH   4   8
HETATM    8  C5  UNL     1       6.134  -2.967  27.368  1.00  0.00     0.008 A 
HETATM    9  C6  UNL     1       7.324  -2.103  27.546  1.00  0.00     0.007 A 
HETATM   10  C7  UNL     1       5.981  -1.450  27.592  1.00  0.00     0.007 A 
ENDBRANCH   4   8
TORSDOF 1
ENDMDL
