MODEL 1
REMARK VINA RESULT: -7.850633290      0.000      0.000
REMARK  13 active torsions:
REMARK  status: ('A' for Active; 'I' for Inactive)
REMARK    1  A    between atoms: C2_2  and  N1_3 
REMARK    2  A    between atoms: N1_3  and  C3_5 
REMARK    3  A    between atoms: C3_5  and  N2_7 
REMARK    4  A    between atoms: N2_7  and  C4_9 
REMARK    5  A    between atoms: C4_9  and  C5_10 
REMARK    6  A    between atoms: C5_10  and  C6_11 
REMARK    7  A    between atoms: C6_11  and  N3_12 
REMARK    8  A    between atoms: N4_15  and  C9_16 
REMARK    9  A    between atoms: C9_16  and  O1_17 
REMARK   10  A    between atoms: C9_16  and  N5_19 
REMARK   11  A    between atoms: C14_24  and  C15_25 
REMARK       I    between atoms: C15_25  and  N6_27 
REMARK   12  A    between atoms: N6_27  and  C16_29 
REMARK   13  A    between atoms: C16_29  and  C17_30 
ROOT
HETATM    1  C9  UNL     1       4.228   5.170  21.691  1.00  0.00     0.219 C 
ENDROOT
BRANCH   1   2
HETATM    2  N4  UNL     1       4.661   6.340  22.314  1.00  0.00    -0.330 N 
HETATM    3  C8  UNL     1       4.462   6.611  23.756  1.00  0.00     0.148 C 
HETATM    4  C7  UNL     1       5.730   7.399  24.139  1.00  0.00     0.143 C 
HETATM    5  N3  UNL     1       6.335   7.762  22.963  1.00  0.00    -0.372 N 
HETATM    6  C22 UNL     1       5.378   7.483  21.879  1.00  0.00     0.252 C 
BRANCH   5   7
HETATM    7  C6  UNL     1       7.656   7.503  22.671  1.00  0.00     0.088 C 
BRANCH   7   8
HETATM    8  C5  UNL     1       8.703   8.533  22.527  1.00  0.00     0.034 C 
BRANCH   8   9
HETATM    9  C4  UNL     1       8.965   9.566  23.516  1.00  0.00     0.092 C 
BRANCH   9  10
HETATM   10  N2  UNL     1       9.918   9.434  24.543  1.00  0.00    -0.343 N 
ATOM     11  H2  UNL     1      10.384  10.321  24.732  1.00  0.00     0.167 HD
BRANCH  10  12
HETATM   12  C3  UNL     1      10.396   8.435  25.362  1.00  0.00     0.171 C 
HETATM   13  S1  UNL     1       9.158   7.593  26.202  1.00  0.00    -0.041 SA
BRANCH  12  14
HETATM   14  N1  UNL     1      11.651   7.959  25.657  1.00  0.00    -0.367 N 
ATOM     15  H1  UNL     1      12.312   8.019  24.884  1.00  0.00     0.161 HD
BRANCH  14  16
HETATM   16  C2  UNL     1      12.197   7.394  26.852  1.00  0.00     0.117 C 
HETATM   17  C1  UNL     1      13.675   7.264  26.777  1.00  0.00     0.026 C 
ENDBRANCH  14  16
ENDBRANCH  12  14
ENDBRANCH  10  12
ENDBRANCH   9  10
ENDBRANCH   8   9
ENDBRANCH   7   8
ENDBRANCH   5   7
ENDBRANCH   1   2
BRANCH   1  18
HETATM   18  O1  UNL     1       3.821   5.361  20.464  1.00  0.00    -0.332 OA
ATOM     19  H1  UNL     1       3.486   4.573  20.054  1.00  0.00     0.220 HD
ENDBRANCH   1  18
BRANCH   1  20
HETATM   20  N5  UNL     1       4.163   3.854  22.173  1.00  0.00    -0.333 N 
HETATM   21  C10 UNL     1       3.090   3.254  22.992  1.00  0.00     0.132 C 
HETATM   22  C11 UNL     1       2.706   2.106  22.118  1.00  0.00     0.011 A 
HETATM   23  C12 UNL     1       3.360   0.783  22.260  1.00  0.00     0.014 A 
HETATM   24  C13 UNL     1       4.034   1.733  21.379  1.00  0.00     0.024 A 
HETATM   25  C14 UNL     1       5.030   2.708  22.031  1.00  0.00     0.184 C 
BRANCH  25  26
HETATM   26  C15 UNL     1       6.239   2.810  21.268  1.00  0.00     0.241 C 
HETATM   27  O2  UNL     1       6.996   3.801  21.309  1.00  0.00    -0.271 OA
HETATM   28  N6  UNL     1       6.629   1.738  20.404  1.00  0.00    -0.359 N 
ATOM     29  H6  UNL     1       6.028   0.916  20.343  1.00  0.00     0.162 HD
BRANCH  28  30
HETATM   30  C16 UNL     1       7.829   1.772  19.623  1.00  0.00     0.127 C 
BRANCH  30  31
HETATM   31  C17 UNL     1       8.116   0.425  19.003  1.00  0.00     0.003 C 
HETATM   32  C18 UNL     1       9.525   0.289  18.522  1.00  0.00     0.006 C 
HETATM   33  C19 UNL     1       9.488  -0.752  17.443  1.00  0.00     0.000 C 
HETATM   34  C20 UNL     1       8.043  -0.888  17.033  1.00  0.00     0.000 C 
HETATM   35  C21 UNL     1       7.276   0.158  17.791  1.00  0.00     0.006 C 
ENDBRANCH  30  31
ENDBRANCH  28  30
ENDBRANCH  25  26
ENDBRANCH   1  20
TORSDOF 13
ENDMDL
MODEL 2
REMARK VINA RESULT: -7.768061314      1.659      2.266
REMARK  13 active torsions:
REMARK  status: ('A' for Active; 'I' for Inactive)
REMARK    1  A    between atoms: C2_2  and  N1_3 
REMARK    2  A    between atoms: N1_3  and  C3_5 
REMARK    3  A    between atoms: C3_5  and  N2_7 
REMARK    4  A    between atoms: N2_7  and  C4_9 
REMARK    5  A    between atoms: C4_9  and  C5_10 
REMARK    6  A    between atoms: C5_10  and  C6_11 
REMARK    7  A    between atoms: C6_11  and  N3_12 
REMARK    8  A    between atoms: N4_15  and  C9_16 
REMARK    9  A    between atoms: C9_16  and  O1_17 
REMARK   10  A    between atoms: C9_16  and  N5_19 
REMARK   11  A    between atoms: C14_24  and  C15_25 
REMARK       I    between atoms: C15_25  and  N6_27 
REMARK   12  A    between atoms: N6_27  and  C16_29 
REMARK   13  A    between atoms: C16_29  and  C17_30 
ROOT
HETATM    1  C9  UNL     1       4.561   4.332  22.101  1.00  0.00     0.219 C 
ENDROOT
BRANCH   1   2
HETATM    2  N4  UNL     1       5.143   5.288  21.269  1.00  0.00    -0.330 N 
HETATM    3  C8  UNL     1       4.458   5.857  20.086  1.00  0.00     0.148 C 
HETATM    4  C7  UNL     1       4.967   7.312  20.059  1.00  0.00     0.143 C 
HETATM    5  N3  UNL     1       6.027   7.372  20.926  1.00  0.00    -0.372 N 
HETATM    6  C22 UNL     1       6.376   5.986  21.281  1.00  0.00     0.252 C 
BRANCH   5   7
HETATM    7  C6  UNL     1       6.128   8.291  21.948  1.00  0.00     0.088 C 
BRANCH   7   8
HETATM    8  C5  UNL     1       5.348   8.245  23.200  1.00  0.00     0.034 C 
BRANCH   8   9
HETATM    9  C4  UNL     1       5.906   7.876  24.490  1.00  0.00     0.092 C 
BRANCH   9  10
HETATM   10  N2  UNL     1       7.207   7.364  24.655  1.00  0.00    -0.343 N 
ATOM     11  H2  UNL     1       7.251   6.378  24.403  1.00  0.00     0.167 HD
BRANCH  10  12
HETATM   12  C3  UNL     1       8.437   7.830  25.064  1.00  0.00     0.171 C 
HETATM   13  S1  UNL     1       9.091   9.028  24.024  1.00  0.00    -0.041 SA
BRANCH  12  14
HETATM   14  N1  UNL     1       9.260   7.548  26.128  1.00  0.00    -0.367 N 
ATOM     15  H1  UNL     1       8.820   6.991  26.860  1.00  0.00     0.161 HD
BRANCH  14  16
HETATM   16  C2  UNL     1      10.621   7.896  26.395  1.00  0.00     0.117 C 
HETATM   17  C1  UNL     1      11.192   7.087  27.503  1.00  0.00     0.026 C 
ENDBRANCH  14  16
ENDBRANCH  12  14
ENDBRANCH  10  12
ENDBRANCH   9  10
ENDBRANCH   8   9
ENDBRANCH   7   8
ENDBRANCH   5   7
ENDBRANCH   1   2
BRANCH   1  18
HETATM   18  O1  UNL     1       4.582   4.667  23.364  1.00  0.00    -0.332 OA
ATOM     19  H1  UNL     1       4.018   4.127  23.905  1.00  0.00     0.220 HD
ENDBRANCH   1  18
BRANCH   1  20
HETATM   20  N5  UNL     1       3.974   3.095  21.794  1.00  0.00    -0.333 N 
HETATM   21  C10 UNL     1       2.537   2.752  21.838  1.00  0.00     0.132 C 
HETATM   22  C11 UNL     1       2.335   2.297  20.430  1.00  0.00     0.011 A 
HETATM   23  C12 UNL     1       2.518   0.874  20.052  1.00  0.00     0.014 A 
HETATM   24  C13 UNL     1       3.723   1.699  20.024  1.00  0.00     0.024 A 
HETATM   25  C14 UNL     1       4.510   1.834  21.340  1.00  0.00     0.184 C 
BRANCH  25  26
HETATM   26  C15 UNL     1       5.919   1.688  21.124  1.00  0.00     0.241 C 
HETATM   27  O2  UNL     1       6.764   1.744  22.041  1.00  0.00    -0.271 OA
HETATM   28  N6  UNL     1       6.419   1.464  19.802  1.00  0.00    -0.359 N 
ATOM     29  H6  UNL     1       5.755   1.420  19.029  1.00  0.00     0.162 HD
BRANCH  28  30
HETATM   30  C16 UNL     1       7.814   1.299  19.520  1.00  0.00     0.127 C 
BRANCH  30  31
HETATM   31  C17 UNL     1       8.026   0.682  18.158  1.00  0.00     0.003 C 
HETATM   32  C18 UNL     1       6.854  -0.119  17.689  1.00  0.00     0.006 C 
HETATM   33  C19 UNL     1       7.406  -1.117  16.713  1.00  0.00     0.000 C 
HETATM   34  C20 UNL     1       8.895  -1.161  16.948  1.00  0.00     0.000 C 
HETATM   35  C21 UNL     1       9.174  -0.281  18.134  1.00  0.00     0.006 C 
ENDBRANCH  30  31
ENDBRANCH  28  30
ENDBRANCH  25  26
ENDBRANCH   1  20
TORSDOF 13
ENDMDL
MODEL 3
REMARK VINA RESULT: -7.735997881      2.099      2.870
REMARK  13 active torsions:
REMARK  status: ('A' for Active; 'I' for Inactive)
REMARK    1  A    between atoms: C2_2  and  N1_3 
REMARK    2  A    between atoms: N1_3  and  C3_5 
REMARK    3  A    between atoms: C3_5  and  N2_7 
REMARK    4  A    between atoms: N2_7  and  C4_9 
REMARK    5  A    between atoms: C4_9  and  C5_10 
REMARK    6  A    between atoms: C5_10  and  C6_11 
REMARK    7  A    between atoms: C6_11  and  N3_12 
REMARK    8  A    between atoms: N4_15  and  C9_16 
REMARK    9  A    between atoms: C9_16  and  O1_17 
REMARK   10  A    between atoms: C9_16  and  N5_19 
REMARK   11  A    between atoms: C14_24  and  C15_25 
REMARK       I    between atoms: C15_25  and  N6_27 
REMARK   12  A    between atoms: N6_27  and  C16_29 
REMARK   13  A    between atoms: C16_29  and  C17_30 
ROOT
HETATM    1  C9  UNL     1       3.840   4.203  22.797  1.00  0.00     0.219 C 
ENDROOT
BRANCH   1   2
HETATM    2  N4  UNL     1       4.497   4.971  21.837  1.00  0.00    -0.330 N 
HETATM    3  C8  UNL     1       3.937   5.243  20.494  1.00  0.00     0.148 C 
HETATM    4  C7  UNL     1       4.430   6.672  20.195  1.00  0.00     0.143 C 
HETATM    5  N3  UNL     1       5.391   6.958  21.131  1.00  0.00    -0.372 N 
HETATM    6  C22 UNL     1       5.715   5.696  21.819  1.00  0.00     0.252 C 
BRANCH   5   7
HETATM    7  C6  UNL     1       5.373   8.082  21.927  1.00  0.00     0.088 C 
BRANCH   7   8
HETATM    8  C5  UNL     1       5.407   8.068  23.402  1.00  0.00     0.034 C 
BRANCH   8   9
HETATM    9  C4  UNL     1       6.488   8.632  24.193  1.00  0.00     0.092 C 
BRANCH   9  10
HETATM   10  N2  UNL     1       7.833   8.241  24.060  1.00  0.00    -0.343 N 
ATOM     11  H2  UNL     1       7.986   7.307  24.439  1.00  0.00     0.167 HD
BRANCH  10  12
HETATM   12  C3  UNL     1       9.000   8.774  23.558  1.00  0.00     0.171 C 
HETATM   13  S1  UNL     1      10.205   9.023  24.755  1.00  0.00    -0.041 SA
BRANCH  12  14
HETATM   14  N1  UNL     1       9.417   9.150  22.304  1.00  0.00    -0.367 N 
ATOM     15  H1  UNL     1      10.424   9.290  22.223  1.00  0.00     0.161 HD
BRANCH  14  16
HETATM   16  C2  UNL     1       8.695   9.380  21.091  1.00  0.00     0.117 C 
HETATM   17  C1  UNL     1       8.669   8.174  20.225  1.00  0.00     0.026 C 
ENDBRANCH  14  16
ENDBRANCH  12  14
ENDBRANCH  10  12
ENDBRANCH   9  10
ENDBRANCH   8   9
ENDBRANCH   7   8
ENDBRANCH   5   7
ENDBRANCH   1   2
BRANCH   1  18
HETATM   18  O1  UNL     1       3.271   4.921  23.730  1.00  0.00    -0.332 OA
ATOM     19  H1  UNL     1       2.918   4.399  24.441  1.00  0.00     0.220 HD
ENDBRANCH   1  18
BRANCH   1  20
HETATM   20  N5  UNL     1       3.703   2.811  22.911  1.00  0.00    -0.333 N 
HETATM   21  C10 UNL     1       2.717   2.074  23.728  1.00  0.00     0.132 C 
HETATM   22  C11 UNL     1       2.064   1.250  22.667  1.00  0.00     0.011 A 
HETATM   23  C12 UNL     1       2.575  -0.098  22.321  1.00  0.00     0.014 A 
HETATM   24  C13 UNL     1       3.200   1.018  21.616  1.00  0.00     0.024 A 
HETATM   25  C14 UNL     1       4.396   1.699  22.305  1.00  0.00     0.184 C 
BRANCH  25  26
HETATM   26  C15 UNL     1       5.466   1.936  21.382  1.00  0.00     0.241 C 
HETATM   27  O2  UNL     1       6.606   2.302  21.731  1.00  0.00    -0.271 OA
HETATM   28  N6  UNL     1       5.252   1.752  19.979  1.00  0.00    -0.359 N 
ATOM     29  H6  UNL     1       4.328   1.459  19.659  1.00  0.00     0.162 HD
BRANCH  28  30
HETATM   30  C16 UNL     1       6.281   1.961  19.005  1.00  0.00     0.127 C 
BRANCH  30  31
HETATM   31  C17 UNL     1       7.139   0.728  18.843  1.00  0.00     0.003 C 
HETATM   32  C18 UNL     1       8.577   0.968  19.176  1.00  0.00     0.006 C 
HETATM   33  C19 UNL     1       9.350  -0.067  18.412  1.00  0.00     0.000 C 
HETATM   34  C20 UNL     1       8.417  -0.596  17.352  1.00  0.00     0.000 C 
HETATM   35  C21 UNL     1       7.158   0.219  17.434  1.00  0.00     0.006 C 
ENDBRANCH  30  31
ENDBRANCH  28  30
ENDBRANCH  25  26
ENDBRANCH   1  20
TORSDOF 13
ENDMDL
MODEL 4
REMARK VINA RESULT: -7.724067823      2.038      2.581
REMARK  13 active torsions:
REMARK  status: ('A' for Active; 'I' for Inactive)
REMARK    1  A    between atoms: C2_2  and  N1_3 
REMARK    2  A    between atoms: N1_3  and  C3_5 
REMARK    3  A    between atoms: C3_5  and  N2_7 
REMARK    4  A    between atoms: N2_7  and  C4_9 
REMARK    5  A    between atoms: C4_9  and  C5_10 
REMARK    6  A    between atoms: C5_10  and  C6_11 
REMARK    7  A    between atoms: C6_11  and  N3_12 
REMARK    8  A    between atoms: N4_15  and  C9_16 
REMARK    9  A    between atoms: C9_16  and  O1_17 
REMARK   10  A    between atoms: C9_16  and  N5_19 
REMARK   11  A    between atoms: C14_24  and  C15_25 
REMARK       I    between atoms: C15_25  and  N6_27 
REMARK   12  A    between atoms: N6_27  and  C16_29 
REMARK   13  A    between atoms: C16_29  and  C17_30 
ROOT
HETATM    1  C9  UNL     1       4.145   4.313  22.510  1.00  0.00     0.219 C 
ENDROOT
BRANCH   1   2
HETATM    2  N4  UNL     1       4.003   5.157  21.409  1.00  0.00    -0.330 N 
HETATM    3  C8  UNL     1       2.761   5.910  21.120  1.00  0.00     0.148 C 
HETATM    4  C7  UNL     1       3.287   7.223  20.506  1.00  0.00     0.143 C 
HETATM    5  N3  UNL     1       4.612   7.017  20.221  1.00  0.00    -0.372 N 
HETATM    6  C22 UNL     1       4.870   5.575  20.368  1.00  0.00     0.252 C 
BRANCH   5   7
HETATM    7  C6  UNL     1       5.624   7.849  20.649  1.00  0.00     0.088 C 
BRANCH   7   8
HETATM    8  C5  UNL     1       7.032   7.442  20.815  1.00  0.00     0.034 C 
BRANCH   8   9
HETATM    9  C4  UNL     1       7.604   6.993  22.074  1.00  0.00     0.092 C 
BRANCH   9  10
HETATM   10  N2  UNL     1       6.910   7.028  23.298  1.00  0.00    -0.343 N 
ATOM     11  H2  UNL     1       6.246   6.257  23.368  1.00  0.00     0.167 HD
BRANCH  10  12
HETATM   12  C3  UNL     1       6.880   7.816  24.426  1.00  0.00     0.171 C 
HETATM   13  S1  UNL     1       5.433   8.726  24.584  1.00  0.00    -0.041 SA
BRANCH  12  14
HETATM   14  N1  UNL     1       7.757   8.035  25.462  1.00  0.00    -0.367 N 
ATOM     15  H1  UNL     1       7.310   8.319  26.334  1.00  0.00     0.161 HD
BRANCH  14  16
HETATM   16  C2  UNL     1       9.182   7.937  25.539  1.00  0.00     0.117 C 
HETATM   17  C1  UNL     1       9.853   8.932  24.664  1.00  0.00     0.026 C 
ENDBRANCH  14  16
ENDBRANCH  12  14
ENDBRANCH  10  12
ENDBRANCH   9  10
ENDBRANCH   8   9
ENDBRANCH   7   8
ENDBRANCH   5   7
ENDBRANCH   1   2
BRANCH   1  18
HETATM   18  O1  UNL     1       4.605   4.922  23.570  1.00  0.00    -0.332 OA
ATOM     19  H1  UNL     1       5.175   4.376  24.098  1.00  0.00     0.220 HD
ENDBRANCH   1  18
BRANCH   1  20
HETATM   20  N5  UNL     1       3.876   2.942  22.645  1.00  0.00    -0.333 N 
HETATM   21  C10 UNL     1       3.051   2.291  23.683  1.00  0.00     0.132 C 
HETATM   22  C11 UNL     1       2.055   1.587  22.821  1.00  0.00     0.011 A 
HETATM   23  C12 UNL     1       2.297   0.204  22.346  1.00  0.00     0.014 A 
HETATM   24  C13 UNL     1       2.850   1.266  21.512  1.00  0.00     0.024 A 
HETATM   25  C14 UNL     1       4.254   1.782  21.873  1.00  0.00     0.184 C 
BRANCH  25  26
HETATM   26  C15 UNL     1       5.075   1.930  20.707  1.00  0.00     0.241 C 
HETATM   27  O2  UNL     1       4.615   2.124  19.564  1.00  0.00    -0.271 OA
HETATM   28  N6  UNL     1       6.499   1.857  20.824  1.00  0.00    -0.359 N 
ATOM     29  H6  UNL     1       6.907   1.692  21.745  1.00  0.00     0.162 HD
BRANCH  28  30
HETATM   30  C16 UNL     1       7.376   2.006  19.701  1.00  0.00     0.127 C 
BRANCH  30  31
HETATM   31  C17 UNL     1       7.791   0.662  19.150  1.00  0.00     0.003 C 
HETATM   32  C18 UNL     1       9.247   0.589  18.820  1.00  0.00     0.006 C 
HETATM   33  C19 UNL     1       9.374  -0.476  17.771  1.00  0.00     0.000 C 
HETATM   34  C20 UNL     1       7.988  -0.694  17.218  1.00  0.00     0.000 C 
HETATM   35  C21 UNL     1       7.096   0.327  17.866  1.00  0.00     0.006 C 
ENDBRANCH  30  31
ENDBRANCH  28  30
ENDBRANCH  25  26
ENDBRANCH   1  20
TORSDOF 13
ENDMDL
MODEL 5
REMARK VINA RESULT: -7.647699231      3.534      8.285
REMARK  13 active torsions:
REMARK  status: ('A' for Active; 'I' for Inactive)
REMARK    1  A    between atoms: C2_2  and  N1_3 
REMARK    2  A    between atoms: N1_3  and  C3_5 
REMARK    3  A    between atoms: C3_5  and  N2_7 
REMARK    4  A    between atoms: N2_7  and  C4_9 
REMARK    5  A    between atoms: C4_9  and  C5_10 
REMARK    6  A    between atoms: C5_10  and  C6_11 
REMARK    7  A    between atoms: C6_11  and  N3_12 
REMARK    8  A    between atoms: N4_15  and  C9_16 
REMARK    9  A    between atoms: C9_16  and  O1_17 
REMARK   10  A    between atoms: C9_16  and  N5_19 
REMARK   11  A    between atoms: C14_24  and  C15_25 
REMARK       I    between atoms: C15_25  and  N6_27 
REMARK   12  A    between atoms: N6_27  and  C16_29 
REMARK   13  A    between atoms: C16_29  and  C17_30 
ROOT
HETATM    1  C9  UNL     1       7.453   6.951  21.602  1.00  0.00     0.219 C 
ENDROOT
BRANCH   1   2
HETATM    2  N4  UNL     1       6.628   5.920  21.153  1.00  0.00    -0.330 N 
HETATM    3  C8  UNL     1       7.109   4.539  20.923  1.00  0.00     0.148 C 
HETATM    4  C7  UNL     1       5.895   3.677  21.324  1.00  0.00     0.143 C 
HETATM    5  N3  UNL     1       4.828   4.532  21.430  1.00  0.00    -0.372 N 
HETATM    6  C22 UNL     1       5.246   5.822  20.855  1.00  0.00     0.252 C 
BRANCH   5   7
HETATM    7  C6  UNL     1       4.019   4.610  22.542  1.00  0.00     0.088 C 
BRANCH   7   8
HETATM    8  C5  UNL     1       3.641   5.865  23.220  1.00  0.00     0.034 C 
BRANCH   8   9
HETATM    9  C4  UNL     1       2.373   6.068  23.901  1.00  0.00     0.092 C 
BRANCH   9  10
HETATM   10  N2  UNL     1       1.664   7.284  23.878  1.00  0.00    -0.343 N 
ATOM     11  H2  UNL     1       1.049   7.337  23.067  1.00  0.00     0.167 HD
BRANCH  10  12
HETATM   12  C3  UNL     1       1.574   8.421  24.648  1.00  0.00     0.171 C 
HETATM   13  S1  UNL     1       0.161   8.475  25.620  1.00  0.00    -0.041 SA
BRANCH  12  14
HETATM   14  N1  UNL     1       2.372   9.529  24.814  1.00  0.00    -0.367 N 
ATOM     15  H1  UNL     1       2.060  10.349  24.295  1.00  0.00     0.161 HD
BRANCH  14  16
HETATM   16  C2  UNL     1       3.559   9.739  25.583  1.00  0.00     0.117 C 
HETATM   17  C1  UNL     1       4.725   9.020  25.008  1.00  0.00     0.026 C 
ENDBRANCH  14  16
ENDBRANCH  12  14
ENDBRANCH  10  12
ENDBRANCH   9  10
ENDBRANCH   8   9
ENDBRANCH   7   8
ENDBRANCH   5   7
ENDBRANCH   1   2
BRANCH   1  18
HETATM   18  O1  UNL     1       7.900   6.761  22.815  1.00  0.00    -0.332 OA
ATOM     19  H1  UNL     1       7.245   6.917  23.485  1.00  0.00     0.220 HD
ENDBRANCH   1  18
BRANCH   1  20
HETATM   20  N5  UNL     1       7.862   8.132  20.964  1.00  0.00    -0.333 N 
HETATM   21  C10 UNL     1       7.752   8.455  19.527  1.00  0.00     0.132 C 
HETATM   22  C11 UNL     1       6.956   9.717  19.604  1.00  0.00     0.011 A 
HETATM   23  C12 UNL     1       7.622  11.037  19.705  1.00  0.00     0.014 A 
HETATM   24  C13 UNL     1       7.382  10.349  20.970  1.00  0.00     0.024 A 
HETATM   25  C14 UNL     1       8.459   9.356  21.443  1.00  0.00     0.184 C 
BRANCH  25  26
HETATM   26  C15 UNL     1       8.746   9.519  22.838  1.00  0.00     0.241 C 
HETATM   27  O2  UNL     1       7.879   9.800  23.689  1.00  0.00    -0.271 OA
HETATM   28  N6  UNL     1      10.085   9.356  23.314  1.00  0.00    -0.359 N 
ATOM     29  H6  UNL     1      10.820   9.132  22.642  1.00  0.00     0.162 HD
BRANCH  28  30
HETATM   30  C16 UNL     1      10.438   9.495  24.695  1.00  0.00     0.127 C 
BRANCH  30  31
HETATM   31  C17 UNL     1      10.467   8.154  25.389  1.00  0.00     0.003 C 
HETATM   32  C18 UNL     1       9.222   7.870  26.167  1.00  0.00     0.006 C 
HETATM   33  C19 UNL     1       9.623   6.893  27.233  1.00  0.00     0.000 C 
HETATM   34  C20 UNL     1      11.127   6.954  27.322  1.00  0.00     0.000 C 
HETATM   35  C21 UNL     1      11.573   8.049  26.394  1.00  0.00     0.006 C 
ENDBRANCH  30  31
ENDBRANCH  28  30
ENDBRANCH  25  26
ENDBRANCH   1  20
TORSDOF 13
ENDMDL
