MODEL 1
REMARK VINA RESULT: -8.615706631      0.000      0.000
REMARK  9 active torsions:
REMARK  status: ('A' for Active; 'I' for Inactive)
REMARK    1  A    between atoms: C2_2  and  C3_3 
REMARK    2  A    between atoms: C3_3  and  C4_4 
REMARK    3  A    between atoms: C4_4  and  N1_5 
REMARK       I    between atoms: N1_5  and  C5_7 
REMARK    4  A    between atoms: C5_7  and  C6_9 
REMARK    5  A    between atoms: C6_9  and  N2_10 
REMARK    6  A    between atoms: N3_13  and  C9_14 
REMARK    7  A    between atoms: C9_14  and  N4_16 
REMARK    8  A    between atoms: N4_16  and  C10_18 
REMARK    9  A    between atoms: N5_21  and  C13_23 
ROOT
HETATM    1  N2  UNL     1       5.036   6.352  21.240  1.00  0.00    -0.401 N 
HETATM    2  C7  UNL     1       4.801   7.381  22.190  1.00  0.00     0.137 C 
HETATM    3  C8  UNL     1       5.536   8.662  21.817  1.00  0.00     0.144 C 
HETATM    4  N3  UNL     1       6.947   8.408  21.675  1.00  0.00    -0.355 N 
HETATM    5  C15 UNL     1       7.374   7.032  21.518  1.00  0.00     0.144 C 
HETATM    6  C16 UNL     1       6.359   6.228  20.736  1.00  0.00     0.137 C 
ENDROOT
BRANCH   4   7
HETATM    7  C9  UNL     1       7.859   9.496  21.690  1.00  0.00     0.170 C 
HETATM    8  S1  UNL     1       7.884  10.454  20.371  1.00  0.00    -0.041 SA
BRANCH   7   9
HETATM    9  N4  UNL     1       8.705   9.772  22.770  1.00  0.00    -0.353 N 
ATOM     10  H4  UNL     1       8.951  10.752  22.907  1.00  0.00     0.162 HD
BRANCH   9  11
HETATM   11  C10 UNL     1       9.265   8.849  23.702  1.00  0.00     0.183 C 
HETATM   12  C11 UNL     1      10.563   9.252  24.316  1.00  0.00     0.111 C 
HETATM   13  C12 UNL     1      10.617   8.400  25.542  1.00  0.00     0.088 C 
HETATM   14  N5  UNL     1      11.643   7.865  26.090  1.00  0.00    -0.324 N 
HETATM   15  N6  UNL     1       9.264   8.314  25.969  1.00  0.00    -0.315 N 
ATOM     16  H5  UNL     1      12.550   8.026  25.654  1.00  0.00     0.169 HD
HETATM   17  C14 UNL     1       8.390   8.667  24.908  1.00  0.00     0.246 C 
ATOM     18  H6  UNL     1       8.965   8.039  26.904  1.00  0.00     0.170 HD
HETATM   19  O3  UNL     1       7.141   8.801  24.958  1.00  0.00    -0.271 OA
BRANCH  14  20
HETATM   20  C13 UNL     1      11.608   7.072  27.248  1.00  0.00     0.354 C 
HETATM   21  O2  UNL     1      10.668   6.311  27.581  1.00  0.00    -0.283 OA
ENDBRANCH  14  20
ENDBRANCH   9  11
ENDBRANCH   7   9
ENDBRANCH   4   7
BRANCH   1  22
HETATM   22  C6  UNL     1       3.976   6.120  20.317  1.00  0.00     0.219 C 
BRANCH  22  23
HETATM   23  C5  UNL     1       4.038   4.764  19.724  1.00  0.00     0.235 C 
HETATM   24  N1  UNL     1       4.729   4.523  18.475  1.00  0.00    -0.360 N 
ATOM     25  H1  UNL     1       5.187   5.291  17.984  1.00  0.00     0.162 HD
HETATM   26  O1  UNL     1       3.495   3.790  20.286  1.00  0.00    -0.272 OA
BRANCH  24  27
HETATM   27  C4  UNL     1       4.764   3.193  17.934  1.00  0.00     0.123 C 
BRANCH  27  28
HETATM   28  C3  UNL     1       6.040   2.484  17.857  1.00  0.00     0.029 C 
BRANCH  28  29
HETATM   29  C2  UNL     1       6.336   1.325  18.713  1.00  0.00    -0.043 C 
HETATM   30  C1  UNL     1       5.427   1.239  19.933  1.00  0.00     0.015 C 
HETATM   31  C17 UNL     1       6.355   0.007  18.060  1.00  0.00     0.009 C 
HETATM   32  C18 UNL     1       7.450  -0.137  16.996  1.00  0.00     0.001 C 
HETATM   33  C19 UNL     1       8.781   0.048  17.655  1.00  0.00     0.000 C 
HETATM   34  C20 UNL     1       8.633   0.407  19.134  1.00  0.00     0.001 C 
HETATM   35  C21 UNL     1       7.737   1.588  19.327  1.00  0.00     0.009 C 
ENDBRANCH  28  29
ENDBRANCH  27  28
ENDBRANCH  24  27
ENDBRANCH  22  23
ENDBRANCH   1  22
TORSDOF 9
ENDMDL
MODEL 2
REMARK VINA RESULT: -8.564304131      1.733      1.950
REMARK  9 active torsions:
REMARK  status: ('A' for Active; 'I' for Inactive)
REMARK    1  A    between atoms: C2_2  and  C3_3 
REMARK    2  A    between atoms: C3_3  and  C4_4 
REMARK    3  A    between atoms: C4_4  and  N1_5 
REMARK       I    between atoms: N1_5  and  C5_7 
REMARK    4  A    between atoms: C5_7  and  C6_9 
REMARK    5  A    between atoms: C6_9  and  N2_10 
REMARK    6  A    between atoms: N3_13  and  C9_14 
REMARK    7  A    between atoms: C9_14  and  N4_16 
REMARK    8  A    between atoms: N4_16  and  C10_18 
REMARK    9  A    between atoms: N5_21  and  C13_23 
ROOT
HETATM    1  N2  UNL     1       4.966   5.595  20.653  1.00  0.00    -0.401 N 
HETATM    2  C7  UNL     1       4.201   5.595  21.849  1.00  0.00     0.137 C 
HETATM    3  C8  UNL     1       4.261   6.947  22.548  1.00  0.00     0.144 C 
HETATM    4  N3  UNL     1       5.629   7.314  22.815  1.00  0.00    -0.355 N 
HETATM    5  C15 UNL     1       6.670   6.615  22.089  1.00  0.00     0.144 C 
HETATM    6  C16 UNL     1       6.221   6.262  20.688  1.00  0.00     0.137 C 
ENDROOT
BRANCH   4   7
HETATM    7  C9  UNL     1       5.908   8.334  23.762  1.00  0.00     0.170 C 
HETATM    8  S1  UNL     1       4.726   8.694  24.826  1.00  0.00    -0.041 SA
BRANCH   7   9
HETATM    9  N4  UNL     1       7.129   9.014  23.818  1.00  0.00    -0.353 N 
ATOM     10  H4  UNL     1       7.313   9.669  23.059  1.00  0.00     0.162 HD
BRANCH   9  11
HETATM   11  C10 UNL     1       8.150   8.902  24.810  1.00  0.00     0.183 C 
HETATM   12  C11 UNL     1       8.280   7.567  25.460  1.00  0.00     0.111 C 
HETATM   13  C12 UNL     1       9.665   7.616  26.017  1.00  0.00     0.088 C 
HETATM   14  N5  UNL     1      10.100   7.101  27.106  1.00  0.00    -0.324 N 
HETATM   15  N6  UNL     1      10.402   8.366  25.061  1.00  0.00    -0.315 N 
ATOM     16  H5  UNL     1       9.435   6.588  27.685  1.00  0.00     0.169 HD
HETATM   17  C14 UNL     1       9.519   9.107  24.231  1.00  0.00     0.246 C 
ATOM     18  H6  UNL     1      11.418   8.371  24.983  1.00  0.00     0.170 HD
HETATM   19  O3  UNL     1       9.815   9.794  23.221  1.00  0.00    -0.271 OA
BRANCH  14  20
HETATM   20  C13 UNL     1      11.424   7.193  27.562  1.00  0.00     0.354 C 
HETATM   21  O2  UNL     1      12.446   7.191  26.833  1.00  0.00    -0.283 OA
ENDBRANCH  14  20
ENDBRANCH   9  11
ENDBRANCH   7   9
ENDBRANCH   4   7
BRANCH   1  22
HETATM   22  C6  UNL     1       4.215   5.710  19.448  1.00  0.00     0.219 C 
BRANCH  22  23
HETATM   23  C5  UNL     1       4.162   4.434  18.699  1.00  0.00     0.235 C 
HETATM   24  N1  UNL     1       4.971   4.223  17.517  1.00  0.00    -0.360 N 
ATOM     25  H1  UNL     1       5.596   4.958  17.184  1.00  0.00     0.162 HD
HETATM   26  O1  UNL     1       3.415   3.503  19.066  1.00  0.00    -0.272 OA
BRANCH  24  27
HETATM   27  C4  UNL     1       4.888   2.971  16.819  1.00  0.00     0.123 C 
BRANCH  27  28
HETATM   28  C3  UNL     1       6.001   2.027  16.905  1.00  0.00     0.029 C 
BRANCH  28  29
HETATM   29  C2  UNL     1       6.027   0.947  17.903  1.00  0.00    -0.043 C 
HETATM   30  C1  UNL     1       4.639   0.425  18.250  1.00  0.00     0.015 C 
HETATM   31  C17 UNL     1       6.892  -0.207  17.608  1.00  0.00     0.009 C 
HETATM   32  C18 UNL     1       8.383   0.146  17.529  1.00  0.00     0.001 C 
HETATM   33  C19 UNL     1       8.813   0.692  18.855  1.00  0.00     0.000 C 
HETATM   34  C20 UNL     1       7.636   0.813  19.824  1.00  0.00     0.001 C 
HETATM   35  C21 UNL     1       6.510   1.595  19.228  1.00  0.00     0.009 C 
ENDBRANCH  28  29
ENDBRANCH  27  28
ENDBRANCH  24  27
ENDBRANCH  22  23
ENDBRANCH   1  22
TORSDOF 9
ENDMDL
MODEL 3
REMARK VINA RESULT: -8.390671973      1.214      1.943
REMARK  9 active torsions:
REMARK  status: ('A' for Active; 'I' for Inactive)
REMARK    1  A    between atoms: C2_2  and  C3_3 
REMARK    2  A    between atoms: C3_3  and  C4_4 
REMARK    3  A    between atoms: C4_4  and  N1_5 
REMARK       I    between atoms: N1_5  and  C5_7 
REMARK    4  A    between atoms: C5_7  and  C6_9 
REMARK    5  A    between atoms: C6_9  and  N2_10 
REMARK    6  A    between atoms: N3_13  and  C9_14 
REMARK    7  A    between atoms: C9_14  and  N4_16 
REMARK    8  A    between atoms: N4_16  and  C10_18 
REMARK    9  A    between atoms: N5_21  and  C13_23 
ROOT
HETATM    1  N2  UNL     1       5.035   5.956  21.560  1.00  0.00    -0.401 N 
HETATM    2  C7  UNL     1       6.372   5.807  21.105  1.00  0.00     0.137 C 
HETATM    3  C8  UNL     1       7.277   6.891  21.673  1.00  0.00     0.144 C 
HETATM    4  N3  UNL     1       6.766   8.197  21.341  1.00  0.00    -0.355 N 
HETATM    5  C15 UNL     1       5.385   8.293  20.913  1.00  0.00     0.144 C 
HETATM    6  C16 UNL     1       4.517   7.278  21.623  1.00  0.00     0.137 C 
ENDROOT
BRANCH   4   7
HETATM    7  C9  UNL     1       7.616   9.330  21.447  1.00  0.00     0.170 C 
HETATM    8  S1  UNL     1       7.768  10.262  20.118  1.00  0.00    -0.041 SA
BRANCH   7   9
HETATM    9  N4  UNL     1       8.300   9.668  22.619  1.00  0.00    -0.353 N 
ATOM     10  H4  UNL     1       8.372  10.665  22.824  1.00  0.00     0.162 HD
BRANCH   9  11
HETATM   11  C10 UNL     1       8.907   8.788  23.564  1.00  0.00     0.183 C 
HETATM   12  C11 UNL     1      10.216   9.237  24.122  1.00  0.00     0.111 C 
HETATM   13  C12 UNL     1      10.325   8.429  25.373  1.00  0.00     0.088 C 
HETATM   14  N5  UNL     1      11.378   7.932  25.906  1.00  0.00    -0.324 N 
HETATM   15  N6  UNL     1       8.989   8.333  25.847  1.00  0.00    -0.315 N 
ATOM     16  H5  UNL     1      12.268   8.096  25.436  1.00  0.00     0.169 HD
HETATM   17  C14 UNL     1       8.074   8.632  24.803  1.00  0.00     0.246 C 
ATOM     18  H6  UNL     1       8.725   8.084  26.800  1.00  0.00     0.170 HD
HETATM   19  O3  UNL     1       6.825   8.744  24.889  1.00  0.00    -0.271 OA
BRANCH  14  20
HETATM   20  C13 UNL     1      11.396   7.180  27.091  1.00  0.00     0.354 C 
HETATM   21  O2  UNL     1      10.510   6.366  27.450  1.00  0.00    -0.283 OA
ENDBRANCH  14  20
ENDBRANCH   9  11
ENDBRANCH   7   9
ENDBRANCH   4   7
BRANCH   1  22
HETATM   22  C6  UNL     1       4.641   5.065  22.600  1.00  0.00     0.219 C 
BRANCH  22  23
HETATM   23  C5  UNL     1       4.263   3.731  22.079  1.00  0.00     0.235 C 
HETATM   24  N1  UNL     1       3.616   3.584  20.792  1.00  0.00    -0.360 N 
ATOM     25  H1  UNL     1       3.412   4.406  20.222  1.00  0.00     0.162 HD
HETATM   26  O1  UNL     1       4.492   2.695  22.737  1.00  0.00    -0.272 OA
BRANCH  24  27
HETATM   27  C4  UNL     1       3.264   2.272  20.326  1.00  0.00     0.123 C 
BRANCH  27  28
HETATM   28  C3  UNL     1       4.313   1.385  19.825  1.00  0.00     0.029 C 
BRANCH  28  29
HETATM   29  C2  UNL     1       5.170   1.760  18.691  1.00  0.00    -0.043 C 
HETATM   30  C1  UNL     1       4.382   2.302  17.504  1.00  0.00     0.015 C 
HETATM   31  C17 UNL     1       6.273   2.691  18.973  1.00  0.00     0.009 C 
HETATM   32  C18 UNL     1       7.318   2.130  19.947  1.00  0.00     0.001 C 
HETATM   33  C19 UNL     1       7.921   0.902  19.340  1.00  0.00     0.000 C 
HETATM   34  C20 UNL     1       7.257   0.544  18.010  1.00  0.00     0.001 C 
HETATM   35  C21 UNL     1       5.772   0.437  18.148  1.00  0.00     0.009 C 
ENDBRANCH  28  29
ENDBRANCH  27  28
ENDBRANCH  24  27
ENDBRANCH  22  23
ENDBRANCH   1  22
TORSDOF 9
ENDMDL
MODEL 4
REMARK VINA RESULT: -8.385360606      1.016      1.604
REMARK  9 active torsions:
REMARK  status: ('A' for Active; 'I' for Inactive)
REMARK    1  A    between atoms: C2_2  and  C3_3 
REMARK    2  A    between atoms: C3_3  and  C4_4 
REMARK    3  A    between atoms: C4_4  and  N1_5 
REMARK       I    between atoms: N1_5  and  C5_7 
REMARK    4  A    between atoms: C5_7  and  C6_9 
REMARK    5  A    between atoms: C6_9  and  N2_10 
REMARK    6  A    between atoms: N3_13  and  C9_14 
REMARK    7  A    between atoms: C9_14  and  N4_16 
REMARK    8  A    between atoms: N4_16  and  C10_18 
REMARK    9  A    between atoms: N5_21  and  C13_23 
ROOT
HETATM    1  N2  UNL     1       4.737   5.991  21.677  1.00  0.00    -0.401 N 
HETATM    2  C7  UNL     1       4.923   6.769  22.850  1.00  0.00     0.137 C 
HETATM    3  C8  UNL     1       5.467   8.153  22.519  1.00  0.00     0.144 C 
HETATM    4  N3  UNL     1       6.697   8.045  21.776  1.00  0.00    -0.355 N 
HETATM    5  C15 UNL     1       7.000   6.772  21.153  1.00  0.00     0.144 C 
HETATM    6  C16 UNL     1       5.742   6.080  20.676  1.00  0.00     0.137 C 
ENDROOT
BRANCH   4   7
HETATM    7  C9  UNL     1       7.555   9.170  21.676  1.00  0.00     0.170 C 
HETATM    8  S1  UNL     1       7.459  10.051  20.307  1.00  0.00    -0.041 SA
BRANCH   7   9
HETATM    9  N4  UNL     1       8.449   9.545  22.685  1.00  0.00    -0.353 N 
ATOM     10  H4  UNL     1       8.665  10.540  22.746  1.00  0.00     0.162 HD
BRANCH   9  11
HETATM   11  C10 UNL     1       9.094   8.704  23.640  1.00  0.00     0.183 C 
HETATM   12  C11 UNL     1      10.455   9.136  24.072  1.00  0.00     0.111 C 
HETATM   13  C12 UNL     1      10.628   8.405  25.363  1.00  0.00     0.088 C 
HETATM   14  N5  UNL     1      11.700   7.903  25.851  1.00  0.00    -0.324 N 
HETATM   15  N6  UNL     1       9.328   8.391  25.936  1.00  0.00    -0.315 N 
ATOM     16  H5  UNL     1      12.558   8.001  25.309  1.00  0.00     0.169 HD
HETATM   17  C14 UNL     1       8.350   8.658  24.943  1.00  0.00     0.246 C 
ATOM     18  H6  UNL     1       9.127   8.214  26.920  1.00  0.00     0.170 HD
HETATM   19  O3  UNL     1       7.115   8.824  25.110  1.00  0.00    -0.271 OA
BRANCH  14  20
HETATM   20  C13 UNL     1      11.780   7.227  27.078  1.00  0.00     0.354 C 
HETATM   21  O2  UNL     1      10.884   6.496  27.566  1.00  0.00    -0.283 OA
ENDBRANCH  14  20
ENDBRANCH   9  11
ENDBRANCH   7   9
ENDBRANCH   4   7
BRANCH   1  22
HETATM   22  C6  UNL     1       3.391   5.882  21.224  1.00  0.00     0.219 C 
BRANCH  22  23
HETATM   23  C5  UNL     1       3.145   4.611  20.505  1.00  0.00     0.235 C 
HETATM   24  N1  UNL     1       3.534   3.338  21.075  1.00  0.00    -0.360 N 
ATOM     25  H1  UNL     1       3.987   3.301  21.989  1.00  0.00     0.162 HD
HETATM   26  O1  UNL     1       2.593   4.602  19.384  1.00  0.00    -0.272 OA
BRANCH  24  27
HETATM   27  C4  UNL     1       3.278   2.129  20.343  1.00  0.00     0.123 C 
BRANCH  27  28
HETATM   28  C3  UNL     1       4.404   1.319  19.882  1.00  0.00     0.029 C 
BRANCH  28  29
HETATM   29  C2  UNL     1       5.230   1.721  18.734  1.00  0.00    -0.043 C 
HETATM   30  C1  UNL     1       4.411   2.299  17.586  1.00  0.00     0.015 C 
HETATM   31  C17 UNL     1       6.346   2.639  19.009  1.00  0.00     0.009 C 
HETATM   32  C18 UNL     1       7.415   2.047  19.936  1.00  0.00     0.001 C 
HETATM   33  C19 UNL     1       7.994   0.833  19.280  1.00  0.00     0.000 C 
HETATM   34  C20 UNL     1       7.289   0.515  17.960  1.00  0.00     0.001 C 
HETATM   35  C21 UNL     1       5.809   0.410  18.138  1.00  0.00     0.009 C 
ENDBRANCH  28  29
ENDBRANCH  27  28
ENDBRANCH  24  27
ENDBRANCH  22  23
ENDBRANCH   1  22
TORSDOF 9
ENDMDL
MODEL 5
REMARK VINA RESULT: -8.381748698      2.197      3.126
REMARK  9 active torsions:
REMARK  status: ('A' for Active; 'I' for Inactive)
REMARK    1  A    between atoms: C2_2  and  C3_3 
REMARK    2  A    between atoms: C3_3  and  C4_4 
REMARK    3  A    between atoms: C4_4  and  N1_5 
REMARK       I    between atoms: N1_5  and  C5_7 
REMARK    4  A    between atoms: C5_7  and  C6_9 
REMARK    5  A    between atoms: C6_9  and  N2_10 
REMARK    6  A    between atoms: N3_13  and  C9_14 
REMARK    7  A    between atoms: C9_14  and  N4_16 
REMARK    8  A    between atoms: N4_16  and  C10_18 
REMARK    9  A    between atoms: N5_21  and  C13_23 
ROOT
HETATM    1  N2  UNL     1       2.358   5.262  23.086  1.00  0.00    -0.401 N 
HETATM    2  C7  UNL     1       2.759   5.385  21.729  1.00  0.00     0.137 C 
HETATM    3  C8  UNL     1       4.193   5.884  21.615  1.00  0.00     0.144 C 
HETATM    4  N3  UNL     1       4.345   7.138  22.310  1.00  0.00    -0.355 N 
HETATM    5  C15 UNL     1       3.324   7.507  23.270  1.00  0.00     0.144 C 
HETATM    6  C16 UNL     1       2.769   6.290  23.977  1.00  0.00     0.137 C 
ENDROOT
BRANCH   4   7
HETATM    7  C9  UNL     1       5.474   7.955  22.040  1.00  0.00     0.170 C 
HETATM    8  S1  UNL     1       6.302   7.638  20.672  1.00  0.00    -0.041 SA
BRANCH   7   9
HETATM    9  N4  UNL     1       5.882   8.999  22.878  1.00  0.00    -0.353 N 
ATOM     10  H4  UNL     1       5.435   9.902  22.720  1.00  0.00     0.162 HD
BRANCH   9  11
HETATM   11  C10 UNL     1       6.848   8.953  23.927  1.00  0.00     0.183 C 
HETATM   12  C11 UNL     1       7.112   7.606  24.510  1.00  0.00     0.111 C 
HETATM   13  C12 UNL     1       8.444   7.792  25.158  1.00  0.00     0.088 C 
HETATM   14  N5  UNL     1       8.876   7.268  26.244  1.00  0.00    -0.324 N 
HETATM   15  N6  UNL     1       9.133   8.687  24.296  1.00  0.00    -0.315 N 
ATOM     16  H5  UNL     1       8.251   6.640  26.748  1.00  0.00     0.169 HD
HETATM   17  C14 UNL     1       8.212   9.363  23.453  1.00  0.00     0.246 C 
ATOM     18  H6  UNL     1      10.143   8.824  24.285  1.00  0.00     0.170 HD
HETATM   19  O3  UNL     1       8.476  10.144  22.503  1.00  0.00    -0.271 OA
BRANCH  14  20
HETATM   20  C13 UNL     1      10.149   7.496  26.790  1.00  0.00     0.354 C 
HETATM   21  O2  UNL     1      10.889   8.475  26.527  1.00  0.00    -0.283 OA
ENDBRANCH  14  20
ENDBRANCH   9  11
ENDBRANCH   7   9
ENDBRANCH   4   7
BRANCH   1  22
HETATM   22  C6  UNL     1       2.350   3.934  23.602  1.00  0.00     0.219 C 
BRANCH  22  23
HETATM   23  C5  UNL     1       2.925   2.960  22.646  1.00  0.00     0.235 C 
HETATM   24  N1  UNL     1       4.337   2.639  22.660  1.00  0.00    -0.360 N 
ATOM     25  H1  UNL     1       4.959   3.083  23.336  1.00  0.00     0.162 HD
HETATM   26  O1  UNL     1       2.207   2.388  21.800  1.00  0.00    -0.272 OA
BRANCH  24  27
HETATM   27  C4  UNL     1       4.854   1.690  21.715  1.00  0.00     0.123 C 
BRANCH  27  28
HETATM   28  C3  UNL     1       6.282   1.697  21.399  1.00  0.00     0.029 C 
BRANCH  28  29
HETATM   29  C2  UNL     1       6.815   2.423  20.237  1.00  0.00    -0.043 C 
HETATM   30  C1  UNL     1       7.215   3.857  20.564  1.00  0.00     0.015 C 
HETATM   31  C17 UNL     1       7.929   1.789  19.514  1.00  0.00     0.009 C 
HETATM   32  C18 UNL     1       7.559   0.448  18.869  1.00  0.00     0.001 C 
HETATM   33  C19 UNL     1       6.466   0.684  17.874  1.00  0.00     0.000 C 
HETATM   34  C20 UNL     1       6.004   2.142  17.880  1.00  0.00     0.001 C 
HETATM   35  C21 UNL     1       5.627   2.595  19.254  1.00  0.00     0.009 C 
ENDBRANCH  28  29
ENDBRANCH  27  28
ENDBRANCH  24  27
ENDBRANCH  22  23
ENDBRANCH   1  22
TORSDOF 9
ENDMDL
