MODEL 1
REMARK VINA RESULT: -9.853312899      0.000      0.000
REMARK  11 active torsions:
REMARK  status: ('A' for Active; 'I' for Inactive)
REMARK    1  A    between atoms: O1_2  and  N1_3 
REMARK    2  A    between atoms: N1_3  and  C2_5 
REMARK    3  A    between atoms: C2_5  and  C3_6 
REMARK    4  A    between atoms: C2_5  and  C17_41 
REMARK       I    between atoms: C3_6  and  N2_8 
REMARK       I    between atoms: N2_8  and  C4_10 
REMARK    5  A    between atoms: C4_10  and  C5_12 
REMARK    6  A    between atoms: C8_15  and  N3_16 
REMARK    7  A    between atoms: N3_16  and  C9_18 
REMARK    8  A    between atoms: C9_18  and  N4_19 
REMARK    9  A    between atoms: C15_31  and  N9_32 
REMARK   10  A    between atoms: C16_35  and  N10_36 
REMARK   11  A    between atoms: C19_44  and  N12_45 
ROOT
HETATM    1  N4  UNL     1      35.851   2.242  40.772  1.00  0.00    -0.308 N 
HETATM    2  C10 UNL     1      34.740   1.792  41.371  1.00  0.00     0.203 A 
HETATM    3  N5  UNL     1      33.685   2.573  41.648  1.00  0.00    -0.288 N 
ATOM      4  H5  UNL     1      32.860   2.186  42.106  1.00  0.00     0.188 HD
HETATM    5  N6  UNL     1      33.732   3.868  41.313  1.00  0.00    -0.244 N 
HETATM    6  C11 UNL     1      32.816   4.809  41.499  1.00  0.00     0.159 A 
HETATM    7  C12 UNL     1      33.347   5.968  40.985  1.00  0.00     0.133 A 
HETATM    8  C13 UNL     1      32.783   7.284  40.922  1.00  0.00     0.119 C 
HETATM    9  N7  UNL     1      32.331   8.357  40.885  1.00  0.00    -0.190 NA
HETATM   10  N8  UNL     1      34.597   5.680  40.493  1.00  0.00    -0.328 N 
ATOM     11  H8  UNL     1      35.237   6.337  40.047  1.00  0.00     0.168 HD
HETATM   12  C14 UNL     1      34.822   4.349  40.714  1.00  0.00     0.172 A 
HETATM   13  C15 UNL     1      35.925   3.557  40.419  1.00  0.00     0.150 A 
ENDROOT
BRANCH  13  14
HETATM   14  N9  UNL     1      36.921   4.093  39.844  1.00  0.00    -0.382 N 
ATOM     15  H92 UNL     1      37.831   4.048  40.302  1.00  0.00     0.157 HD
ATOM     16  H91 UNL     1      36.881   4.574  38.947  1.00  0.00     0.157 HD
ENDBRANCH  13  14
BRANCH   1  17
HETATM   17  C9  UNL     1      37.015   1.385  40.530  1.00  0.00     0.254 C 
BRANCH  17  18
HETATM   18  N3  UNL     1      37.821   1.308  41.705  1.00  0.00    -0.370 N 
ATOM     19  H3  UNL     1      38.798   1.597  41.661  1.00  0.00     0.161 HD
BRANCH  18  20
HETATM   20  C8  UNL     1      37.284   0.829  42.948  1.00  0.00     0.073 A 
HETATM   21  C7  UNL     1      36.826  -0.454  43.106  1.00  0.00     0.035 A 
HETATM   22  C6  UNL     1      36.362  -0.875  44.369  1.00  0.00     0.038 A 
HETATM   23  C5  UNL     1      36.370  -0.017  45.402  1.00  0.00     0.102 A 
HETATM   24  N11 UNL     1      36.824   1.251  45.228  1.00  0.00    -0.337 N 
HETATM   25  C16 UNL     1      37.275   1.691  44.049  1.00  0.00     0.126 A 
ATOM     26  H11 UNL     1      36.821   1.890  46.023  1.00  0.00     0.168 HD
BRANCH  23  27
HETATM   27  C4  UNL     1      35.982  -0.432  46.798  1.00  0.00     0.275 C 
HETATM   28  N2  UNL     1      34.753  -1.022  46.979  1.00  0.00    -0.287 N 
HETATM   29  C3  UNL     1      34.175  -1.647  48.073  1.00  0.00     0.279 C 
ATOM     30  H2  UNL     1      34.154  -0.993  46.154  1.00  0.00     0.172 HD
HETATM   31  O2  UNL     1      33.086  -2.292  47.830  1.00  0.00    -0.265 OA
HETATM   32  O3  UNL     1      36.901  -0.168  47.609  1.00  0.00    -0.266 OA
BRANCH  29  33
HETATM   33  C2  UNL     1      34.654  -1.667  49.446  1.00  0.00     0.149 C 
BRANCH  33  34
HETATM   34  N1  UNL     1      35.116  -2.706  49.860  1.00  0.00    -0.260 N 
ATOM     35  H1  UNL     1      36.134  -2.684  49.801  1.00  0.00     0.194 HD
BRANCH  34  36
HETATM   36  O1  UNL     1      34.704  -3.901  50.381  1.00  0.00    -0.285 OA
HETATM   37  C1  UNL     1      34.706  -5.087  49.562  1.00  0.00     0.237 C 
ENDBRANCH  34  36
ENDBRANCH  33  34
BRANCH  33  38
HETATM   38  C17 UNL     1      34.576  -0.417  50.310  1.00  0.00     0.075 A 
HETATM   39  C18 UNL     1      35.751   0.251  50.592  1.00  0.00     0.085 A 
HETATM   40  S1  UNL     1      35.215   1.525  51.601  1.00  0.00    -0.064 SA
HETATM   41  C19 UNL     1      33.573   1.163  51.621  1.00  0.00     0.142 A 
HETATM   42  N13 UNL     1      33.490   0.057  50.837  1.00  0.00    -0.335 N 
ATOM     43  H13 UNL     1      32.590  -0.392  50.665  1.00  0.00     0.168 HD
BRANCH  41  44
HETATM   44  N12 UNL     1      32.575   1.765  52.231  1.00  0.00    -0.380 N 
ATOM     45 2H12 UNL     1      32.324   2.750  52.155  1.00  0.00     0.158 HD
ATOM     46 1H12 UNL     1      31.874   1.396  52.874  1.00  0.00     0.158 HD
ENDBRANCH  41  44
ENDBRANCH  33  38
ENDBRANCH  29  33
ENDBRANCH  23  27
BRANCH  25  47
HETATM   47  N10 UNL     1      37.719   2.884  43.864  1.00  0.00    -0.384 N 
ATOM     48 2H10 UNL     1      37.161   3.630  43.450  1.00  0.00     0.157 HD
ATOM     49 1H10 UNL     1      38.678   3.074  44.159  1.00  0.00     0.157 HD
ENDBRANCH  25  47
ENDBRANCH  18  20
ENDBRANCH  17  18
ENDBRANCH   1  17
TORSDOF 11
ENDMDL
MODEL 2
REMARK VINA RESULT: -9.764609741      1.759      3.076
REMARK  11 active torsions:
REMARK  status: ('A' for Active; 'I' for Inactive)
REMARK    1  A    between atoms: O1_2  and  N1_3 
REMARK    2  A    between atoms: N1_3  and  C2_5 
REMARK    3  A    between atoms: C2_5  and  C3_6 
REMARK    4  A    between atoms: C2_5  and  C17_41 
REMARK       I    between atoms: C3_6  and  N2_8 
REMARK       I    between atoms: N2_8  and  C4_10 
REMARK    5  A    between atoms: C4_10  and  C5_12 
REMARK    6  A    between atoms: C8_15  and  N3_16 
REMARK    7  A    between atoms: N3_16  and  C9_18 
REMARK    8  A    between atoms: C9_18  and  N4_19 
REMARK    9  A    between atoms: C15_31  and  N9_32 
REMARK   10  A    between atoms: C16_35  and  N10_36 
REMARK   11  A    between atoms: C19_44  and  N12_45 
ROOT
HETATM    1  N4  UNL     1      35.798   2.480  40.829  1.00  0.00    -0.308 N 
HETATM    2  C10 UNL     1      34.719   2.095  41.522  1.00  0.00     0.203 A 
HETATM    3  N5  UNL     1      33.678   2.903  41.774  1.00  0.00    -0.288 N 
ATOM      4  H5  UNL     1      32.877   2.566  42.307  1.00  0.00     0.188 HD
HETATM    5  N6  UNL     1      33.709   4.160  41.315  1.00  0.00    -0.244 N 
HETATM    6  C11 UNL     1      32.802   5.118  41.454  1.00  0.00     0.159 A 
HETATM    7  C12 UNL     1      33.307   6.220  40.805  1.00  0.00     0.133 A 
HETATM    8  C13 UNL     1      32.740   7.526  40.644  1.00  0.00     0.119 C 
HETATM    9  N7  UNL     1      32.287   8.593  40.526  1.00  0.00    -0.190 NA
HETATM   10  N8  UNL     1      34.531   5.881  40.282  1.00  0.00    -0.328 N 
ATOM     11  H8  UNL     1      35.148   6.488  39.744  1.00  0.00     0.168 HD
HETATM   12  C14 UNL     1      34.768   4.576  40.619  1.00  0.00     0.172 A 
HETATM   13  C15 UNL     1      35.855   3.754  40.348  1.00  0.00     0.150 A 
ENDROOT
BRANCH  13  14
HETATM   14  N9  UNL     1      36.821   4.228  39.676  1.00  0.00    -0.382 N 
ATOM     15  H92 UNL     1      37.705   4.408  40.153  1.00  0.00     0.157 HD
ATOM     16  H91 UNL     1      36.781   4.448  38.681  1.00  0.00     0.157 HD
ENDBRANCH  13  14
BRANCH   1  17
HETATM   17  C9  UNL     1      36.949   1.598  40.614  1.00  0.00     0.254 C 
BRANCH  17  18
HETATM   18  N3  UNL     1      37.746   1.533  41.795  1.00  0.00    -0.370 N 
ATOM     19  H3  UNL     1      38.681   1.940  41.791  1.00  0.00     0.161 HD
BRANCH  18  20
HETATM   20  C8  UNL     1      37.257   0.904  42.991  1.00  0.00     0.073 A 
HETATM   21  C7  UNL     1      36.674  -0.337  42.983  1.00  0.00     0.035 A 
HETATM   22  C6  UNL     1      36.266  -0.920  44.200  1.00  0.00     0.038 A 
HETATM   23  C5  UNL     1      36.449  -0.255  45.353  1.00  0.00     0.102 A 
HETATM   24  N11 UNL     1      37.025   0.975  45.342  1.00  0.00    -0.337 N 
HETATM   25  C16 UNL     1      37.429   1.563  44.212  1.00  0.00     0.126 A 
ATOM     26  H11 UNL     1      37.154   1.467  46.226  1.00  0.00     0.168 HD
BRANCH  23  27
HETATM   27  C4  UNL     1      36.127  -0.862  46.695  1.00  0.00     0.275 C 
HETATM   28  N2  UNL     1      34.804  -1.070  47.010  1.00  0.00    -0.287 N 
HETATM   29  C3  UNL     1      34.194  -1.737  48.060  1.00  0.00     0.279 C 
ATOM     30  H2  UNL     1      34.151  -0.655  46.345  1.00  0.00     0.172 HD
HETATM   31  O2  UNL     1      32.927  -1.935  47.928  1.00  0.00    -0.265 OA
HETATM   32  O3  UNL     1      37.178  -1.102  47.334  1.00  0.00    -0.266 OA
BRANCH  29  33
HETATM   33  C2  UNL     1      34.811  -2.241  49.276  1.00  0.00     0.149 C 
BRANCH  33  34
HETATM   34  N1  UNL     1      34.786  -1.526  50.252  1.00  0.00    -0.260 N 
ATOM     35  H1  UNL     1      33.928  -1.683  50.779  1.00  0.00     0.194 HD
BRANCH  34  36
HETATM   36  O1  UNL     1      35.546  -0.572  50.870  1.00  0.00    -0.285 OA
HETATM   37  C1  UNL     1      35.812   0.681  50.211  1.00  0.00     0.237 C 
ENDBRANCH  34  36
ENDBRANCH  33  34
BRANCH  33  38
HETATM   38  C17 UNL     1      35.451  -3.622  49.303  1.00  0.00     0.075 A 
HETATM   39  C18 UNL     1      34.875  -4.588  50.102  1.00  0.00     0.085 A 
HETATM   40  S1  UNL     1      35.918  -5.925  49.871  1.00  0.00    -0.064 SA
HETATM   41  C19 UNL     1      37.008  -5.218  48.803  1.00  0.00     0.142 A 
HETATM   42  N13 UNL     1      36.524  -3.957  48.656  1.00  0.00    -0.335 N 
ATOM     43  H13 UNL     1      36.995  -3.287  48.048  1.00  0.00     0.168 HD
BRANCH  41  44
HETATM   44  N12 UNL     1      38.080  -5.716  48.227  1.00  0.00    -0.380 N 
ATOM     45 2H12 UNL     1      38.330  -6.702  48.161  1.00  0.00     0.158 HD
ATOM     46 1H12 UNL     1      38.849  -5.249  47.746  1.00  0.00     0.158 HD
ENDBRANCH  41  44
ENDBRANCH  33  38
ENDBRANCH  29  33
ENDBRANCH  23  27
BRANCH  25  47
HETATM   47  N10 UNL     1      37.987   2.722  44.180  1.00  0.00    -0.384 N 
ATOM     48 2H10 UNL     1      38.600   3.027  43.424  1.00  0.00     0.157 HD
ATOM     49 1H10 UNL     1      37.788   3.356  44.955  1.00  0.00     0.157 HD
ENDBRANCH  25  47
ENDBRANCH  18  20
ENDBRANCH  17  18
ENDBRANCH   1  17
TORSDOF 11
ENDMDL
MODEL 3
REMARK VINA RESULT: -9.652421725      2.112      3.597
REMARK  11 active torsions:
REMARK  status: ('A' for Active; 'I' for Inactive)
REMARK    1  A    between atoms: O1_2  and  N1_3 
REMARK    2  A    between atoms: N1_3  and  C2_5 
REMARK    3  A    between atoms: C2_5  and  C3_6 
REMARK    4  A    between atoms: C2_5  and  C17_41 
REMARK       I    between atoms: C3_6  and  N2_8 
REMARK       I    between atoms: N2_8  and  C4_10 
REMARK    5  A    between atoms: C4_10  and  C5_12 
REMARK    6  A    between atoms: C8_15  and  N3_16 
REMARK    7  A    between atoms: N3_16  and  C9_18 
REMARK    8  A    between atoms: C9_18  and  N4_19 
REMARK    9  A    between atoms: C15_31  and  N9_32 
REMARK   10  A    between atoms: C16_35  and  N10_36 
REMARK   11  A    between atoms: C19_44  and  N12_45 
ROOT
HETATM    1  N4  UNL     1      35.989   3.369  40.495  1.00  0.00    -0.308 N 
HETATM    2  C10 UNL     1      36.659   4.070  39.570  1.00  0.00     0.203 A 
HETATM    3  N5  UNL     1      36.228   5.242  39.080  1.00  0.00    -0.288 N 
ATOM      4  H5  UNL     1      36.773   5.741  38.376  1.00  0.00     0.188 HD
HETATM    5  N6  UNL     1      35.073   5.747  39.529  1.00  0.00    -0.244 N 
HETATM    6  C11 UNL     1      34.465   6.873  39.178  1.00  0.00     0.159 A 
HETATM    7  C12 UNL     1      33.311   6.933  39.923  1.00  0.00     0.133 A 
HETATM    8  C13 UNL     1      32.286   7.934  39.942  1.00  0.00     0.119 C 
HETATM    9  N7  UNL     1      31.444   8.740  39.947  1.00  0.00    -0.190 NA
HETATM   10  N8  UNL     1      33.260   5.814  40.717  1.00  0.00    -0.328 N 
ATOM     11  H8  UNL     1      32.524   5.577  41.382  1.00  0.00     0.168 HD
HETATM   12  C14 UNL     1      34.381   5.076  40.450  1.00  0.00     0.172 A 
HETATM   13  C15 UNL     1      34.810   3.861  40.971  1.00  0.00     0.150 A 
ENDROOT
BRANCH  13  14
HETATM   14  N9  UNL     1      34.093   3.289  41.847  1.00  0.00    -0.382 N 
ATOM     15  H92 UNL     1      33.760   2.343  41.663  1.00  0.00     0.157 HD
ATOM     16  H91 UNL     1      33.818   3.710  42.734  1.00  0.00     0.157 HD
ENDBRANCH  13  14
BRANCH   1  17
HETATM   17  C9  UNL     1      36.448   2.063  40.976  1.00  0.00     0.254 C 
BRANCH  17  18
HETATM   18  N3  UNL     1      37.169   2.215  42.198  1.00  0.00    -0.370 N 
ATOM     19  H3  UNL     1      37.946   2.875  42.241  1.00  0.00     0.161 HD
BRANCH  18  20
HETATM   20  C8  UNL     1      36.823   1.458  43.368  1.00  0.00     0.073 A 
HETATM   21  C7  UNL     1      35.804   0.541  43.375  1.00  0.00     0.035 A 
HETATM   22  C6  UNL     1      35.552  -0.208  44.542  1.00  0.00     0.038 A 
HETATM   23  C5  UNL     1      36.309  -0.015  45.635  1.00  0.00     0.102 A 
HETATM   24  N11 UNL     1      37.312   0.900  45.612  1.00  0.00    -0.337 N 
HETATM   25  C16 UNL     1      37.586   1.629  44.527  1.00  0.00     0.126 A 
ATOM     26  H11 UNL     1      37.875   1.035  46.451  1.00  0.00     0.168 HD
BRANCH  23  27
HETATM   27  C4  UNL     1      36.157  -0.852  46.880  1.00  0.00     0.275 C 
HETATM   28  N2  UNL     1      34.884  -1.173  47.291  1.00  0.00    -0.287 N 
HETATM   29  C3  UNL     1      34.415  -2.035  48.271  1.00  0.00     0.279 C 
ATOM     30  H2  UNL     1      34.148  -0.687  46.779  1.00  0.00     0.172 HD
HETATM   31  O2  UNL     1      33.148  -2.269  48.240  1.00  0.00    -0.265 OA
HETATM   32  O3  UNL     1      37.279  -1.144  47.356  1.00  0.00    -0.266 OA
BRANCH  29  33
HETATM   33  C2  UNL     1      35.179  -2.704  49.311  1.00  0.00     0.149 C 
BRANCH  33  34
HETATM   34  N1  UNL     1      35.218  -2.176  50.400  1.00  0.00    -0.260 N 
ATOM     35  H1  UNL     1      34.689  -2.727  51.075  1.00  0.00     0.194 HD
BRANCH  34  36
HETATM   36  O1  UNL     1      35.748  -1.073  51.010  1.00  0.00    -0.285 OA
HETATM   37  C1  UNL     1      35.142   0.220  50.821  1.00  0.00     0.237 C 
ENDBRANCH  34  36
ENDBRANCH  33  34
BRANCH  33  38
HETATM   38  C17 UNL     1      35.887  -4.020  49.026  1.00  0.00     0.075 A 
HETATM   39  C18 UNL     1      35.216  -5.193  49.309  1.00  0.00     0.085 A 
HETATM   40  S1  UNL     1      36.370  -6.385  48.893  1.00  0.00    -0.064 SA
HETATM   41  C19 UNL     1      37.617  -5.372  48.394  1.00  0.00     0.142 A 
HETATM   42  N13 UNL     1      37.095  -4.130  48.566  1.00  0.00    -0.335 N 
ATOM     43  H13 UNL     1      37.642  -3.300  48.337  1.00  0.00     0.168 HD
BRANCH  41  44
HETATM   44  N12 UNL     1      38.820  -5.659  47.945  1.00  0.00    -0.380 N 
ATOM     45 2H12 UNL     1      39.558  -4.992  47.722  1.00  0.00     0.158 HD
ATOM     46 1H12 UNL     1      39.251  -6.561  47.738  1.00  0.00     0.158 HD
ENDBRANCH  41  44
ENDBRANCH  33  38
ENDBRANCH  29  33
ENDBRANCH  23  27
BRANCH  25  47
HETATM   47  N10 UNL     1      38.539   2.493  44.479  1.00  0.00    -0.384 N 
ATOM     48 2H10 UNL     1      39.048   2.810  45.304  1.00  0.00     0.157 HD
ATOM     49 1H10 UNL     1      38.786   2.862  43.561  1.00  0.00     0.157 HD
ENDBRANCH  25  47
ENDBRANCH  18  20
ENDBRANCH  17  18
ENDBRANCH   1  17
TORSDOF 11
ENDMDL
MODEL 4
REMARK VINA RESULT: -9.635956378      4.906     11.469
REMARK  11 active torsions:
REMARK  status: ('A' for Active; 'I' for Inactive)
REMARK    1  A    between atoms: O1_2  and  N1_3 
REMARK    2  A    between atoms: N1_3  and  C2_5 
REMARK    3  A    between atoms: C2_5  and  C3_6 
REMARK    4  A    between atoms: C2_5  and  C17_41 
REMARK       I    between atoms: C3_6  and  N2_8 
REMARK       I    between atoms: N2_8  and  C4_10 
REMARK    5  A    between atoms: C4_10  and  C5_12 
REMARK    6  A    between atoms: C8_15  and  N3_16 
REMARK    7  A    between atoms: N3_16  and  C9_18 
REMARK    8  A    between atoms: C9_18  and  N4_19 
REMARK    9  A    between atoms: C15_31  and  N9_32 
REMARK   10  A    between atoms: C16_35  and  N10_36 
REMARK   11  A    between atoms: C19_44  and  N12_45 
ROOT
HETATM    1  N4  UNL     1      35.273  -0.701  46.318  1.00  0.00    -0.308 N 
HETATM    2  C10 UNL     1      36.590  -0.608  46.549  1.00  0.00     0.203 A 
HETATM    3  N5  UNL     1      37.202  -1.218  47.574  1.00  0.00    -0.288 N 
ATOM      4  H5  UNL     1      38.208  -1.119  47.711  1.00  0.00     0.188 HD
HETATM    5  N6  UNL     1      36.472  -1.960  48.415  1.00  0.00    -0.244 N 
HETATM    6  C11 UNL     1      36.868  -2.636  49.487  1.00  0.00     0.159 A 
HETATM    7  C12 UNL     1      35.740  -3.226  50.006  1.00  0.00     0.133 A 
HETATM    8  C13 UNL     1      35.595  -4.066  51.158  1.00  0.00     0.119 C 
HETATM    9  N7  UNL     1      35.474  -4.737  52.103  1.00  0.00    -0.190 NA
HETATM   10  N8  UNL     1      34.675  -2.878  49.211  1.00  0.00    -0.328 N 
ATOM     11  H8  UNL     1      33.705  -3.165  49.340  1.00  0.00     0.168 HD
HETATM   12  C14 UNL     1      35.159  -2.076  48.214  1.00  0.00     0.172 A 
HETATM   13  C15 UNL     1      34.506  -1.452  47.158  1.00  0.00     0.150 A 
ENDROOT
BRANCH  13  14
HETATM   14  N9  UNL     1      33.254  -1.615  47.036  1.00  0.00    -0.382 N 
ATOM     15  H92 UNL     1      32.634  -1.151  47.700  1.00  0.00     0.157 HD
ATOM     16  H91 UNL     1      32.813  -2.186  46.316  1.00  0.00     0.157 HD
ENDBRANCH  13  14
BRANCH   1  17
HETATM   17  C9  UNL     1      34.615   0.020  45.225  1.00  0.00     0.254 C 
BRANCH  17  18
HETATM   18  N3  UNL     1      35.533   0.920  44.606  1.00  0.00    -0.370 N 
ATOM     19  H3  UNL     1      36.521   0.879  44.859  1.00  0.00     0.161 HD
BRANCH  18  20
HETATM   20  C8  UNL     1      35.095   1.884  43.635  1.00  0.00     0.073 A 
HETATM   21  C7  UNL     1      33.785   2.274  43.526  1.00  0.00     0.035 A 
HETATM   22  C6  UNL     1      33.431   3.265  42.588  1.00  0.00     0.038 A 
HETATM   23  C5  UNL     1      34.378   3.814  41.809  1.00  0.00     0.102 A 
HETATM   24  N11 UNL     1      35.670   3.413  41.928  1.00  0.00    -0.337 N 
HETATM   25  C16 UNL     1      36.049   2.480  42.805  1.00  0.00     0.126 A 
ATOM     26  H11 UNL     1      36.376   3.839  41.327  1.00  0.00     0.168 HD
BRANCH  23  27
HETATM   27  C4  UNL     1      34.084   4.946  40.858  1.00  0.00     0.275 C 
HETATM   28  N2  UNL     1      33.240   5.945  41.284  1.00  0.00    -0.287 N 
HETATM   29  C3  UNL     1      32.901   7.172  40.735  1.00  0.00     0.279 C 
ATOM     30  H2  UNL     1      32.777   5.746  42.171  1.00  0.00     0.172 HD
HETATM   31  O2  UNL     1      32.249   7.965  41.513  1.00  0.00    -0.265 OA
HETATM   32  O3  UNL     1      34.701   4.788  39.778  1.00  0.00    -0.266 OA
BRANCH  29  33
HETATM   33  C2  UNL     1      33.200   7.665  39.400  1.00  0.00     0.149 C 
BRANCH  33  34
HETATM   34  N1  UNL     1      34.311   8.106  39.205  1.00  0.00    -0.260 N 
ATOM     35  H1  UNL     1      34.948   7.350  38.954  1.00  0.00     0.194 HD
BRANCH  34  36
HETATM   36  O1  UNL     1      34.980   9.297  39.216  1.00  0.00    -0.285 OA
HETATM   37  C1  UNL     1      34.268  10.525  39.465  1.00  0.00     0.237 C 
ENDBRANCH  34  36
ENDBRANCH  33  34
BRANCH  33  38
HETATM   38  C17 UNL     1      32.148   7.612  38.302  1.00  0.00     0.075 A 
HETATM   39  C18 UNL     1      32.579   7.585  36.991  1.00  0.00     0.085 A 
HETATM   40  S1  UNL     1      31.106   7.580  36.121  1.00  0.00    -0.064 SA
HETATM   41  C19 UNL     1      30.039   7.613  37.421  1.00  0.00     0.142 A 
HETATM   42  N13 UNL     1      30.866   7.626  38.500  1.00  0.00    -0.335 N 
ATOM     43  H13 UNL     1      30.486   7.645  39.446  1.00  0.00     0.168 HD
BRANCH  41  44
HETATM   44  N12 UNL     1      28.724   7.628  37.445  1.00  0.00    -0.380 N 
ATOM     45 2H12 UNL     1      28.109   7.932  36.690  1.00  0.00     0.158 HD
ATOM     46 1H12 UNL     1      28.073   7.353  38.180  1.00  0.00     0.158 HD
ENDBRANCH  41  44
ENDBRANCH  33  38
ENDBRANCH  29  33
ENDBRANCH  23  27
BRANCH  25  47
HETATM   47  N10 UNL     1      37.269   2.093  42.942  1.00  0.00    -0.384 N 
ATOM     48 2H10 UNL     1      37.736   1.474  42.280  1.00  0.00     0.157 HD
ATOM     49 1H10 UNL     1      37.778   2.439  43.755  1.00  0.00     0.157 HD
ENDBRANCH  25  47
ENDBRANCH  18  20
ENDBRANCH  17  18
ENDBRANCH   1  17
TORSDOF 11
ENDMDL
MODEL 5
REMARK VINA RESULT: -9.490656593      5.437     11.596
REMARK  11 active torsions:
REMARK  status: ('A' for Active; 'I' for Inactive)
REMARK    1  A    between atoms: O1_2  and  N1_3 
REMARK    2  A    between atoms: N1_3  and  C2_5 
REMARK    3  A    between atoms: C2_5  and  C3_6 
REMARK    4  A    between atoms: C2_5  and  C17_41 
REMARK       I    between atoms: C3_6  and  N2_8 
REMARK       I    between atoms: N2_8  and  C4_10 
REMARK    5  A    between atoms: C4_10  and  C5_12 
REMARK    6  A    between atoms: C8_15  and  N3_16 
REMARK    7  A    between atoms: N3_16  and  C9_18 
REMARK    8  A    between atoms: C9_18  and  N4_19 
REMARK    9  A    between atoms: C15_31  and  N9_32 
REMARK   10  A    between atoms: C16_35  and  N10_36 
REMARK   11  A    between atoms: C19_44  and  N12_45 
ROOT
HETATM    1  N4  UNL     1      35.325   0.556  43.751  1.00  0.00    -0.308 N 
HETATM    2  C10 UNL     1      34.182   0.435  44.440  1.00  0.00     0.203 A 
HETATM    3  N5  UNL     1      34.120  -0.078  45.678  1.00  0.00    -0.288 N 
ATOM      4  H5  UNL     1      33.226  -0.151  46.164  1.00  0.00     0.188 HD
HETATM    5  N6  UNL     1      35.249  -0.493  46.264  1.00  0.00    -0.244 N 
HETATM    6  C11 UNL     1      35.413  -1.033  47.465  1.00  0.00     0.159 A 
HETATM    7  C12 UNL     1      36.758  -1.287  47.591  1.00  0.00     0.133 A 
HETATM    8  C13 UNL     1      37.482  -1.863  48.685  1.00  0.00     0.119 C 
HETATM    9  N7  UNL     1      38.069  -2.345  49.568  1.00  0.00    -0.190 NA
HETATM   10  N8  UNL     1      37.376  -0.881  46.433  1.00  0.00    -0.328 N 
ATOM     11  H8  UNL     1      38.373  -0.938  46.228  1.00  0.00     0.168 HD
HETATM   12  C14 UNL     1      36.404  -0.387  45.607  1.00  0.00     0.172 A 
HETATM   13  C15 UNL     1      36.490   0.142  44.325  1.00  0.00     0.150 A 
ENDROOT
BRANCH  13  14
HETATM   14  N9  UNL     1      37.629   0.211  43.771  1.00  0.00    -0.382 N 
ATOM     15  H92 UNL     1      37.977   1.125  43.483  1.00  0.00     0.157 HD
ATOM     16  H91 UNL     1      38.232  -0.590  43.587  1.00  0.00     0.157 HD
ENDBRANCH  13  14
BRANCH   1  17
HETATM   17  C9  UNL     1      35.363   1.066  42.377  1.00  0.00     0.254 C 
BRANCH  17  18
HETATM   18  N3  UNL     1      34.112   1.662  42.039  1.00  0.00    -0.370 N 
ATOM     19  H3  UNL     1      33.267   1.090  42.046  1.00  0.00     0.161 HD
BRANCH  18  20
HETATM   20  C8  UNL     1      34.017   3.053  41.690  1.00  0.00     0.073 A 
HETATM   21  C7  UNL     1      34.879   3.648  40.806  1.00  0.00     0.035 A 
HETATM   22  C6  UNL     1      34.697   5.004  40.465  1.00  0.00     0.038 A 
HETATM   23  C5  UNL     1      33.685   5.699  41.010  1.00  0.00     0.102 A 
HETATM   24  N11 UNL     1      32.843   5.094  41.887  1.00  0.00    -0.337 N 
HETATM   25  C16 UNL     1      32.978   3.811  42.236  1.00  0.00     0.126 A 
ATOM     26  H11 UNL     1      32.081   5.637  42.294  1.00  0.00     0.168 HD
BRANCH  23  27
HETATM   27  C4  UNL     1      33.376   7.119  40.613  1.00  0.00     0.275 C 
HETATM   28  N2  UNL     1      34.075   7.664  39.561  1.00  0.00    -0.287 N 
HETATM   29  C3  UNL     1      33.925   8.850  38.861  1.00  0.00     0.279 C 
ATOM     30  H2  UNL     1      34.849   7.085  39.235  1.00  0.00     0.172 HD
HETATM   31  O2  UNL     1      34.617   8.945  37.778  1.00  0.00    -0.265 OA
HETATM   32  O3  UNL     1      32.472   7.595  41.341  1.00  0.00    -0.266 OA
BRANCH  29  33
HETATM   33  C2  UNL     1      33.080   9.985  39.199  1.00  0.00     0.149 C 
BRANCH  33  34
HETATM   34  N1  UNL     1      31.882   9.820  39.152  1.00  0.00    -0.260 N 
ATOM     35  H1  UNL     1      31.513   9.669  40.091  1.00  0.00     0.194 HD
BRANCH  34  36
HETATM   36  O1  UNL     1      30.867   9.773  38.238  1.00  0.00    -0.285 OA
HETATM   37  C1  UNL     1      31.096  10.196  36.879  1.00  0.00     0.237 C 
ENDBRANCH  34  36
ENDBRANCH  33  34
BRANCH  33  38
HETATM   38  C17 UNL     1      33.698  11.317  39.601  1.00  0.00     0.075 A 
HETATM   39  C18 UNL     1      32.912  12.212  40.298  1.00  0.00     0.085 A 
HETATM   40  S1  UNL     1      33.962  13.548  40.491  1.00  0.00    -0.064 SA
HETATM   41  C19 UNL     1      35.312  12.931  39.700  1.00  0.00     0.142 A 
HETATM   42  N13 UNL     1      34.903  11.695  39.309  1.00  0.00    -0.335 N 
ATOM     43  H13 UNL     1      35.532  11.078  38.796  1.00  0.00     0.168 HD
BRANCH  41  44
HETATM   44  N12 UNL     1      36.492  13.469  39.483  1.00  0.00    -0.380 N 
ATOM     45 2H12 UNL     1      36.784  13.969  38.643  1.00  0.00     0.158 HD
ATOM     46 1H12 UNL     1      37.322  13.503  40.074  1.00  0.00     0.158 HD
ENDBRANCH  41  44
ENDBRANCH  33  38
ENDBRANCH  29  33
ENDBRANCH  23  27
BRANCH  25  47
HETATM   47  N10 UNL     1      32.185   3.215  43.056  1.00  0.00    -0.384 N 
ATOM     48 2H10 UNL     1      32.351   2.273  43.409  1.00  0.00     0.157 HD
ATOM     49 1H10 UNL     1      31.358   3.730  43.360  1.00  0.00     0.157 HD
ENDBRANCH  25  47
ENDBRANCH  18  20
ENDBRANCH  17  18
ENDBRANCH   1  17
TORSDOF 11
ENDMDL
