MODEL 1
REMARK VINA RESULT: -3.753094023      0.000      0.000
REMARK  0 active torsions:
REMARK  status: ('A' for Active; 'I' for Inactive)
ROOT
HETATM    1  C1  UNL     1      26.186   5.360   6.022  1.00  0.00     0.011 C 
HETATM    2  C2  UNL     1      25.336   5.268   4.754  1.00  0.00     0.011 C 
HETATM    3  C3  UNL     1      26.437   5.246   3.683  1.00  0.00     0.074 C 
HETATM    4  S1  UNL     1      27.314   6.780   4.209  1.00  0.00    -0.169 SA
HETATM    5  C4  UNL     1      26.637   6.823   5.924  1.00  0.00     0.074 C 
ENDROOT
TORSDOF 0
ENDMDL
MODEL 2
REMARK VINA RESULT: -3.741469593      0.047      1.988
REMARK  0 active torsions:
REMARK  status: ('A' for Active; 'I' for Inactive)
ROOT
HETATM    1  C1  UNL     1      25.338   5.248   4.813  1.00  0.00     0.011 C 
HETATM    2  C2  UNL     1      26.240   5.378   6.040  1.00  0.00     0.011 C 
HETATM    3  C3  UNL     1      26.664   6.849   5.920  1.00  0.00     0.074 C 
HETATM    4  S1  UNL     1      27.303   6.775   4.192  1.00  0.00    -0.169 SA
HETATM    5  C4  UNL     1      26.404   5.239   3.709  1.00  0.00     0.074 C 
ENDROOT
TORSDOF 0
ENDMDL
MODEL 3
REMARK VINA RESULT: -3.456170097      1.219      1.496
REMARK  0 active torsions:
REMARK  status: ('A' for Active; 'I' for Inactive)
ROOT
HETATM    1  C1  UNL     1      26.146   4.629   4.858  1.00  0.00     0.011 C 
HETATM    2  C2  UNL     1      25.826   5.721   3.836  1.00  0.00     0.011 C 
HETATM    3  C3  UNL     1      27.043   6.639   4.022  1.00  0.00     0.074 C 
HETATM    4  S1  UNL     1      26.891   6.875   5.844  1.00  0.00    -0.169 SA
HETATM    5  C4  UNL     1      25.843   5.391   6.154  1.00  0.00     0.074 C 
ENDROOT
TORSDOF 0
ENDMDL
MODEL 4
REMARK VINA RESULT: -3.444570968      1.226      1.966
REMARK  0 active torsions:
REMARK  status: ('A' for Active; 'I' for Inactive)
ROOT
HETATM    1  C1  UNL     1      25.838   5.727   3.809  1.00  0.00     0.011 C 
HETATM    2  C2  UNL     1      26.166   4.639   4.832  1.00  0.00     0.011 C 
HETATM    3  C3  UNL     1      25.831   5.377   6.137  1.00  0.00     0.074 C 
HETATM    4  S1  UNL     1      26.891   6.858   5.855  1.00  0.00    -0.169 SA
HETATM    5  C4  UNL     1      27.038   6.657   4.028  1.00  0.00     0.074 C 
ENDROOT
TORSDOF 0
ENDMDL
MODEL 5
REMARK VINA RESULT: -3.288712322      1.363      2.193
REMARK  0 active torsions:
REMARK  status: ('A' for Active; 'I' for Inactive)
ROOT
HETATM    1  C1  UNL     1      27.529   6.972   5.303  1.00  0.00     0.011 C 
HETATM    2  C2  UNL     1      26.290   6.755   6.172  1.00  0.00     0.011 C 
HETATM    3  C3  UNL     1      26.133   5.231   6.056  1.00  0.00     0.074 C 
HETATM    4  S1  UNL     1      26.114   5.131   4.216  1.00  0.00    -0.169 SA
HETATM    5  C4  UNL     1      26.910   6.766   3.915  1.00  0.00     0.074 C 
ENDROOT
TORSDOF 0
ENDMDL
