MODEL 1
REMARK VINA RESULT: -5.330561073      0.000      0.000
REMARK  0 active torsions:
REMARK  status: ('A' for Active; 'I' for Inactive)
ROOT
HETATM    1  C1  UNL     1      28.480   7.274   3.233  1.00  0.00     0.036 C 
HETATM    2  C2  UNL     1      27.370   6.299   3.258  1.00  0.00    -0.028 C 
HETATM    3  C3  UNL     1      26.613   6.081   4.326  1.00  0.00    -0.084 C 
HETATM    4  C4  UNL     1      26.558   6.623   5.712  1.00  0.00     0.034 C 
HETATM    5  C5  UNL     1      25.979   5.282   6.141  1.00  0.00     0.009 C 
HETATM    6  C6  UNL     1      25.460   5.216   4.700  1.00  0.00     0.034 C 
ENDROOT
TORSDOF 0
ENDMDL
MODEL 2
REMARK VINA RESULT: -5.319803648      1.305      1.760
REMARK  0 active torsions:
REMARK  status: ('A' for Active; 'I' for Inactive)
ROOT
HETATM    1  C1  UNL     1      27.357   4.671   2.409  1.00  0.00     0.036 C 
HETATM    2  C2  UNL     1      26.630   4.425   3.670  1.00  0.00    -0.028 C 
HETATM    3  C3  UNL     1      26.388   5.371   4.571  1.00  0.00    -0.084 C 
HETATM    4  C4  UNL     1      26.689   6.826   4.683  1.00  0.00     0.034 C 
HETATM    5  C5  UNL     1      26.677   6.642   6.194  1.00  0.00     0.009 C 
HETATM    6  C6  UNL     1      25.717   5.485   5.894  1.00  0.00     0.034 C 
ENDROOT
TORSDOF 0
ENDMDL
MODEL 3
REMARK VINA RESULT: -4.801341932      1.141      2.962
REMARK  0 active torsions:
REMARK  status: ('A' for Active; 'I' for Inactive)
ROOT
HETATM    1  C1  UNL     1      26.424   6.681   6.215  1.00  0.00     0.036 C 
HETATM    2  C2  UNL     1      27.221   7.004   5.014  1.00  0.00    -0.028 C 
HETATM    3  C3  UNL     1      27.175   6.293   3.894  1.00  0.00    -0.084 C 
HETATM    4  C4  UNL     1      26.434   5.083   3.439  1.00  0.00     0.034 C 
HETATM    5  C5  UNL     1      27.605   4.800   2.508  1.00  0.00     0.009 C 
HETATM    6  C6  UNL     1      27.807   6.319   2.547  1.00  0.00     0.034 C 
ENDROOT
TORSDOF 0
ENDMDL
MODEL 4
REMARK VINA RESULT: -4.713884639      0.809      1.449
REMARK  0 active torsions:
REMARK  status: ('A' for Active; 'I' for Inactive)
ROOT
HETATM    1  C1  UNL     1      28.238   7.002   2.357  1.00  0.00     0.036 C 
HETATM    2  C2  UNL     1      27.742   7.129   3.743  1.00  0.00    -0.028 C 
HETATM    3  C3  UNL     1      26.973   6.219   4.329  1.00  0.00    -0.084 C 
HETATM    4  C4  UNL     1      26.382   4.913   3.923  1.00  0.00     0.034 C 
HETATM    5  C5  UNL     1      25.257   5.193   4.910  1.00  0.00     0.009 C 
HETATM    6  C6  UNL     1      26.315   6.020   5.650  1.00  0.00     0.034 C 
ENDROOT
TORSDOF 0
ENDMDL
MODEL 5
REMARK VINA RESULT: -4.678690891      0.877      3.210
REMARK  0 active torsions:
REMARK  status: ('A' for Active; 'I' for Inactive)
ROOT
HETATM    1  C1  UNL     1      25.825   5.476   6.282  1.00  0.00     0.036 C 
HETATM    2  C2  UNL     1      26.657   6.483   5.592  1.00  0.00    -0.028 C 
HETATM    3  C3  UNL     1      26.958   6.422   4.301  1.00  0.00    -0.084 C 
HETATM    4  C4  UNL     1      26.646   5.485   3.185  1.00  0.00     0.034 C 
HETATM    5  C5  UNL     1      27.963   5.910   2.551  1.00  0.00     0.009 C 
HETATM    6  C6  UNL     1      27.733   7.220   3.312  1.00  0.00     0.034 C 
ENDROOT
TORSDOF 0
ENDMDL
