MODEL 1
REMARK VINA RESULT: -7.709087316      0.000      0.000
REMARK  9 active torsions:
REMARK  status: ('A' for Active; 'I' for Inactive)
REMARK    1  A    between atoms: N1_1  and  C1_4 
REMARK    2  A    between atoms: N5_15  and  C5_16 
REMARK    3  A    between atoms: C8_19  and  C9_20 
REMARK    4  A    between atoms: C9_20  and  N6_21 
REMARK    5  A    between atoms: N6_21  and  C10_24 
REMARK    6  A    between atoms: C10_24  and  C11_25 
REMARK    7  A    between atoms: C11_25  and  C12_26 
REMARK    8  A    between atoms: C12_26  and  C13_27 
REMARK    9  A    between atoms: C13_27  and  N7_28 
REMARK       I    between atoms: N7_28  and  C14_31 
REMARK       I    between atoms: C14_31  and  N8_32 
REMARK       I    between atoms: C14_31  and  N9_36 
ROOT
HETATM    1  C5  UNL     1      -8.534 -21.314  33.985  1.00  0.00     0.231 C 
HETATM    2  C6  UNL     1      -7.746 -22.167  34.900  1.00  0.00     0.057 C 
HETATM    3  C7  UNL     1      -6.402 -22.292  34.196  1.00  0.00     0.038 C 
HETATM    4  C8  UNL     1      -6.750 -22.033  32.770  1.00  0.00     0.150 C 
HETATM    5  O1  UNL     1      -7.976 -21.468  32.740  1.00  0.00    -0.359 OA
ENDROOT
BRANCH   4   6
HETATM    6  C9  UNL     1      -5.769 -21.140  32.045  1.00  0.00     0.264 C 
BRANCH   6   7
HETATM    7  N6  UNL     1      -5.986 -21.079  30.619  1.00  0.00    -0.073 N 
ATOM      8  H62 UNL     1      -6.983 -21.135  30.411  1.00  0.00     0.277 HD
ATOM      9  H61 UNL     1      -5.786 -20.142  30.271  1.00  0.00     0.277 HD
BRANCH   7  10
HETATM   10  C10 UNL     1      -5.264 -22.055  29.863  1.00  0.00     0.232 C 
BRANCH  10  11
HETATM   11  C11 UNL     1      -6.069 -22.692  28.758  1.00  0.00     0.029 C 
BRANCH  11  12
HETATM   12  C12 UNL     1      -7.518 -22.361  28.938  1.00  0.00     0.029 C 
BRANCH  12  13
HETATM   13  C13 UNL     1      -8.455 -23.182  28.098  1.00  0.00     0.237 C 
BRANCH  13  14
HETATM   14  N7  UNL     1      -7.842 -23.577  26.836  1.00  0.00    -0.022 N 
HETATM   15  C14 UNL     1      -8.849 -23.695  25.788  1.00  0.00     0.575 C 
HETATM   16  N8  UNL     1      -8.142 -24.047  24.558  1.00  0.00    -0.026 N 
HETATM   17  N9  UNL     1      -9.799 -24.741  26.146  1.00  0.00    -0.026 N 
ATOM     18  H83 UNL     1      -7.394 -23.394  24.324  1.00  0.00     0.278 HD
ATOM     19  H82 UNL     1      -7.562 -24.880  24.653  1.00  0.00     0.278 HD
ATOM     20  H81 UNL     1      -8.847 -24.130  23.825  1.00  0.00     0.278 HD
ATOM     21  H93 UNL     1      -9.339 -25.630  26.340  1.00  0.00     0.278 HD
ATOM     22  H92 UNL     1     -10.214 -24.588  27.065  1.00  0.00     0.278 HD
ATOM     23  H91 UNL     1     -10.503 -24.824  25.412  1.00  0.00     0.278 HD
ATOM     24  H72 UNL     1      -7.088 -22.944  26.567  1.00  0.00     0.281 HD
ATOM     25  H71 UNL     1      -7.295 -24.434  26.934  1.00  0.00     0.281 HD
ENDBRANCH  13  14
ENDBRANCH  12  13
ENDBRANCH  11  12
ENDBRANCH  10  11
ENDBRANCH   7  10
ENDBRANCH   6   7
ENDBRANCH   4   6
BRANCH   1  26
HETATM   26  N5  UNL     1      -9.933 -21.693  33.889  1.00  0.00    -0.299 N 
HETATM   27  C4  UNL     1     -10.885 -21.216  34.710  1.00  0.00     0.188 A 
HETATM   28  N4  UNL     1     -12.095 -21.740  34.380  1.00  0.00    -0.346 N 
HETATM   29  C3  UNL     1     -11.870 -22.543  33.348  1.00  0.00     0.123 A 
ATOM     30  H4  UNL     1     -12.991 -21.554  34.833  1.00  0.00     0.167 HD
HETATM   31  C2  UNL     1     -12.726 -23.334  32.605  1.00  0.00     0.145 A 
HETATM   32  C15 UNL     1     -10.533 -22.530  33.025  1.00  0.00     0.157 A 
HETATM   33  N2  UNL     1     -12.180 -24.044  31.604  1.00  0.00    -0.175 N 
HETATM   34  N3  UNL     1     -13.988 -23.377  32.876  1.00  0.00    -0.383 N 
HETATM   35  C1  UNL     1     -10.864 -24.017  31.305  1.00  0.00     0.679 A 
ATOM     36  H2  UNL     1     -12.791 -24.636  31.042  1.00  0.00     0.186 HD
HETATM   37  N10 UNL     1     -10.012 -23.248  32.022  1.00  0.00    -0.174 N 
ATOM     38  H10 UNL     1      -9.016 -23.216  31.807  1.00  0.00     0.186 HD
ATOM     39  H32 UNL     1     -14.620 -23.960  32.328  1.00  0.00     0.157 HD
ATOM     40  H31 UNL     1     -14.403 -22.837  33.636  1.00  0.00     0.157 HD
BRANCH  35  41
HETATM   41  N1  UNL     1     -10.408 -24.716  30.339  1.00  0.00    -0.234 N 
ATOM     42  H12 UNL     1     -10.947 -24.783  29.475  1.00  0.00     0.174 HD
ATOM     43  H11 UNL     1      -9.516 -25.202  30.432  1.00  0.00     0.174 HD
ENDBRANCH  35  41
ENDBRANCH   1  26
TORSDOF 9
ENDMDL
MODEL 2
REMARK VINA RESULT: -7.572147056      1.230      1.541
REMARK  9 active torsions:
REMARK  status: ('A' for Active; 'I' for Inactive)
REMARK    1  A    between atoms: N1_1  and  C1_4 
REMARK    2  A    between atoms: N5_15  and  C5_16 
REMARK    3  A    between atoms: C8_19  and  C9_20 
REMARK    4  A    between atoms: C9_20  and  N6_21 
REMARK    5  A    between atoms: N6_21  and  C10_24 
REMARK    6  A    between atoms: C10_24  and  C11_25 
REMARK    7  A    between atoms: C11_25  and  C12_26 
REMARK    8  A    between atoms: C12_26  and  C13_27 
REMARK    9  A    between atoms: C13_27  and  N7_28 
REMARK       I    between atoms: N7_28  and  C14_31 
REMARK       I    between atoms: C14_31  and  N8_32 
REMARK       I    between atoms: C14_31  and  N9_36 
ROOT
HETATM    1  C5  UNL     1      -8.877 -21.118  34.338  1.00  0.00     0.231 C 
HETATM    2  C6  UNL     1      -7.962 -22.103  34.954  1.00  0.00     0.057 C 
HETATM    3  C7  UNL     1      -6.637 -21.839  34.253  1.00  0.00     0.038 C 
HETATM    4  C8  UNL     1      -7.060 -21.207  32.972  1.00  0.00     0.150 C 
HETATM    5  O1  UNL     1      -8.345 -20.817  33.108  1.00  0.00    -0.359 OA
ENDROOT
BRANCH   4   6
HETATM    6  C9  UNL     1      -6.218 -20.021  32.559  1.00  0.00     0.264 C 
BRANCH   6   7
HETATM    7  N6  UNL     1      -5.461 -20.241  31.349  1.00  0.00    -0.073 N 
ATOM      8  H62 UNL     1      -5.787 -19.619  30.610  1.00  0.00     0.277 HD
ATOM      9  H61 UNL     1      -4.508 -19.897  31.462  1.00  0.00     0.277 HD
BRANCH   7  10
HETATM   10  C10 UNL     1      -5.450 -21.596  30.890  1.00  0.00     0.232 C 
BRANCH  10  11
HETATM   11  C11 UNL     1      -5.212 -21.738  29.407  1.00  0.00     0.029 C 
BRANCH  11  12
HETATM   12  C12 UNL     1      -6.439 -22.290  28.752  1.00  0.00     0.029 C 
BRANCH  12  13
HETATM   13  C13 UNL     1      -6.222 -23.575  28.003  1.00  0.00     0.237 C 
BRANCH  13  14
HETATM   14  N7  UNL     1      -6.740 -23.499  26.643  1.00  0.00    -0.022 N 
HETATM   15  C14 UNL     1      -5.674 -23.721  25.672  1.00  0.00     0.575 C 
HETATM   16  N8  UNL     1      -6.290 -23.673  24.348  1.00  0.00    -0.026 N 
HETATM   17  N9  UNL     1      -4.673 -22.671  25.805  1.00  0.00    -0.026 N 
ATOM     18  H83 UNL     1      -7.069 -24.323  24.244  1.00  0.00     0.278 HD
ATOM     19  H82 UNL     1      -6.814 -22.815  24.180  1.00  0.00     0.278 HD
ATOM     20  H81 UNL     1      -5.544 -23.828  23.669  1.00  0.00     0.278 HD
ATOM     21  H93 UNL     1      -5.078 -21.738  25.727  1.00  0.00     0.278 HD
ATOM     22  H92 UNL     1      -4.317 -22.594  26.759  1.00  0.00     0.278 HD
ATOM     23  H91 UNL     1      -3.927 -22.825  25.127  1.00  0.00     0.278 HD
ATOM     24  H72 UNL     1      -7.521 -24.139  26.499  1.00  0.00     0.281 HD
ATOM     25  H71 UNL     1      -7.230 -22.620  26.473  1.00  0.00     0.281 HD
ENDBRANCH  13  14
ENDBRANCH  12  13
ENDBRANCH  11  12
ENDBRANCH  10  11
ENDBRANCH   7  10
ENDBRANCH   6   7
ENDBRANCH   4   6
BRANCH   1  26
HETATM   26  N5  UNL     1     -10.222 -21.622  34.123  1.00  0.00    -0.299 N 
HETATM   27  C4  UNL     1     -11.260 -21.321  34.924  1.00  0.00     0.188 A 
HETATM   28  N4  UNL     1     -12.391 -21.928  34.475  1.00  0.00    -0.346 N 
HETATM   29  C3  UNL     1     -12.030 -22.603  33.391  1.00  0.00     0.123 A 
ATOM     30  H4  UNL     1     -13.323 -21.874  34.886  1.00  0.00     0.167 HD
HETATM   31  C2  UNL     1     -12.760 -23.401  32.530  1.00  0.00     0.145 A 
HETATM   32  C15 UNL     1     -10.687 -22.429  33.153  1.00  0.00     0.157 A 
HETATM   33  N2  UNL     1     -12.092 -23.957  31.506  1.00  0.00    -0.175 N 
HETATM   34  N3  UNL     1     -14.023 -23.593  32.718  1.00  0.00    -0.383 N 
HETATM   35  C1  UNL     1     -10.773 -23.772  31.291  1.00  0.00     0.679 A 
ATOM     36  H2  UNL     1     -12.609 -24.549  30.857  1.00  0.00     0.186 HD
HETATM   37  N10 UNL     1     -10.043 -22.994  32.124  1.00  0.00    -0.174 N 
ATOM     38  H10 UNL     1      -9.046 -22.844  31.974  1.00  0.00     0.186 HD
ATOM     39  H32 UNL     1     -14.562 -24.182  32.083  1.00  0.00     0.157 HD
ATOM     40  H31 UNL     1     -14.530 -23.171  33.497  1.00  0.00     0.157 HD
BRANCH  35  41
HETATM   41  N1  UNL     1     -10.197 -24.329  30.297  1.00  0.00    -0.234 N 
ATOM     42  H12 UNL     1     -10.104 -25.345  30.281  1.00  0.00     0.174 HD
ATOM     43  H11 UNL     1      -9.834 -23.763  29.529  1.00  0.00     0.174 HD
ENDBRANCH  35  41
ENDBRANCH   1  26
TORSDOF 9
ENDMDL
MODEL 3
REMARK VINA RESULT: -7.118883451      1.719      7.228
REMARK  9 active torsions:
REMARK  status: ('A' for Active; 'I' for Inactive)
REMARK    1  A    between atoms: N1_1  and  C1_4 
REMARK    2  A    between atoms: N5_15  and  C5_16 
REMARK    3  A    between atoms: C8_19  and  C9_20 
REMARK    4  A    between atoms: C9_20  and  N6_21 
REMARK    5  A    between atoms: N6_21  and  C10_24 
REMARK    6  A    between atoms: C10_24  and  C11_25 
REMARK    7  A    between atoms: C11_25  and  C12_26 
REMARK    8  A    between atoms: C12_26  and  C13_27 
REMARK    9  A    between atoms: C13_27  and  N7_28 
REMARK       I    between atoms: N7_28  and  C14_31 
REMARK       I    between atoms: C14_31  and  N8_32 
REMARK       I    between atoms: C14_31  and  N9_36 
ROOT
HETATM    1  C5  UNL     1      -6.351 -23.243  28.738  1.00  0.00     0.231 C 
HETATM    2  C6  UNL     1      -5.298 -22.402  29.346  1.00  0.00     0.057 C 
HETATM    3  C7  UNL     1      -6.031 -21.677  30.467  1.00  0.00     0.038 C 
HETATM    4  C8  UNL     1      -7.449 -21.712  30.013  1.00  0.00     0.150 C 
HETATM    5  O1  UNL     1      -7.546 -22.636  29.032  1.00  0.00    -0.359 OA
ENDROOT
BRANCH   4   6
HETATM    6  C9  UNL     1      -8.442 -22.036  31.106  1.00  0.00     0.264 C 
BRANCH   6   7
HETATM    7  N6  UNL     1      -9.081 -20.872  31.671  1.00  0.00    -0.073 N 
ATOM      8  H62 UNL     1      -8.940 -20.062  31.067  1.00  0.00     0.277 HD
ATOM      9  H61 UNL     1     -10.095 -20.961  31.613  1.00  0.00     0.277 HD
BRANCH   7  10
HETATM   10  C10 UNL     1      -8.686 -20.565  33.012  1.00  0.00     0.232 C 
BRANCH  10  11
HETATM   11  C11 UNL     1      -9.118 -21.594  34.028  1.00  0.00     0.029 C 
BRANCH  11  12
HETATM   12  C12 UNL     1     -10.437 -21.198  34.614  1.00  0.00     0.029 C 
BRANCH  12  13
HETATM   13  C13 UNL     1     -11.620 -21.917  34.029  1.00  0.00     0.237 C 
BRANCH  13  14
HETATM   14  N7  UNL     1     -11.220 -23.125  33.319  1.00  0.00    -0.022 N 
HETATM   15  C14 UNL     1     -12.051 -23.327  32.137  1.00  0.00     0.575 C 
HETATM   16  N8  UNL     1     -11.550 -24.525  31.467  1.00  0.00    -0.026 N 
HETATM   17  N9  UNL     1     -13.436 -23.514  32.547  1.00  0.00    -0.026 N 
ATOM     18  H83 UNL     1     -10.554 -24.480  31.254  1.00  0.00     0.278 HD
ATOM     19  H82 UNL     1     -11.515 -25.341  32.078  1.00  0.00     0.278 HD
ATOM     20  H81 UNL     1     -12.132 -24.667  30.641  1.00  0.00     0.278 HD
ATOM     21  H93 UNL     1     -13.540 -24.268  33.225  1.00  0.00     0.278 HD
ATOM     22  H92 UNL     1     -13.774 -22.747  33.129  1.00  0.00     0.278 HD
ATOM     23  H91 UNL     1     -14.018 -23.655  31.720  1.00  0.00     0.278 HD
ATOM     24  H72 UNL     1     -10.227 -23.114  33.085  1.00  0.00     0.281 HD
ATOM     25  H71 UNL     1     -11.225 -23.942  33.929  1.00  0.00     0.281 HD
ENDBRANCH  13  14
ENDBRANCH  12  13
ENDBRANCH  11  12
ENDBRANCH  10  11
ENDBRANCH   7  10
ENDBRANCH   6   7
ENDBRANCH   4   6
BRANCH   1  26
HETATM   26  N5  UNL     1      -6.256 -23.347  27.292  1.00  0.00    -0.299 N 
HETATM   27  C4  UNL     1      -5.114 -23.146  26.611  1.00  0.00     0.188 A 
HETATM   28  N4  UNL     1      -5.326 -23.317  25.279  1.00  0.00    -0.346 N 
HETATM   29  C3  UNL     1      -6.611 -23.625  25.156  1.00  0.00     0.123 A 
ATOM     30  H4  UNL     1      -4.639 -23.228  24.530  1.00  0.00     0.167 HD
HETATM   31  C2  UNL     1      -7.378 -23.903  24.040  1.00  0.00     0.145 A 
HETATM   32  C15 UNL     1      -7.210 -23.649  26.393  1.00  0.00     0.157 A 
HETATM   33  N2  UNL     1      -8.675 -24.182  24.251  1.00  0.00    -0.175 N 
HETATM   34  N3  UNL     1      -6.856 -23.890  22.859  1.00  0.00    -0.383 N 
HETATM   35  C1  UNL     1      -9.242 -24.200  25.475  1.00  0.00     0.679 A 
ATOM     36  H2  UNL     1      -9.262 -24.391  23.443  1.00  0.00     0.186 HD
HETATM   37  N10 UNL     1      -8.506 -23.930  26.578  1.00  0.00    -0.174 N 
ATOM     38  H10 UNL     1      -8.920 -23.940  27.510  1.00  0.00     0.186 HD
ATOM     39  H32 UNL     1      -7.422 -24.095  22.036  1.00  0.00     0.157 HD
ATOM     40  H31 UNL     1      -5.871 -23.678  22.699  1.00  0.00     0.157 HD
BRANCH  35  41
HETATM   41  N1  UNL     1     -10.482 -24.474  25.608  1.00  0.00    -0.234 N 
ATOM     42  H12 UNL     1     -10.757 -25.272  26.181  1.00  0.00     0.174 HD
ATOM     43  H11 UNL     1     -11.188 -23.901  25.145  1.00  0.00     0.174 HD
ENDBRANCH  35  41
ENDBRANCH   1  26
TORSDOF 9
ENDMDL
MODEL 4
REMARK VINA RESULT: -7.114288037      1.463      6.355
REMARK  9 active torsions:
REMARK  status: ('A' for Active; 'I' for Inactive)
REMARK    1  A    between atoms: N1_1  and  C1_4 
REMARK    2  A    between atoms: N5_15  and  C5_16 
REMARK    3  A    between atoms: C8_19  and  C9_20 
REMARK    4  A    between atoms: C9_20  and  N6_21 
REMARK    5  A    between atoms: N6_21  and  C10_24 
REMARK    6  A    between atoms: C10_24  and  C11_25 
REMARK    7  A    between atoms: C11_25  and  C12_26 
REMARK    8  A    between atoms: C12_26  and  C13_27 
REMARK    9  A    between atoms: C13_27  and  N7_28 
REMARK       I    between atoms: N7_28  and  C14_31 
REMARK       I    between atoms: C14_31  and  N8_32 
REMARK       I    between atoms: C14_31  and  N9_36 
ROOT
HETATM    1  C5  UNL     1      -6.878 -21.757  31.641  1.00  0.00     0.231 C 
HETATM    2  C6  UNL     1      -6.194 -20.893  32.627  1.00  0.00     0.057 C 
HETATM    3  C7  UNL     1      -7.341 -20.160  33.309  1.00  0.00     0.038 C 
HETATM    4  C8  UNL     1      -8.426 -20.221  32.289  1.00  0.00     0.150 C 
HETATM    5  O1  UNL     1      -8.087 -21.160  31.381  1.00  0.00    -0.359 OA
ENDROOT
BRANCH   4   6
HETATM    6  C9  UNL     1      -9.791 -20.541  32.855  1.00  0.00     0.264 C 
BRANCH   6   7
HETATM    7  N6  UNL     1      -9.803 -20.687  34.291  1.00  0.00    -0.073 N 
ATOM      8  H62 UNL     1      -8.938 -21.124  34.609  1.00  0.00     0.277 HD
ATOM      9  H61 UNL     1      -9.716 -19.776  34.740  1.00  0.00     0.277 HD
BRANCH   7  10
HETATM   10  C10 UNL     1     -10.935 -21.391  34.811  1.00  0.00     0.232 C 
BRANCH  10  11
HETATM   11  C11 UNL     1     -12.259 -20.896  34.283  1.00  0.00     0.029 C 
BRANCH  11  12
HETATM   12  C12 UNL     1     -13.083 -22.058  33.824  1.00  0.00     0.029 C 
BRANCH  12  13
HETATM   13  C13 UNL     1     -12.292 -23.291  33.490  1.00  0.00     0.237 C 
BRANCH  13  14
HETATM   14  N7  UNL     1     -12.050 -23.404  32.058  1.00  0.00    -0.022 N 
HETATM   15  C14 UNL     1     -10.914 -24.281  31.795  1.00  0.00     0.575 C 
HETATM   16  N8  UNL     1     -10.775 -24.371  30.343  1.00  0.00    -0.026 N 
HETATM   17  N9  UNL     1      -9.712 -23.705  32.386  1.00  0.00    -0.026 N 
ATOM     18  H83 UNL     1     -11.630 -24.672  29.876  1.00  0.00     0.278 HD
ATOM     19  H82 UNL     1     -10.694 -23.461  29.890  1.00  0.00     0.278 HD
ATOM     20  H81 UNL     1      -9.981 -24.984  30.159  1.00  0.00     0.278 HD
ATOM     21  H93 UNL     1      -9.545 -22.751  32.068  1.00  0.00     0.278 HD
ATOM     22  H92 UNL     1      -9.826 -23.510  33.380  1.00  0.00     0.278 HD
ATOM     23  H91 UNL     1      -8.918 -24.318  32.201  1.00  0.00     0.278 HD
ATOM     24  H72 UNL     1     -12.885 -23.707  31.556  1.00  0.00     0.281 HD
ATOM     25  H71 UNL     1     -11.931 -22.490  31.621  1.00  0.00     0.281 HD
ENDBRANCH  13  14
ENDBRANCH  12  13
ENDBRANCH  11  12
ENDBRANCH  10  11
ENDBRANCH   7  10
ENDBRANCH   6   7
ENDBRANCH   4   6
BRANCH   1  26
HETATM   26  N5  UNL     1      -6.169 -21.881  30.379  1.00  0.00    -0.299 N 
HETATM   27  C4  UNL     1      -4.905 -21.463  30.199  1.00  0.00     0.188 A 
HETATM   28  N4  UNL     1      -4.504 -21.715  28.924  1.00  0.00    -0.346 N 
HETATM   29  C3  UNL     1      -5.540 -22.292  28.329  1.00  0.00     0.123 A 
ATOM     30  H4  UNL     1      -3.595 -21.504  28.511  1.00  0.00     0.167 HD
HETATM   31  C2  UNL     1      -5.706 -22.760  27.039  1.00  0.00     0.145 A 
HETATM   32  C15 UNL     1      -6.587 -22.406  29.213  1.00  0.00     0.157 A 
HETATM   33  N2  UNL     1      -6.898 -23.301  26.739  1.00  0.00    -0.175 N 
HETATM   34  N3  UNL     1      -4.749 -22.671  26.176  1.00  0.00    -0.383 N 
HETATM   35  C1  UNL     1      -7.912 -23.403  27.624  1.00  0.00     0.679 A 
ATOM     36  H2  UNL     1      -7.044 -23.654  25.793  1.00  0.00     0.186 HD
HETATM   37  N10 UNL     1      -7.767 -22.950  28.890  1.00  0.00    -0.174 N 
ATOM     38  H10 UNL     1      -8.524 -23.020  29.570  1.00  0.00     0.186 HD
ATOM     39  H32 UNL     1      -4.871 -23.016  25.224  1.00  0.00     0.157 HD
ATOM     40  H31 UNL     1      -3.844 -22.260  26.404  1.00  0.00     0.157 HD
BRANCH  35  41
HETATM   41  N1  UNL     1      -9.022 -23.930  27.275  1.00  0.00    -0.234 N 
ATOM     42  H12 UNL     1      -9.891 -23.429  27.462  1.00  0.00     0.174 HD
ATOM     43  H11 UNL     1      -9.037 -24.841  26.816  1.00  0.00     0.174 HD
ENDBRANCH  35  41
ENDBRANCH   1  26
TORSDOF 9
ENDMDL
MODEL 5
REMARK VINA RESULT: -7.109070944      1.625      2.519
REMARK  9 active torsions:
REMARK  status: ('A' for Active; 'I' for Inactive)
REMARK    1  A    between atoms: N1_1  and  C1_4 
REMARK    2  A    between atoms: N5_15  and  C5_16 
REMARK    3  A    between atoms: C8_19  and  C9_20 
REMARK    4  A    between atoms: C9_20  and  N6_21 
REMARK    5  A    between atoms: N6_21  and  C10_24 
REMARK    6  A    between atoms: C10_24  and  C11_25 
REMARK    7  A    between atoms: C11_25  and  C12_26 
REMARK    8  A    between atoms: C12_26  and  C13_27 
REMARK    9  A    between atoms: C13_27  and  N7_28 
REMARK       I    between atoms: N7_28  and  C14_31 
REMARK       I    between atoms: C14_31  and  N8_32 
REMARK       I    between atoms: C14_31  and  N9_36 
ROOT
HETATM    1  C5  UNL     1      -7.701 -20.661  31.789  1.00  0.00     0.231 C 
HETATM    2  C6  UNL     1      -6.463 -20.496  32.582  1.00  0.00     0.057 C 
HETATM    3  C7  UNL     1      -5.394 -21.127  31.701  1.00  0.00     0.038 C 
HETATM    4  C8  UNL     1      -6.178 -22.066  30.850  1.00  0.00     0.150 C 
HETATM    5  O1  UNL     1      -7.480 -21.725  30.951  1.00  0.00    -0.359 OA
ENDROOT
BRANCH   4   6
HETATM    6  C9  UNL     1      -5.772 -22.067  29.393  1.00  0.00     0.264 C 
BRANCH   6   7
HETATM    7  N6  UNL     1      -6.068 -23.304  28.711  1.00  0.00    -0.073 N 
ATOM      8  H62 UNL     1      -5.226 -23.875  28.632  1.00  0.00     0.277 HD
ATOM      9  H61 UNL     1      -6.635 -23.908  29.304  1.00  0.00     0.277 HD
BRANCH   7  10
HETATM   10  C10 UNL     1      -6.684 -23.147  27.429  1.00  0.00     0.232 C 
BRANCH  10  11
HETATM   11  C11 UNL     1      -8.173 -23.391  27.431  1.00  0.00     0.029 C 
BRANCH  11  12
HETATM   12  C12 UNL     1      -8.653 -23.579  26.026  1.00  0.00     0.029 C 
BRANCH  12  13
HETATM   13  C13 UNL     1      -9.944 -24.337  25.903  1.00  0.00     0.237 C 
BRANCH  13  14
HETATM   14  N7  UNL     1     -10.110 -25.297  26.987  1.00  0.00    -0.022 N 
HETATM   15  C14 UNL     1     -10.880 -26.452  26.539  1.00  0.00     0.575 C 
HETATM   16  N8  UNL     1     -10.955 -27.376  27.669  1.00  0.00    -0.026 N 
HETATM   17  N9  UNL     1     -12.215 -26.020  26.145  1.00  0.00    -0.026 N 
ATOM     18  H83 UNL     1     -10.041 -27.625  28.045  1.00  0.00     0.278 HD
ATOM     19  H82 UNL     1     -11.331 -26.946  28.514  1.00  0.00     0.278 HD
ATOM     20  H81 UNL     1     -11.494 -28.183  27.356  1.00  0.00     0.278 HD
ATOM     21  H93 UNL     1     -12.688 -25.505  26.888  1.00  0.00     0.278 HD
ATOM     22  H92 UNL     1     -12.190 -25.278  25.446  1.00  0.00     0.278 HD
ATOM     23  H91 UNL     1     -12.754 -26.828  25.832  1.00  0.00     0.278 HD
ATOM     24  H72 UNL     1      -9.213 -25.573  27.388  1.00  0.00     0.281 HD
ATOM     25  H71 UNL     1     -10.522 -24.866  27.815  1.00  0.00     0.281 HD
ENDBRANCH  13  14
ENDBRANCH  12  13
ENDBRANCH  11  12
ENDBRANCH  10  11
ENDBRANCH   7  10
ENDBRANCH   6   7
ENDBRANCH   4   6
BRANCH   1  26
HETATM   26  N5  UNL     1      -8.873 -20.968  32.590  1.00  0.00    -0.299 N 
HETATM   27  C4  UNL     1      -9.234 -20.257  33.673  1.00  0.00     0.188 A 
HETATM   28  N4  UNL     1     -10.371 -20.770  34.214  1.00  0.00    -0.346 N 
HETATM   29  C3  UNL     1     -10.699 -21.803  33.447  1.00  0.00     0.123 A 
ATOM     30  H4  UNL     1     -10.869 -20.431  35.037  1.00  0.00     0.167 HD
HETATM   31  C2  UNL     1     -11.755 -22.693  33.520  1.00  0.00     0.145 A 
HETATM   32  C15 UNL     1      -9.783 -21.946  32.432  1.00  0.00     0.157 A 
HETATM   33  N2  UNL     1     -11.808 -23.648  32.576  1.00  0.00    -0.175 N 
HETATM   34  N3  UNL     1     -12.636 -22.596  34.458  1.00  0.00    -0.383 N 
HETATM   35  C1  UNL     1     -10.897 -23.769  31.589  1.00  0.00     0.679 A 
ATOM     36  H2  UNL     1     -12.578 -24.316  32.609  1.00  0.00     0.186 HD
HETATM   37  N10 UNL     1      -9.858 -22.907  31.502  1.00  0.00    -0.174 N 
ATOM     38  H10 UNL     1      -9.162 -22.985  30.762  1.00  0.00     0.186 HD
ATOM     39  H32 UNL     1     -13.415 -23.252  34.512  1.00  0.00     0.157 HD
ATOM     40  H31 UNL     1     -12.596 -21.870  35.174  1.00  0.00     0.157 HD
BRANCH  35  41
HETATM   41  N1  UNL     1     -11.006 -24.700  30.721  1.00  0.00    -0.234 N 
ATOM     42  H12 UNL     1     -10.442 -25.544  30.824  1.00  0.00     0.174 HD
ATOM     43  H11 UNL     1     -11.649 -24.598  29.936  1.00  0.00     0.174 HD
ENDBRANCH  35  41
ENDBRANCH   1  26
TORSDOF 9
ENDMDL
