MODEL 1
REMARK VINA RESULT: -7.454404630      0.000      0.000
REMARK  11 active torsions:
REMARK  status: ('A' for Active; 'I' for Inactive)
REMARK    1  A    between atoms: N1_1  and  C1_5 
REMARK    2  A    between atoms: C1_5  and  C2_6 
REMARK    3  A    between atoms: C2_6  and  C3_7 
REMARK    4  A    between atoms: C3_7  and  N2_8 
REMARK    5  A    between atoms: N2_8  and  C4_10 
REMARK    6  A    between atoms: C4_10  and  C5_11 
REMARK    7  A    between atoms: C5_11  and  C6_12 
REMARK    8  A    between atoms: C6_12  and  N3_13 
REMARK    9  A    between atoms: N3_13  and  C7_16 
REMARK   10  A    between atoms: C7_16  and  N4_17 
REMARK   11  A    between atoms: C7_16  and  C8_21 
ROOT
HETATM    1  C7  UNL     1       9.357  36.738  -3.750  1.00  0.00     0.415 C 
ENDROOT
BRANCH   1   2
HETATM    2  N3  UNL     1       9.455  36.807  -5.160  1.00  0.00    -0.042 N 
ATOM      3  H32 UNL     1      10.241  37.385  -5.456  1.00  0.00     0.280 HD
ATOM      4  H31 UNL     1       8.699  37.358  -5.565  1.00  0.00     0.280 HD
BRANCH   2   5
HETATM    5  C6  UNL     1       9.518  35.475  -5.735  1.00  0.00     0.240 C 
BRANCH   5   6
HETATM    6  C5  UNL     1       9.629  35.425  -7.213  1.00  0.00     0.072 C 
BRANCH   6   7
HETATM    7  C4  UNL     1       8.660  34.659  -8.010  1.00  0.00     0.057 C 
BRANCH   7   8
HETATM    8  N2  UNL     1       8.429  35.027  -9.331  1.00  0.00    -0.402 N 
ATOM      9  H2  UNL     1       9.124  35.572  -9.840  1.00  0.00     0.158 HD
BRANCH   8  10
HETATM   10  C3  UNL     1       7.234  34.645  -9.962  1.00  0.00     0.120 C 
BRANCH  10  11
HETATM   11  C2  UNL     1       6.899  33.175  -9.645  1.00  0.00     0.047 C 
BRANCH  11  12
HETATM   12  C1  UNL     1       6.029  32.652 -10.769  1.00  0.00     0.231 C 
BRANCH  12  13
HETATM   13  N1  UNL     1       5.425  33.724 -11.521  1.00  0.00    -0.079 N 
ATOM     14  H13 UNL     1       4.443  33.843 -11.274  1.00  0.00     0.274 HD
ATOM     15  H12 UNL     1       5.777  34.633 -11.221  1.00  0.00     0.274 HD
ATOM     16  H11 UNL     1       5.542  33.594 -12.526  1.00  0.00     0.274 HD
ENDBRANCH  12  13
ENDBRANCH  11  12
ENDBRANCH  10  11
ENDBRANCH   8  10
ENDBRANCH   7   8
ENDBRANCH   6   7
ENDBRANCH   5   6
ENDBRANCH   2   5
ENDBRANCH   1   2
BRANCH   1  17
HETATM   17  N4  UNL     1      10.183  37.719  -3.061  1.00  0.00    -0.046 N 
ATOM     18  H43 UNL     1       9.952  38.664  -3.367  1.00  0.00     0.277 HD
ATOM     19  H42 UNL     1       9.918  37.788  -2.079  1.00  0.00     0.277 HD
ATOM     20  H41 UNL     1      11.183  37.544  -3.153  1.00  0.00     0.277 HD
ENDBRANCH   1  17
BRANCH   1  21
HETATM   21  C8  UNL     1       7.988  36.665  -3.192  1.00  0.00     0.031 A 
HETATM   22  C9  UNL     1       7.402  35.580  -2.649  1.00  0.00     0.008 A 
HETATM   23  C10 UNL     1       6.030  35.905  -2.207  1.00  0.00     0.177 A 
HETATM   24  N5  UNL     1       5.862  37.287  -2.569  1.00  0.00    -0.279 N 
HETATM   25  N6  UNL     1       4.825  38.089  -2.416  1.00  0.00    -0.248 N 
HETATM   26  C13 UNL     1       7.014  37.751  -3.144  1.00  0.00     0.129 A 
HETATM   27  C11 UNL     1       4.821  39.374  -2.796  1.00  0.00     0.341 A 
ATOM     28  H6  UNL     1       3.982  37.711  -1.986  1.00  0.00     0.192 HD
HETATM   29  O1  UNL     1       3.801  40.115  -2.631  1.00  0.00    -0.245 OA
HETATM   30  N7  UNL     1       5.918  39.887  -3.364  1.00  0.00    -0.272 N 
HETATM   31  C12 UNL     1       6.990  39.076  -3.528  1.00  0.00     0.278 A 
ATOM     32  H7  UNL     1       5.946  40.860  -3.665  1.00  0.00     0.173 HD
HETATM   33  O2  UNL     1       8.029  39.549  -4.059  1.00  0.00    -0.265 OA
ENDBRANCH   1  21
TORSDOF 11
ENDMDL
MODEL 2
REMARK VINA RESULT: -6.987745209      1.187      1.723
REMARK  11 active torsions:
REMARK  status: ('A' for Active; 'I' for Inactive)
REMARK    1  A    between atoms: N1_1  and  C1_5 
REMARK    2  A    between atoms: C1_5  and  C2_6 
REMARK    3  A    between atoms: C2_6  and  C3_7 
REMARK    4  A    between atoms: C3_7  and  N2_8 
REMARK    5  A    between atoms: N2_8  and  C4_10 
REMARK    6  A    between atoms: C4_10  and  C5_11 
REMARK    7  A    between atoms: C5_11  and  C6_12 
REMARK    8  A    between atoms: C6_12  and  N3_13 
REMARK    9  A    between atoms: N3_13  and  C7_16 
REMARK   10  A    between atoms: C7_16  and  N4_17 
REMARK   11  A    between atoms: C7_16  and  C8_21 
ROOT
HETATM    1  C7  UNL     1       9.377  36.813  -3.752  1.00  0.00     0.415 C 
ENDROOT
BRANCH   1   2
HETATM    2  N3  UNL     1       9.487  36.998  -5.150  1.00  0.00    -0.042 N 
ATOM      3  H32 UNL     1      10.296  37.569  -5.394  1.00  0.00     0.280 HD
ATOM      4  H31 UNL     1       8.755  37.610  -5.509  1.00  0.00     0.280 HD
BRANCH   2   5
HETATM    5  C6  UNL     1       9.504  35.718  -5.836  1.00  0.00     0.240 C 
BRANCH   5   6
HETATM    6  C5  UNL     1      10.485  34.732  -5.319  1.00  0.00     0.072 C 
BRANCH   6   7
HETATM    7  C4  UNL     1      10.841  33.546  -6.111  1.00  0.00     0.057 C 
BRANCH   7   8
HETATM    8  N2  UNL     1      10.178  33.308  -7.309  1.00  0.00    -0.402 N 
ATOM      9  H2  UNL     1      10.492  33.762  -8.167  1.00  0.00     0.158 HD
BRANCH   8  10
HETATM   10  C3  UNL     1       9.075  32.440  -7.335  1.00  0.00     0.120 C 
BRANCH  10  11
HETATM   11  C2  UNL     1       8.208  32.701  -8.582  1.00  0.00     0.047 C 
BRANCH  11  12
HETATM   12  C1  UNL     1       7.752  34.144  -8.527  1.00  0.00     0.231 C 
BRANCH  12  13
HETATM   13  N1  UNL     1       8.173  34.884  -9.691  1.00  0.00    -0.079 N 
ATOM     14  H13 UNL     1       9.185  34.845  -9.810  1.00  0.00     0.274 HD
ATOM     15  H12 UNL     1       7.892  34.413 -10.552  1.00  0.00     0.274 HD
ATOM     16  H11 UNL     1       7.839  35.848  -9.670  1.00  0.00     0.274 HD
ENDBRANCH  12  13
ENDBRANCH  11  12
ENDBRANCH  10  11
ENDBRANCH   8  10
ENDBRANCH   7   8
ENDBRANCH   6   7
ENDBRANCH   5   6
ENDBRANCH   2   5
ENDBRANCH   1   2
BRANCH   1  17
HETATM   17  N4  UNL     1      10.214  37.719  -2.978  1.00  0.00    -0.046 N 
ATOM     18  H43 UNL     1      10.815  37.199  -2.340  1.00  0.00     0.277 HD
ATOM     19  H42 UNL     1      10.925  38.148  -3.571  1.00  0.00     0.277 HD
ATOM     20  H41 UNL     1       9.686  38.432  -2.476  1.00  0.00     0.277 HD
ENDBRANCH   1  17
BRANCH   1  21
HETATM   21  C8  UNL     1       8.004  36.715  -3.211  1.00  0.00     0.031 A 
HETATM   22  C9  UNL     1       7.420  35.613  -2.699  1.00  0.00     0.008 A 
HETATM   23  C10 UNL     1       6.041  35.916  -2.265  1.00  0.00     0.177 A 
HETATM   24  N5  UNL     1       5.865  37.305  -2.595  1.00  0.00    -0.279 N 
HETATM   25  N6  UNL     1       4.821  38.095  -2.434  1.00  0.00    -0.248 N 
HETATM   26  C13 UNL     1       7.019  37.792  -3.147  1.00  0.00     0.129 A 
HETATM   27  C11 UNL     1       4.810  39.389  -2.784  1.00  0.00     0.341 A 
ATOM     28  H6  UNL     1       3.976  37.699  -2.022  1.00  0.00     0.192 HD
HETATM   29  O1  UNL     1       3.782  40.117  -2.611  1.00  0.00    -0.245 OA
HETATM   30  N7  UNL     1       5.908  39.923  -3.327  1.00  0.00    -0.272 N 
HETATM   31  C12 UNL     1       6.989  39.126  -3.499  1.00  0.00     0.278 A 
ATOM     32  H7  UNL     1       5.931  40.904  -3.604  1.00  0.00     0.173 HD
HETATM   33  O2  UNL     1       8.029  39.619  -4.008  1.00  0.00    -0.265 OA
ENDBRANCH   1  21
TORSDOF 11
ENDMDL
MODEL 3
REMARK VINA RESULT: -6.875717184      1.627      2.518
REMARK  11 active torsions:
REMARK  status: ('A' for Active; 'I' for Inactive)
REMARK    1  A    between atoms: N1_1  and  C1_5 
REMARK    2  A    between atoms: C1_5  and  C2_6 
REMARK    3  A    between atoms: C2_6  and  C3_7 
REMARK    4  A    between atoms: C3_7  and  N2_8 
REMARK    5  A    between atoms: N2_8  and  C4_10 
REMARK    6  A    between atoms: C4_10  and  C5_11 
REMARK    7  A    between atoms: C5_11  and  C6_12 
REMARK    8  A    between atoms: C6_12  and  N3_13 
REMARK    9  A    between atoms: N3_13  and  C7_16 
REMARK   10  A    between atoms: C7_16  and  N4_17 
REMARK   11  A    between atoms: C7_16  and  C8_21 
ROOT
HETATM    1  C7  UNL     1       9.317  36.667  -3.798  1.00  0.00     0.415 C 
ENDROOT
BRANCH   1   2
HETATM    2  N3  UNL     1       9.400  36.757  -5.207  1.00  0.00    -0.042 N 
ATOM      3  H32 UNL     1      10.119  37.417  -5.502  1.00  0.00     0.280 HD
ATOM      4  H31 UNL     1       8.588  37.227  -5.606  1.00  0.00     0.280 HD
BRANCH   2   5
HETATM    5  C6  UNL     1       9.602  35.442  -5.793  1.00  0.00     0.240 C 
BRANCH   5   6
HETATM    6  C5  UNL     1       9.495  35.382  -7.272  1.00  0.00     0.072 C 
BRANCH   6   7
HETATM    7  C4  UNL     1       8.450  34.572  -7.913  1.00  0.00     0.057 C 
BRANCH   7   8
HETATM    8  N2  UNL     1       8.797  33.358  -8.496  1.00  0.00    -0.402 N 
ATOM      9  H2  UNL     1       8.991  33.307  -9.496  1.00  0.00     0.158 HD
BRANCH   8  10
HETATM   10  C3  UNL     1       8.878  32.202  -7.703  1.00  0.00     0.120 C 
BRANCH  10  11
HETATM   11  C2  UNL     1      10.237  31.503  -7.900  1.00  0.00     0.047 C 
BRANCH  11  12
HETATM   12  C1  UNL     1      11.183  32.039  -6.847  1.00  0.00     0.231 C 
BRANCH  12  13
HETATM   13  N1  UNL     1      12.145  32.956  -7.408  1.00  0.00    -0.079 N 
ATOM     14  H13 UNL     1      12.311  33.746  -6.786  1.00  0.00     0.274 HD
ATOM     15  H12 UNL     1      13.083  32.555  -7.411  1.00  0.00     0.274 HD
ATOM     16  H11 UNL     1      11.872  33.268  -8.340  1.00  0.00     0.274 HD
ENDBRANCH  12  13
ENDBRANCH  11  12
ENDBRANCH  10  11
ENDBRANCH   8  10
ENDBRANCH   7   8
ENDBRANCH   6   7
ENDBRANCH   5   6
ENDBRANCH   2   5
ENDBRANCH   1   2
BRANCH   1  17
HETATM   17  N4  UNL     1      10.174  37.616  -3.103  1.00  0.00    -0.046 N 
ATOM     18  H43 UNL     1      10.634  37.172  -2.308  1.00  0.00     0.277 HD
ATOM     19  H42 UNL     1      10.993  37.843  -3.668  1.00  0.00     0.277 HD
ATOM     20  H41 UNL     1       9.691  38.465  -2.812  1.00  0.00     0.277 HD
ENDBRANCH   1  17
BRANCH   1  21
HETATM   21  C8  UNL     1       7.953  36.617  -3.226  1.00  0.00     0.031 A 
HETATM   22  C9  UNL     1       7.355  35.544  -2.672  1.00  0.00     0.008 A 
HETATM   23  C10 UNL     1       5.993  35.892  -2.217  1.00  0.00     0.177 A 
HETATM   24  N5  UNL     1       5.843  37.275  -2.582  1.00  0.00    -0.279 N 
HETATM   25  N6  UNL     1       4.821  38.095  -2.421  1.00  0.00    -0.248 N 
HETATM   26  C13 UNL     1       6.996  37.719  -3.171  1.00  0.00     0.129 A 
HETATM   27  C11 UNL     1       4.834  39.378  -2.805  1.00  0.00     0.341 A 
ATOM     28  H6  UNL     1       3.977  37.731  -1.980  1.00  0.00     0.192 HD
HETATM   29  O1  UNL     1       3.828  40.136  -2.632  1.00  0.00    -0.245 OA
HETATM   30  N7  UNL     1       5.932  39.871  -3.386  1.00  0.00    -0.272 N 
HETATM   31  C12 UNL     1       6.990  39.043  -3.558  1.00  0.00     0.278 A 
ATOM     32  H7  UNL     1       5.973  40.844  -3.690  1.00  0.00     0.173 HD
HETATM   33  O2  UNL     1       8.030  39.497  -4.102  1.00  0.00    -0.265 OA
ENDBRANCH   1  21
TORSDOF 11
ENDMDL
MODEL 4
REMARK VINA RESULT: -6.788435058      2.864      4.647
REMARK  11 active torsions:
REMARK  status: ('A' for Active; 'I' for Inactive)
REMARK    1  A    between atoms: N1_1  and  C1_5 
REMARK    2  A    between atoms: C1_5  and  C2_6 
REMARK    3  A    between atoms: C2_6  and  C3_7 
REMARK    4  A    between atoms: C3_7  and  N2_8 
REMARK    5  A    between atoms: N2_8  and  C4_10 
REMARK    6  A    between atoms: C4_10  and  C5_11 
REMARK    7  A    between atoms: C5_11  and  C6_12 
REMARK    8  A    between atoms: C6_12  and  N3_13 
REMARK    9  A    between atoms: N3_13  and  C7_16 
REMARK   10  A    between atoms: C7_16  and  N4_17 
REMARK   11  A    between atoms: C7_16  and  C8_21 
ROOT
HETATM    1  C7  UNL     1       9.369  36.756  -3.726  1.00  0.00     0.415 C 
ENDROOT
BRANCH   1   2
HETATM    2  N3  UNL     1       9.467  36.840  -5.135  1.00  0.00    -0.042 N 
ATOM      3  H32 UNL     1      10.248  37.428  -5.425  1.00  0.00     0.280 HD
ATOM      4  H31 UNL     1       8.706  37.387  -5.536  1.00  0.00     0.280 HD
BRANCH   2   5
HETATM    5  C6  UNL     1       9.544  35.514  -5.723  1.00  0.00     0.240 C 
BRANCH   5   6
HETATM    6  C5  UNL     1      10.410  35.398  -6.922  1.00  0.00     0.072 C 
BRANCH   6   7
HETATM    7  C4  UNL     1      11.767  34.844  -6.813  1.00  0.00     0.057 C 
BRANCH   7   8
HETATM    8  N2  UNL     1      12.379  34.791  -5.566  1.00  0.00    -0.402 N 
ATOM      9  H2  UNL     1      12.540  35.649  -5.038  1.00  0.00     0.158 HD
BRANCH   8  10
HETATM   10  C3  UNL     1      12.775  33.553  -5.035  1.00  0.00     0.120 C 
BRANCH  10  11
HETATM   11  C2  UNL     1      14.130  33.681  -4.312  1.00  0.00     0.047 C 
BRANCH  11  12
HETATM   12  C1  UNL     1      14.479  32.318  -3.752  1.00  0.00     0.231 C 
BRANCH  12  13
HETATM   13  N1  UNL     1      14.925  32.401  -2.383  1.00  0.00    -0.079 N 
ATOM     14  H13 UNL     1      15.824  32.876  -2.313  1.00  0.00     0.274 HD
ATOM     15  H12 UNL     1      14.356  33.055  -1.845  1.00  0.00     0.274 HD
ATOM     16  H11 UNL     1      14.955  31.483  -1.938  1.00  0.00     0.274 HD
ENDBRANCH  12  13
ENDBRANCH  11  12
ENDBRANCH  10  11
ENDBRANCH   8  10
ENDBRANCH   7   8
ENDBRANCH   6   7
ENDBRANCH   5   6
ENDBRANCH   2   5
ENDBRANCH   1   2
BRANCH   1  17
HETATM   17  N4  UNL     1      10.196  37.729  -3.027  1.00  0.00    -0.046 N 
ATOM     18  H43 UNL     1      10.756  38.268  -3.688  1.00  0.00     0.277 HD
ATOM     19  H42 UNL     1       9.623  38.478  -2.639  1.00  0.00     0.277 HD
ATOM     20  H41 UNL     1      10.788  37.317  -2.306  1.00  0.00     0.277 HD
ENDBRANCH   1  17
BRANCH   1  21
HETATM   21  C8  UNL     1       8.001  36.678  -3.169  1.00  0.00     0.031 A 
HETATM   22  C9  UNL     1       7.420  35.594  -2.619  1.00  0.00     0.008 A 
HETATM   23  C10 UNL     1       6.045  35.913  -2.181  1.00  0.00     0.177 A 
HETATM   24  N5  UNL     1       5.869  37.291  -2.552  1.00  0.00    -0.279 N 
HETATM   25  N6  UNL     1       4.828  38.088  -2.406  1.00  0.00    -0.248 N 
HETATM   26  C13 UNL     1       7.019  37.759  -3.130  1.00  0.00     0.129 A 
HETATM   27  C11 UNL     1       4.816  39.371  -2.795  1.00  0.00     0.341 A 
ATOM     28  H6  UNL     1       3.987  37.708  -1.973  1.00  0.00     0.192 HD
HETATM   29  O1  UNL     1       3.791  40.107  -2.635  1.00  0.00    -0.245 OA
HETATM   30  N7  UNL     1       5.910  39.886  -3.365  1.00  0.00    -0.272 N 
HETATM   31  C12 UNL     1       6.988  39.081  -3.522  1.00  0.00     0.278 A 
ATOM     32  H7  UNL     1       5.932  40.858  -3.672  1.00  0.00     0.173 HD
HETATM   33  O2  UNL     1       8.024  39.556  -4.056  1.00  0.00    -0.265 OA
ENDBRANCH   1  21
TORSDOF 11
ENDMDL
MODEL 5
REMARK VINA RESULT: -6.693305850      1.560      2.072
REMARK  11 active torsions:
REMARK  status: ('A' for Active; 'I' for Inactive)
REMARK    1  A    between atoms: N1_1  and  C1_5 
REMARK    2  A    between atoms: C1_5  and  C2_6 
REMARK    3  A    between atoms: C2_6  and  C3_7 
REMARK    4  A    between atoms: C3_7  and  N2_8 
REMARK    5  A    between atoms: N2_8  and  C4_10 
REMARK    6  A    between atoms: C4_10  and  C5_11 
REMARK    7  A    between atoms: C5_11  and  C6_12 
REMARK    8  A    between atoms: C6_12  and  N3_13 
REMARK    9  A    between atoms: N3_13  and  C7_16 
REMARK   10  A    between atoms: C7_16  and  N4_17 
REMARK   11  A    between atoms: C7_16  and  C8_21 
ROOT
HETATM    1  C7  UNL     1       9.348  36.720  -3.757  1.00  0.00     0.415 C 
ENDROOT
BRANCH   1   2
HETATM    2  N3  UNL     1       9.443  36.793  -5.167  1.00  0.00    -0.042 N 
ATOM      3  H32 UNL     1      10.215  37.389  -5.464  1.00  0.00     0.280 HD
ATOM      4  H31 UNL     1       8.674  37.326  -5.571  1.00  0.00     0.280 HD
BRANCH   2   5
HETATM    5  C6  UNL     1       9.538  35.462  -5.743  1.00  0.00     0.240 C 
BRANCH   5   6
HETATM    6  C5  UNL     1       9.562  35.412  -7.226  1.00  0.00     0.072 C 
BRANCH   6   7
HETATM    7  C4  UNL     1       8.541  34.657  -7.965  1.00  0.00     0.057 C 
BRANCH   7   8
HETATM    8  N2  UNL     1       8.857  33.399  -8.464  1.00  0.00    -0.402 N 
ATOM      9  H2  UNL     1       9.089  33.283  -9.450  1.00  0.00     0.158 HD
BRANCH   8  10
HETATM   10  C3  UNL     1       8.857  32.288  -7.606  1.00  0.00     0.120 C 
BRANCH  10  11
HETATM   11  C2  UNL     1       7.419  31.924  -7.191  1.00  0.00     0.047 C 
BRANCH  11  12
HETATM   12  C1  UNL     1       7.346  31.999  -5.680  1.00  0.00     0.231 C 
BRANCH  12  13
HETATM   13  N1  UNL     1       6.594  33.147  -5.237  1.00  0.00    -0.079 N 
ATOM     14  H13 UNL     1       6.624  33.898  -5.926  1.00  0.00     0.274 HD
ATOM     15  H12 UNL     1       5.591  32.961  -5.246  1.00  0.00     0.274 HD
ATOM     16  H11 UNL     1       6.903  33.472  -4.320  1.00  0.00     0.274 HD
ENDBRANCH  12  13
ENDBRANCH  11  12
ENDBRANCH  10  11
ENDBRANCH   8  10
ENDBRANCH   7   8
ENDBRANCH   6   7
ENDBRANCH   5   6
ENDBRANCH   2   5
ENDBRANCH   1   2
BRANCH   1  17
HETATM   17  N4  UNL     1      10.181  37.694  -3.068  1.00  0.00    -0.046 N 
ATOM     18  H43 UNL     1      11.050  37.852  -3.578  1.00  0.00     0.277 HD
ATOM     19  H42 UNL     1       9.774  38.628  -3.133  1.00  0.00     0.277 HD
ATOM     20  H41 UNL     1      10.372  37.452  -2.096  1.00  0.00     0.277 HD
ENDBRANCH   1  17
BRANCH   1  21
HETATM   21  C8  UNL     1       7.980  36.652  -3.197  1.00  0.00     0.031 A 
HETATM   22  C9  UNL     1       7.391  35.570  -2.650  1.00  0.00     0.008 A 
HETATM   23  C10 UNL     1       6.021  35.900  -2.206  1.00  0.00     0.177 A 
HETATM   24  N5  UNL     1       5.857  37.282  -2.570  1.00  0.00    -0.279 N 
HETATM   25  N6  UNL     1       4.824  38.088  -2.417  1.00  0.00    -0.248 N 
HETATM   26  C13 UNL     1       7.009  37.742  -3.149  1.00  0.00     0.129 A 
HETATM   27  C11 UNL     1       4.823  39.372  -2.799  1.00  0.00     0.341 A 
ATOM     28  H6  UNL     1       3.980  37.713  -1.983  1.00  0.00     0.192 HD
HETATM   29  O1  UNL     1       3.805  40.117  -2.633  1.00  0.00    -0.245 OA
HETATM   30  N7  UNL     1       5.920  39.880  -3.370  1.00  0.00    -0.272 N 
HETATM   31  C12 UNL     1       6.989  39.066  -3.534  1.00  0.00     0.278 A 
ATOM     32  H7  UNL     1       5.950  40.853  -3.673  1.00  0.00     0.173 HD
HETATM   33  O2  UNL     1       8.028  39.534  -4.069  1.00  0.00    -0.265 OA
ENDBRANCH   1  21
TORSDOF 11
ENDMDL
