MODEL 1
REMARK VINA RESULT: -4.937302140      0.000      0.000
REMARK  4 active torsions:
REMARK  status: ('A' for Active; 'I' for Inactive)
REMARK    1  A    between atoms: N1_1  and  C1_5 
REMARK    2  A    between atoms: C1_5  and  C2_6 
REMARK    3  A    between atoms: C2_6  and  C3_7 
REMARK    4  A    between atoms: C3_7  and  C4_8 
ROOT
HETATM    1  C4  UNL     1      -0.977  60.262  44.198  1.00  0.00     0.169 C 
HETATM    2  N2  UNL     1      -1.361  59.779  42.915  1.00  0.00    -0.409 N 
ATOM      3  H2  UNL     1      -0.686  59.655  42.159  1.00  0.00     0.154 HD
HETATM    4  C5  UNL     1      -2.738  59.480  42.749  1.00  0.00     0.116 C 
HETATM    5  C6  UNL     1      -3.124  58.106  43.275  1.00  0.00     0.039 C 
HETATM    6  C7  UNL     1      -3.600  58.312  44.702  1.00  0.00     0.124 C 
HETATM    7  N3  UNL     1      -2.426  58.470  45.527  1.00  0.00    -0.359 N 
ATOM      8  H3  UNL     1      -2.368  57.875  46.354  1.00  0.00     0.162 HD
HETATM    9  C8  UNL     1      -1.349  59.356  45.316  1.00  0.00     0.240 C 
HETATM   10  O1  UNL     1      -0.538  59.360  46.307  1.00  0.00    -0.271 OA
ENDROOT
BRANCH   1  11
HETATM   11  C3  UNL     1       0.538  60.355  44.206  1.00  0.00     0.036 C 
BRANCH  11  12
HETATM   12  C2  UNL     1       1.169  59.445  43.184  1.00  0.00     0.030 C 
BRANCH  12  13
HETATM   13  C1  UNL     1       2.460  58.927  43.817  1.00  0.00     0.230 C 
BRANCH  13  14
HETATM   14  N1  UNL     1       2.323  58.749  45.231  1.00  0.00    -0.079 N 
ATOM     15  H13 UNL     1       3.050  59.251  45.740  1.00  0.00     0.274 HD
ATOM     16  H12 UNL     1       1.506  59.243  45.590  1.00  0.00     0.274 HD
ATOM     17  H11 UNL     1       2.303  57.763  45.488  1.00  0.00     0.274 HD
ENDBRANCH  13  14
ENDBRANCH  12  13
ENDBRANCH  11  12
ENDBRANCH   1  11
TORSDOF 4
ENDMDL
MODEL 2
REMARK VINA RESULT: -4.682731359      1.295      4.211
REMARK  4 active torsions:
REMARK  status: ('A' for Active; 'I' for Inactive)
REMARK    1  A    between atoms: N1_1  and  C1_5 
REMARK    2  A    between atoms: C1_5  and  C2_6 
REMARK    3  A    between atoms: C2_6  and  C3_7 
REMARK    4  A    between atoms: C3_7  and  C4_8 
ROOT
HETATM    1  C4  UNL     1      -1.505  59.238  43.695  1.00  0.00     0.169 C 
HETATM    2  N2  UNL     1      -0.981  60.257  42.850  1.00  0.00    -0.409 N 
ATOM      3  H2  UNL     1      -1.555  61.031  42.516  1.00  0.00     0.154 HD
HETATM    4  C5  UNL     1       0.389  60.131  42.500  1.00  0.00     0.116 C 
HETATM    5  C6  UNL     1       1.334  60.663  43.567  1.00  0.00     0.039 C 
HETATM    6  C7  UNL     1       1.708  59.477  44.437  1.00  0.00     0.124 C 
HETATM    7  N3  UNL     1       0.597  59.229  45.325  1.00  0.00    -0.359 N 
ATOM      8  H3  UNL     1       0.817  59.159  46.319  1.00  0.00     0.162 HD
HETATM    9  C8  UNL     1      -0.759  59.072  44.970  1.00  0.00     0.240 C 
HETATM   10  O1  UNL     1      -1.472  58.715  45.971  1.00  0.00    -0.271 OA
ENDROOT
BRANCH   1  11
HETATM   11  C3  UNL     1      -2.915  59.653  44.075  1.00  0.00     0.036 C 
BRANCH  11  12
HETATM   12  C2  UNL     1      -3.955  59.004  43.199  1.00  0.00     0.030 C 
BRANCH  12  13
HETATM   13  C1  UNL     1      -4.377  57.724  43.920  1.00  0.00     0.230 C 
BRANCH  13  14
HETATM   14  N1  UNL     1      -4.379  57.892  45.341  1.00  0.00    -0.079 N 
ATOM     15  H13 UNL     1      -3.565  58.419  45.654  1.00  0.00     0.274 HD
ATOM     16  H12 UNL     1      -5.112  58.538  45.637  1.00  0.00     0.274 HD
ATOM     17  H11 UNL     1      -4.453  56.999  45.827  1.00  0.00     0.274 HD
ENDBRANCH  13  14
ENDBRANCH  12  13
ENDBRANCH  11  12
ENDBRANCH   1  11
TORSDOF 4
ENDMDL
MODEL 3
REMARK VINA RESULT: -4.591193785      2.344      3.476
REMARK  4 active torsions:
REMARK  status: ('A' for Active; 'I' for Inactive)
REMARK    1  A    between atoms: N1_1  and  C1_5 
REMARK    2  A    between atoms: C1_5  and  C2_6 
REMARK    3  A    between atoms: C2_6  and  C3_7 
REMARK    4  A    between atoms: C3_7  and  C4_8 
ROOT
HETATM    1  C4  UNL     1      -3.159  58.225  44.126  1.00  0.00     0.169 C 
HETATM    2  N2  UNL     1      -4.365  57.985  44.845  1.00  0.00    -0.409 N 
ATOM      3  H2  UNL     1      -4.560  58.435  45.740  1.00  0.00     0.154 HD
HETATM    4  C5  UNL     1      -5.279  57.083  44.243  1.00  0.00     0.116 C 
HETATM    5  C6  UNL     1      -6.155  57.731  43.181  1.00  0.00     0.039 C 
HETATM    6  C7  UNL     1      -5.453  57.510  41.853  1.00  0.00     0.124 C 
HETATM    7  N3  UNL     1      -4.376  58.468  41.773  1.00  0.00    -0.359 N 
ATOM      8  H3  UNL     1      -4.334  59.033  40.925  1.00  0.00     0.162 HD
HETATM    9  C8  UNL     1      -3.375  58.709  42.737  1.00  0.00     0.240 C 
HETATM   10  O1  UNL     1      -2.482  59.514  42.301  1.00  0.00    -0.271 OA
ENDROOT
BRANCH   1  11
HETATM   11  C3  UNL     1      -2.417  59.331  44.855  1.00  0.00     0.036 C 
BRANCH  11  12
HETATM   12  C2  UNL     1      -1.119  58.848  45.450  1.00  0.00     0.030 C 
BRANCH  12  13
HETATM   13  C1  UNL     1      -0.014  59.654  44.769  1.00  0.00     0.230 C 
BRANCH  13  14
HETATM   14  N1  UNL     1       0.383  59.065  43.527  1.00  0.00    -0.079 N 
ATOM     15  H13 UNL     1       1.399  59.000  43.454  1.00  0.00     0.274 HD
ATOM     16  H12 UNL     1       0.157  58.071  43.498  1.00  0.00     0.274 HD
ATOM     17  H11 UNL     1      -0.015  59.560  42.729  1.00  0.00     0.274 HD
ENDBRANCH  13  14
ENDBRANCH  12  13
ENDBRANCH  11  12
ENDBRANCH   1  11
TORSDOF 4
ENDMDL
MODEL 4
REMARK VINA RESULT: -4.525946169      2.503      5.250
REMARK  4 active torsions:
REMARK  status: ('A' for Active; 'I' for Inactive)
REMARK    1  A    between atoms: N1_1  and  C1_5 
REMARK    2  A    between atoms: C1_5  and  C2_6 
REMARK    3  A    between atoms: C2_6  and  C3_7 
REMARK    4  A    between atoms: C3_7  and  C4_8 
ROOT
HETATM    1  C4  UNL     1       1.516  60.134  43.733  1.00  0.00     0.169 C 
HETATM    2  N2  UNL     1       1.395  61.538  43.940  1.00  0.00    -0.409 N 
ATOM      3  H2  UNL     1       0.804  61.927  44.674  1.00  0.00     0.154 HD
HETATM    4  C5  UNL     1       2.147  62.362  43.063  1.00  0.00     0.116 C 
HETATM    5  C6  UNL     1       3.600  62.523  43.484  1.00  0.00     0.039 C 
HETATM    6  C7  UNL     1       4.381  61.454  42.741  1.00  0.00     0.124 C 
HETATM    7  N3  UNL     1       4.158  60.204  43.428  1.00  0.00    -0.359 N 
ATOM      8  H3  UNL     1       4.990  59.671  43.683  1.00  0.00     0.162 HD
HETATM    9  C8  UNL     1       2.917  59.638  43.786  1.00  0.00     0.240 C 
HETATM   10  O1  UNL     1       3.053  58.453  44.249  1.00  0.00    -0.271 OA
ENDROOT
BRANCH   1  11
HETATM   11  C3  UNL     1       0.776  59.449  44.869  1.00  0.00     0.036 C 
BRANCH  11  12
HETATM   12  C2  UNL     1      -0.629  59.971  45.028  1.00  0.00     0.030 C 
BRANCH  12  13
HETATM   13  C1  UNL     1      -1.554  58.831  44.604  1.00  0.00     0.230 C 
BRANCH  13  14
HETATM   14  N1  UNL     1      -2.538  58.547  45.603  1.00  0.00    -0.079 N 
ATOM     15  H13 UNL     1      -2.109  58.408  46.518  1.00  0.00     0.274 HD
ATOM     16  H12 UNL     1      -3.102  59.370  45.814  1.00  0.00     0.274 HD
ATOM     17  H11 UNL     1      -3.123  57.753  45.343  1.00  0.00     0.274 HD
ENDBRANCH  13  14
ENDBRANCH  12  13
ENDBRANCH  11  12
ENDBRANCH   1  11
TORSDOF 4
ENDMDL
MODEL 5
REMARK VINA RESULT: -4.503999326      1.726      4.269
REMARK  4 active torsions:
REMARK  status: ('A' for Active; 'I' for Inactive)
REMARK    1  A    between atoms: N1_1  and  C1_5 
REMARK    2  A    between atoms: C1_5  and  C2_6 
REMARK    3  A    between atoms: C2_6  and  C3_7 
REMARK    4  A    between atoms: C3_7  and  C4_8 
ROOT
HETATM    1  C4  UNL     1      -0.967  59.186  43.682  1.00  0.00     0.169 C 
HETATM    2  N2  UNL     1      -1.322  59.956  42.538  1.00  0.00    -0.409 N 
ATOM      3  H2  UNL     1      -2.287  60.034  42.217  1.00  0.00     0.154 HD
HETATM    4  C5  UNL     1      -0.253  60.607  41.871  1.00  0.00     0.116 C 
HETATM    5  C6  UNL     1       0.146  61.927  42.516  1.00  0.00     0.039 C 
HETATM    6  C7  UNL     1       1.275  61.608  43.480  1.00  0.00     0.124 C 
HETATM    7  N3  UNL     1       0.680  61.030  44.662  1.00  0.00    -0.359 N 
ATOM      8  H3  UNL     1       0.948  61.446  45.554  1.00  0.00     0.162 HD
HETATM    9  C8  UNL     1      -0.231  59.955  44.719  1.00  0.00     0.240 C 
HETATM   10  O1  UNL     1      -0.452  59.586  45.924  1.00  0.00    -0.271 OA
ENDROOT
BRANCH   1  11
HETATM   11  C3  UNL     1      -2.261  58.723  44.329  1.00  0.00     0.036 C 
BRANCH  11  12
HETATM   12  C2  UNL     1      -2.983  57.701  43.489  1.00  0.00     0.030 C 
BRANCH  12  13
HETATM   13  C1  UNL     1      -4.438  57.723  43.955  1.00  0.00     0.230 C 
BRANCH  13  14
HETATM   14  N1  UNL     1      -4.540  57.914  45.369  1.00  0.00    -0.079 N 
ATOM     15  H13 UNL     1      -4.810  57.051  45.842  1.00  0.00     0.274 HD
ATOM     16  H12 UNL     1      -3.622  58.048  45.793  1.00  0.00     0.274 HD
ATOM     17  H11 UNL     1      -5.172  58.679  45.603  1.00  0.00     0.274 HD
ENDBRANCH  13  14
ENDBRANCH  12  13
ENDBRANCH  11  12
ENDBRANCH   1  11
TORSDOF 4
ENDMDL
