MODEL 1
REMARK VINA RESULT: -7.584299800      0.000      0.000
REMARK  15 active torsions:
REMARK  status: ('A' for Active; 'I' for Inactive)
REMARK    1  A    between atoms: C2_2  and  C3_3 
REMARK    2  A    between atoms: C3_3  and  C4_4 
REMARK    3  A    between atoms: C4_4  and  C5_5 
REMARK    4  A    between atoms: C5_5  and  C6_6 
REMARK    5  A    between atoms: C6_6  and  C7_7 
REMARK    6  A    between atoms: C7_7  and  C9_9 
REMARK    7  A    between atoms: C13_17  and  C14_18 
REMARK    8  A    between atoms: C14_18  and  C15_19 
REMARK    9  A    between atoms: C15_19  and  C16_20 
REMARK   10  A    between atoms: C19_26  and  C20_27 
REMARK   11  A    between atoms: C20_27  and  C22_29 
REMARK   12  A    between atoms: C24_31  and  O4_32 
REMARK   13  A    between atoms: C25_36  and  C26_37 
REMARK   14  A    between atoms: C26_37  and  C27_38 
REMARK   15  A    between atoms: C30_41  and  O5_42 
ROOT
HETATM    1  C9  UNL     1      31.053  27.988   9.099  1.00  0.00     0.157 C 
HETATM    2  O1  UNL     1      30.541  28.913   9.832  1.00  0.00    -0.369 OA
HETATM    3  C10 UNL     1      29.705  29.899   9.784  1.00  0.00     0.209 C 
HETATM    4  C11 UNL     1      28.269  29.615   9.376  1.00  0.00     0.050 C 
HETATM    5  C12 UNL     1      29.599  30.448  11.196  1.00  0.00     0.247 C 
HETATM    6  O2  UNL     1      28.828  29.724  11.924  1.00  0.00    -0.271 OA
HETATM    7  N1  UNL     1      30.194  31.558  11.754  1.00  0.00    -0.346 N 
ATOM      8  H1  UNL     1      29.679  31.951  12.542  1.00  0.00     0.163 HD
HETATM    9  C13 UNL     1      31.413  32.272  11.432  1.00  0.00     0.176 C 
HETATM   10  C18 UNL     1      32.538  31.977  12.349  1.00  0.00     0.241 C 
HETATM   11  O3  UNL     1      32.150  31.707  13.547  1.00  0.00    -0.271 OA
HETATM   12  N2  UNL     1      33.902  31.948  12.123  1.00  0.00    -0.347 N 
ATOM     13  H2  UNL     1      34.490  32.440  12.796  1.00  0.00     0.163 HD
HETATM   14  C19 UNL     1      34.608  31.261  10.980  1.00  0.00     0.162 C 
HETATM   15  C24 UNL     1      33.688  30.304  10.365  1.00  0.00     0.135 C 
HETATM   16  N3  UNL     1      33.223  29.893   9.158  1.00  0.00    -0.365 N 
ATOM     17  H3  UNL     1      32.576  30.598   8.804  1.00  0.00     0.161 HD
HETATM   18  C25 UNL     1      33.307  28.834   8.201  1.00  0.00     0.115 C 
HETATM   19  C30 UNL     1      31.894  28.292   7.885  1.00  0.00     0.170 C 
ENDROOT
BRANCH   1  20
HETATM   20  C7  UNL     1      30.132  26.805   8.763  1.00  0.00     0.013 C 
HETATM   21  C8  UNL     1      30.843  25.682   8.059  1.00  0.00     0.012 C 
BRANCH  20  22
HETATM   22  C6  UNL     1      29.614  26.254  10.072  1.00  0.00     0.007 C 
BRANCH  22  23
HETATM   23  C5  UNL     1      30.551  25.369  10.811  1.00  0.00     0.000 C 
BRANCH  23  24
HETATM   24  C4  UNL     1      29.856  24.334  11.651  1.00  0.00     0.000 C 
BRANCH  24  25
HETATM   25  C3  UNL     1      29.462  24.814  13.023  1.00  0.00    -0.000 C 
BRANCH  25  26
HETATM   26  C2  UNL     1      28.865  23.699  13.812  1.00  0.00    -0.005 C 
HETATM   27  C1  UNL     1      28.069  24.343  14.944  1.00  0.00     0.005 C 
ENDBRANCH  25  26
ENDBRANCH  24  25
ENDBRANCH  23  24
ENDBRANCH  22  23
ENDBRANCH  20  22
ENDBRANCH   1  20
BRANCH  19  28
HETATM   28  O5  UNL     1      31.296  29.286   7.103  1.00  0.00    -0.391 OA
ATOM     29  H5  UNL     1      31.935  29.692   6.528  1.00  0.00     0.210 HD
ENDBRANCH  19  28
BRANCH  18  30
HETATM   30  C26 UNL     1      33.812  29.350   6.842  1.00  0.00     0.031 C 
BRANCH  30  31
HETATM   31  C27 UNL     1      35.119  28.713   6.436  1.00  0.00    -0.021 C 
HETATM   32  C28 UNL     1      36.069  29.799   5.954  1.00  0.00     0.009 C 
HETATM   33  C29 UNL     1      35.796  27.993   7.578  1.00  0.00     0.009 C 
ENDBRANCH  30  31
ENDBRANCH  18  30
BRANCH  15  34
HETATM   34  O4  UNL     1      33.182  29.673  11.421  1.00  0.00    -0.348 OA
ATOM     35  H4  UNL     1      32.335  30.092  11.523  1.00  0.00     0.219 HD
ENDBRANCH  15  34
BRANCH   9  36
HETATM   36  C14 UNL     1      31.056  33.773  11.507  1.00  0.00     0.035 C 
BRANCH  36  37
HETATM   37  C15 UNL     1      31.232  34.333  12.872  1.00  0.00     0.002 C 
BRANCH  37  38
HETATM   38  C16 UNL     1      32.059  35.593  12.749  1.00  0.00    -0.004 C 
HETATM   39  C17 UNL     1      33.404  35.439  13.450  1.00  0.00     0.005 C 
ENDBRANCH  37  38
ENDBRANCH  36  37
ENDBRANCH   9  36
BRANCH  14  40
HETATM   40  C20 UNL     1      35.349  32.254  10.201  1.00  0.00     0.012 C 
HETATM   41  C21 UNL     1      36.106  33.178  11.166  1.00  0.00     0.012 C 
BRANCH  40  42
HETATM   42  C22 UNL     1      36.234  31.786   9.110  1.00  0.00     0.002 C 
HETATM   43  C23 UNL     1      37.244  30.768   9.532  1.00  0.00     0.005 C 
ENDBRANCH  40  42
ENDBRANCH  14  40
TORSDOF 15
ENDMDL
MODEL 2
REMARK VINA RESULT: -7.306219184      1.626      6.942
REMARK  15 active torsions:
REMARK  status: ('A' for Active; 'I' for Inactive)
REMARK    1  A    between atoms: C2_2  and  C3_3 
REMARK    2  A    between atoms: C3_3  and  C4_4 
REMARK    3  A    between atoms: C4_4  and  C5_5 
REMARK    4  A    between atoms: C5_5  and  C6_6 
REMARK    5  A    between atoms: C6_6  and  C7_7 
REMARK    6  A    between atoms: C7_7  and  C9_9 
REMARK    7  A    between atoms: C13_17  and  C14_18 
REMARK    8  A    between atoms: C14_18  and  C15_19 
REMARK    9  A    between atoms: C15_19  and  C16_20 
REMARK   10  A    between atoms: C19_26  and  C20_27 
REMARK   11  A    between atoms: C20_27  and  C22_29 
REMARK   12  A    between atoms: C24_31  and  O4_32 
REMARK   13  A    between atoms: C25_36  and  C26_37 
REMARK   14  A    between atoms: C26_37  and  C27_38 
REMARK   15  A    between atoms: C30_41  and  O5_42 
ROOT
HETATM    1  C9  UNL     1      30.751  31.694  11.055  1.00  0.00     0.157 C 
HETATM    2  O1  UNL     1      30.022  30.633  11.058  1.00  0.00    -0.369 OA
HETATM    3  C10 UNL     1      29.609  29.689  11.839  1.00  0.00     0.209 C 
HETATM    4  C11 UNL     1      28.825  30.068  13.084  1.00  0.00     0.050 C 
HETATM    5  C12 UNL     1      28.648  28.841  11.025  1.00  0.00     0.247 C 
HETATM    6  O2  UNL     1      27.490  29.390  10.944  1.00  0.00    -0.271 OA
HETATM    7  N1  UNL     1      28.856  27.630  10.402  1.00  0.00    -0.346 N 
ATOM      8  H1  UNL     1      28.008  27.076  10.282  1.00  0.00     0.163 HD
HETATM    9  C13 UNL     1      30.052  26.996   9.886  1.00  0.00     0.176 C 
HETATM   10  C18 UNL     1      30.179  27.072   8.412  1.00  0.00     0.241 C 
HETATM   11  O3  UNL     1      29.040  27.072   7.810  1.00  0.00    -0.271 OA
HETATM   12  N2  UNL     1      31.301  27.139   7.606  1.00  0.00    -0.347 N 
ATOM     13  H2  UNL     1      31.331  26.505   6.807  1.00  0.00     0.163 HD
HETATM   14  C19 UNL     1      32.484  28.058   7.789  1.00  0.00     0.162 C 
HETATM   15  C24 UNL     1      32.107  29.134   8.705  1.00  0.00     0.135 C 
HETATM   16  N3  UNL     1      32.542  29.807   9.801  1.00  0.00    -0.365 N 
ATOM     17  H3  UNL     1      32.431  29.203  10.616  1.00  0.00     0.161 HD
HETATM   18  C25 UNL     1      33.098  31.051  10.232  1.00  0.00     0.115 C 
HETATM   19  C30 UNL     1      32.228  31.661  11.354  1.00  0.00     0.170 C 
ENDROOT
BRANCH   1  20
HETATM   20  C7  UNL     1      30.147  32.929  11.741  1.00  0.00     0.013 C 
HETATM   21  C8  UNL     1      30.019  32.776  13.232  1.00  0.00     0.012 C 
BRANCH  20  22
HETATM   22  C6  UNL     1      31.087  34.086  11.491  1.00  0.00     0.007 C 
BRANCH  22  23
HETATM   23  C5  UNL     1      31.374  34.945  12.667  1.00  0.00     0.000 C 
BRANCH  23  24
HETATM   24  C4  UNL     1      32.842  35.105  12.946  1.00  0.00     0.000 C 
BRANCH  24  25
HETATM   25  C3  UNL     1      33.362  34.222  14.048  1.00  0.00    -0.000 C 
BRANCH  25  26
HETATM   26  C2  UNL     1      34.569  33.475  13.591  1.00  0.00    -0.005 C 
HETATM   27  C1  UNL     1      35.278  34.368  12.577  1.00  0.00     0.005 C 
ENDBRANCH  25  26
ENDBRANCH  24  25
ENDBRANCH  23  24
ENDBRANCH  22  23
ENDBRANCH  20  22
ENDBRANCH   1  20
BRANCH  19  28
HETATM   28  O5  UNL     1      32.489  30.870  12.479  1.00  0.00    -0.391 OA
ATOM     29  H5  UNL     1      32.495  29.948  12.248  1.00  0.00     0.210 HD
ENDBRANCH  19  28
BRANCH  18  30
HETATM   30  C26 UNL     1      34.468  30.846  10.903  1.00  0.00     0.031 C 
BRANCH  30  31
HETATM   31  C27 UNL     1      35.583  31.538  10.154  1.00  0.00    -0.021 C 
HETATM   32  C28 UNL     1      36.892  30.819  10.444  1.00  0.00     0.009 C 
HETATM   33  C29 UNL     1      35.378  31.522   8.659  1.00  0.00     0.009 C 
ENDBRANCH  30  31
ENDBRANCH  18  30
BRANCH  15  34
HETATM   34  O4  UNL     1      30.926  29.519   8.226  1.00  0.00    -0.348 OA
ATOM     35  H4  UNL     1      30.393  29.569   9.012  1.00  0.00     0.219 HD
ENDBRANCH  15  34
BRANCH   9  36
HETATM   36  C14 UNL     1      29.973  25.518  10.330  1.00  0.00     0.035 C 
BRANCH  36  37
HETATM   37  C15 UNL     1      29.781  25.373  11.796  1.00  0.00     0.002 C 
BRANCH  37  38
HETATM   38  C16 UNL     1      29.433  23.928  12.073  1.00  0.00    -0.004 C 
HETATM   39  C17 UNL     1      29.015  23.731  13.525  1.00  0.00     0.005 C 
ENDBRANCH  37  38
ENDBRANCH  36  37
ENDBRANCH   9  36
BRANCH  14  40
HETATM   40  C20 UNL     1      33.695  27.258   7.971  1.00  0.00     0.012 C 
HETATM   41  C21 UNL     1      34.308  26.965   6.593  1.00  0.00     0.012 C 
BRANCH  40  42
HETATM   42  C22 UNL     1      34.727  27.733   8.920  1.00  0.00     0.002 C 
HETATM   43  C23 UNL     1      36.128  27.632   8.406  1.00  0.00     0.005 C 
ENDBRANCH  40  42
ENDBRANCH  14  40
TORSDOF 15
ENDMDL
MODEL 3
REMARK VINA RESULT: -7.132141204      1.498      2.089
REMARK  15 active torsions:
REMARK  status: ('A' for Active; 'I' for Inactive)
REMARK    1  A    between atoms: C2_2  and  C3_3 
REMARK    2  A    between atoms: C3_3  and  C4_4 
REMARK    3  A    between atoms: C4_4  and  C5_5 
REMARK    4  A    between atoms: C5_5  and  C6_6 
REMARK    5  A    between atoms: C6_6  and  C7_7 
REMARK    6  A    between atoms: C7_7  and  C9_9 
REMARK    7  A    between atoms: C13_17  and  C14_18 
REMARK    8  A    between atoms: C14_18  and  C15_19 
REMARK    9  A    between atoms: C15_19  and  C16_20 
REMARK   10  A    between atoms: C19_26  and  C20_27 
REMARK   11  A    between atoms: C20_27  and  C22_29 
REMARK   12  A    between atoms: C24_31  and  O4_32 
REMARK   13  A    between atoms: C25_36  and  C26_37 
REMARK   14  A    between atoms: C26_37  and  C27_38 
REMARK   15  A    between atoms: C30_41  and  O5_42 
ROOT
HETATM    1  C9  UNL     1      32.043  29.080   9.805  1.00  0.00     0.157 C 
HETATM    2  O1  UNL     1      31.223  29.794  10.491  1.00  0.00    -0.369 OA
HETATM    3  C10 UNL     1      30.234  30.617  10.354  1.00  0.00     0.209 C 
HETATM    4  C11 UNL     1      28.993  30.144   9.617  1.00  0.00     0.050 C 
HETATM    5  C12 UNL     1      29.745  30.946  11.754  1.00  0.00     0.247 C 
HETATM    6  O2  UNL     1      29.005  30.008  12.225  1.00  0.00    -0.271 OA
HETATM    7  N1  UNL     1      29.985  32.058  12.530  1.00  0.00    -0.346 N 
ATOM      8  H1  UNL     1      29.258  32.246  13.220  1.00  0.00     0.163 HD
HETATM    9  C13 UNL     1      31.077  33.010  12.551  1.00  0.00     0.176 C 
HETATM   10  C18 UNL     1      32.036  32.796  13.660  1.00  0.00     0.241 C 
HETATM   11  O3  UNL     1      31.481  32.305  14.714  1.00  0.00    -0.271 OA
HETATM   12  N2  UNL     1      33.395  33.037  13.736  1.00  0.00    -0.347 N 
ATOM     13  H2  UNL     1      33.729  33.530  14.565  1.00  0.00     0.163 HD
HETATM   14  C19 UNL     1      34.435  32.642  12.716  1.00  0.00     0.162 C 
HETATM   15  C24 UNL     1      33.863  31.630  11.828  1.00  0.00     0.135 C 
HETATM   16  N3  UNL     1      33.736  31.309  10.515  1.00  0.00    -0.365 N 
ATOM     17  H3  UNL     1      33.045  31.931  10.096  1.00  0.00     0.161 HD
HETATM   18  C25 UNL     1      34.216  30.419   9.505  1.00  0.00     0.115 C 
HETATM   19  C30 UNL     1      33.030  29.685   8.838  1.00  0.00     0.170 C 
ENDROOT
BRANCH   1  20
HETATM   20  C7  UNL     1      31.460  27.810   9.166  1.00  0.00     0.013 C 
HETATM   21  C8  UNL     1      32.286  27.289   8.022  1.00  0.00     0.012 C 
BRANCH  20  22
HETATM   22  C6  UNL     1      31.447  26.737  10.231  1.00  0.00     0.007 C 
BRANCH  22  23
HETATM   23  C5  UNL     1      30.191  25.952  10.335  1.00  0.00     0.000 C 
BRANCH  23  24
HETATM   24  C4  UNL     1      30.272  24.827  11.329  1.00  0.00     0.000 C 
BRANCH  24  25
HETATM   25  C3  UNL     1      29.532  25.083  12.615  1.00  0.00    -0.000 C 
BRANCH  25  26
HETATM   26  C2  UNL     1      29.149  23.795  13.261  1.00  0.00    -0.005 C 
HETATM   27  C1  UNL     1      28.350  24.154  14.511  1.00  0.00     0.005 C 
ENDBRANCH  25  26
ENDBRANCH  24  25
ENDBRANCH  23  24
ENDBRANCH  22  23
ENDBRANCH  20  22
ENDBRANCH   1  20
BRANCH  19  28
HETATM   28  O5  UNL     1      32.412  30.655   8.041  1.00  0.00    -0.391 OA
ATOM     29  H5  UNL     1      33.059  31.155   7.557  1.00  0.00     0.210 HD
ENDBRANCH  19  28
BRANCH  18  30
HETATM   30  C26 UNL     1      34.866  31.191   8.344  1.00  0.00     0.031 C 
BRANCH  30  31
HETATM   31  C27 UNL     1      36.369  31.053   8.333  1.00  0.00    -0.021 C 
HETATM   32  C28 UNL     1      36.989  32.424   8.109  1.00  0.00     0.009 C 
HETATM   33  C29 UNL     1      36.915  30.517   9.635  1.00  0.00     0.009 C 
ENDBRANCH  30  31
ENDBRANCH  18  30
BRANCH  15  34
HETATM   34  O4  UNL     1      33.294  30.785  12.684  1.00  0.00    -0.348 OA
ATOM     35  H4  UNL     1      33.813  30.910  13.470  1.00  0.00     0.219 HD
ENDBRANCH  15  34
BRANCH   9  36
HETATM   36  C14 UNL     1      30.421  34.403  12.686  1.00  0.00     0.035 C 
BRANCH  36  37
HETATM   37  C15 UNL     1      31.413  35.507  12.628  1.00  0.00     0.002 C 
BRANCH  37  38
HETATM   38  C16 UNL     1      30.887  36.643  13.477  1.00  0.00    -0.004 C 
HETATM   39  C17 UNL     1      31.544  37.964  13.097  1.00  0.00     0.005 C 
ENDBRANCH  37  38
ENDBRANCH  36  37
ENDBRANCH   9  36
BRANCH  14  40
HETATM   40  C20 UNL     1      35.102  33.844  12.215  1.00  0.00     0.012 C 
HETATM   41  C21 UNL     1      35.153  34.889  13.339  1.00  0.00     0.012 C 
BRANCH  40  42
HETATM   42  C22 UNL     1      36.423  33.704  11.560  1.00  0.00     0.002 C 
HETATM   43  C23 UNL     1      37.207  34.975  11.482  1.00  0.00     0.005 C 
ENDBRANCH  40  42
ENDBRANCH  14  40
TORSDOF 15
ENDMDL
MODEL 4
REMARK VINA RESULT: -6.899186461      5.974     10.410
REMARK  15 active torsions:
REMARK  status: ('A' for Active; 'I' for Inactive)
REMARK    1  A    between atoms: C2_2  and  C3_3 
REMARK    2  A    between atoms: C3_3  and  C4_4 
REMARK    3  A    between atoms: C4_4  and  C5_5 
REMARK    4  A    between atoms: C5_5  and  C6_6 
REMARK    5  A    between atoms: C6_6  and  C7_7 
REMARK    6  A    between atoms: C7_7  and  C9_9 
REMARK    7  A    between atoms: C13_17  and  C14_18 
REMARK    8  A    between atoms: C14_18  and  C15_19 
REMARK    9  A    between atoms: C15_19  and  C16_20 
REMARK   10  A    between atoms: C19_26  and  C20_27 
REMARK   11  A    between atoms: C20_27  and  C22_29 
REMARK   12  A    between atoms: C24_31  and  O4_32 
REMARK   13  A    between atoms: C25_36  and  C26_37 
REMARK   14  A    between atoms: C26_37  and  C27_38 
REMARK   15  A    between atoms: C30_41  and  O5_42 
ROOT
HETATM    1  C9  UNL     1      33.009  36.115  13.338  1.00  0.00     0.157 C 
HETATM    2  O1  UNL     1      34.243  36.462  13.447  1.00  0.00    -0.369 OA
HETATM    3  C10 UNL     1      35.280  36.297  14.203  1.00  0.00     0.209 C 
HETATM    4  C11 UNL     1      35.797  34.886  14.428  1.00  0.00     0.050 C 
HETATM    5  C12 UNL     1      36.430  37.022  13.527  1.00  0.00     0.247 C 
HETATM    6  O2  UNL     1      36.921  36.329  12.564  1.00  0.00    -0.271 OA
HETATM    7  N1  UNL     1      36.975  38.256  13.804  1.00  0.00    -0.346 N 
ATOM      8  H1  UNL     1      37.950  38.351  13.519  1.00  0.00     0.163 HD
HETATM    9  C13 UNL     1      36.424  39.444  14.424  1.00  0.00     0.176 C 
HETATM   10  C18 UNL     1      36.066  40.510  13.460  1.00  0.00     0.241 C 
HETATM   11  O3  UNL     1      36.826  40.520  12.419  1.00  0.00    -0.271 OA
HETATM   12  N2  UNL     1      35.070  41.469  13.504  1.00  0.00    -0.347 N 
ATOM     13  H2  UNL     1      35.345  42.427  13.285  1.00  0.00     0.163 HD
HETATM   14  C19 UNL     1      33.618  41.240  13.842  1.00  0.00     0.162 C 
HETATM   15  C24 UNL     1      33.329  39.810  13.734  1.00  0.00     0.135 C 
HETATM   16  N3  UNL     1      32.725  38.788  14.393  1.00  0.00    -0.365 N 
ATOM     17  H3  UNL     1      33.320  38.512  15.175  1.00  0.00     0.161 HD
HETATM   18  C25 UNL     1      31.563  37.958  14.394  1.00  0.00     0.115 C 
HETATM   19  C30 UNL     1      31.975  36.468  14.377  1.00  0.00     0.170 C 
ENDROOT
BRANCH   1  20
HETATM   20  C7  UNL     1      32.752  34.674  12.872  1.00  0.00     0.013 C 
HETATM   21  C8  UNL     1      32.770  33.675  13.996  1.00  0.00     0.012 C 
BRANCH  20  22
HETATM   22  C6  UNL     1      31.367  34.638  12.266  1.00  0.00     0.007 C 
BRANCH  22  23
HETATM   23  C5  UNL     1      30.631  33.358  12.424  1.00  0.00     0.000 C 
BRANCH  23  24
HETATM   24  C4  UNL     1      30.235  32.732  11.116  1.00  0.00     0.000 C 
BRANCH  24  25
HETATM   25  C3  UNL     1      28.886  32.064  11.134  1.00  0.00    -0.000 C 
BRANCH  25  26
HETATM   26  C2  UNL     1      28.454  31.800  12.536  1.00  0.00    -0.005 C 
HETATM   27  C1  UNL     1      28.269  30.290  12.660  1.00  0.00     0.005 C 
ENDBRANCH  25  26
ENDBRANCH  24  25
ENDBRANCH  23  24
ENDBRANCH  22  23
ENDBRANCH  20  22
ENDBRANCH   1  20
BRANCH  19  28
HETATM   28  O5  UNL     1      32.460  36.216  15.665  1.00  0.00    -0.391 OA
ATOM     29  H5  UNL     1      32.015  36.761  16.304  1.00  0.00     0.210 HD
ENDBRANCH  19  28
BRANCH  18  30
HETATM   30  C26 UNL     1      30.774  38.103  15.708  1.00  0.00     0.031 C 
BRANCH  30  31
HETATM   31  C27 UNL     1      29.485  38.866  15.522  1.00  0.00    -0.021 C 
HETATM   32  C28 UNL     1      28.811  38.393  14.243  1.00  0.00     0.009 C 
HETATM   33  C29 UNL     1      28.511  38.650  16.655  1.00  0.00     0.009 C 
ENDBRANCH  30  31
ENDBRANCH  18  30
BRANCH  15  34
HETATM   34  O4  UNL     1      33.887  39.491  12.568  1.00  0.00    -0.348 OA
ATOM     35  H4  UNL     1      33.836  38.542  12.570  1.00  0.00     0.219 HD
ENDBRANCH  15  34
BRANCH   9  36
HETATM   36  C14 UNL     1      37.511  39.958  15.394  1.00  0.00     0.035 C 
BRANCH  36  37
HETATM   37  C15 UNL     1      37.913  38.935  16.393  1.00  0.00     0.002 C 
BRANCH  37  38
HETATM   38  C16 UNL     1      39.038  39.518  17.220  1.00  0.00    -0.004 C 
HETATM   39  C17 UNL     1      39.525  38.522  18.265  1.00  0.00     0.005 C 
ENDBRANCH  37  38
ENDBRANCH  36  37
ENDBRANCH   9  36
BRANCH  14  40
HETATM   40  C20 UNL     1      33.266  42.027  15.023  1.00  0.00     0.012 C 
HETATM   41  C21 UNL     1      31.736  42.148  15.101  1.00  0.00     0.012 C 
BRANCH  40  42
HETATM   42  C22 UNL     1      33.835  41.638  16.334  1.00  0.00     0.002 C 
HETATM   43  C23 UNL     1      32.814  41.249  17.355  1.00  0.00     0.005 C 
ENDBRANCH  40  42
ENDBRANCH  14  40
TORSDOF 15
ENDMDL
MODEL 5
REMARK VINA RESULT: -6.874333571      1.819      7.259
REMARK  15 active torsions:
REMARK  status: ('A' for Active; 'I' for Inactive)
REMARK    1  A    between atoms: C2_2  and  C3_3 
REMARK    2  A    between atoms: C3_3  and  C4_4 
REMARK    3  A    between atoms: C4_4  and  C5_5 
REMARK    4  A    between atoms: C5_5  and  C6_6 
REMARK    5  A    between atoms: C6_6  and  C7_7 
REMARK    6  A    between atoms: C7_7  and  C9_9 
REMARK    7  A    between atoms: C13_17  and  C14_18 
REMARK    8  A    between atoms: C14_18  and  C15_19 
REMARK    9  A    between atoms: C15_19  and  C16_20 
REMARK   10  A    between atoms: C19_26  and  C20_27 
REMARK   11  A    between atoms: C20_27  and  C22_29 
REMARK   12  A    between atoms: C24_31  and  O4_32 
REMARK   13  A    between atoms: C25_36  and  C26_37 
REMARK   14  A    between atoms: C26_37  and  C27_38 
REMARK   15  A    between atoms: C30_41  and  O5_42 
ROOT
HETATM    1  C9  UNL     1      30.792  31.742  11.088  1.00  0.00     0.157 C 
HETATM    2  O1  UNL     1      30.051  30.690  11.081  1.00  0.00    -0.369 OA
HETATM    3  C10 UNL     1      29.626  29.744  11.854  1.00  0.00     0.209 C 
HETATM    4  C11 UNL     1      28.844  30.122  13.101  1.00  0.00     0.050 C 
HETATM    5  C12 UNL     1      28.656  28.914  11.032  1.00  0.00     0.247 C 
HETATM    6  O2  UNL     1      27.505  29.478  10.954  1.00  0.00    -0.271 OA
HETATM    7  N1  UNL     1      28.850  27.706  10.400  1.00  0.00    -0.346 N 
ATOM      8  H1  UNL     1      27.996  27.163  10.274  1.00  0.00     0.163 HD
HETATM    9  C13 UNL     1      30.039  27.063   9.880  1.00  0.00     0.176 C 
HETATM   10  C18 UNL     1      30.170  27.148   8.407  1.00  0.00     0.241 C 
HETATM   11  O3  UNL     1      29.032  27.167   7.803  1.00  0.00    -0.271 OA
HETATM   12  N2  UNL     1      31.293  27.209   7.603  1.00  0.00    -0.347 N 
ATOM     13  H2  UNL     1      31.318  26.581   6.799  1.00  0.00     0.163 HD
HETATM   14  C19 UNL     1      32.487  28.112   7.796  1.00  0.00     0.162 C 
HETATM   15  C24 UNL     1      32.122  29.186   8.719  1.00  0.00     0.135 C 
HETATM   16  N3  UNL     1      32.562  29.844   9.821  1.00  0.00    -0.365 N 
ATOM     17  H3  UNL     1      32.443  29.235  10.631  1.00  0.00     0.161 HD
HETATM   18  C25 UNL     1      33.133  31.078  10.263  1.00  0.00     0.115 C 
HETATM   19  C30 UNL     1      32.268  31.689  11.389  1.00  0.00     0.170 C 
ENDROOT
BRANCH   1  20
HETATM   20  C7  UNL     1      30.202  32.978  11.783  1.00  0.00     0.013 C 
HETATM   21  C8  UNL     1      29.989  32.783  13.259  1.00  0.00     0.012 C 
BRANCH  20  22
HETATM   22  C6  UNL     1      31.199  34.103  11.621  1.00  0.00     0.007 C 
BRANCH  22  23
HETATM   23  C5  UNL     1      31.637  34.758  12.880  1.00  0.00     0.000 C 
BRANCH  23  24
HETATM   24  C4  UNL     1      31.311  36.224  12.933  1.00  0.00     0.000 C 
BRANCH  24  25
HETATM   25  C3  UNL     1      30.584  36.651  14.181  1.00  0.00    -0.000 C 
BRANCH  25  26
HETATM   26  C2  UNL     1      29.911  37.964  13.968  1.00  0.00    -0.005 C 
HETATM   27  C1  UNL     1      28.655  37.957  14.835  1.00  0.00     0.005 C 
ENDBRANCH  25  26
ENDBRANCH  24  25
ENDBRANCH  23  24
ENDBRANCH  22  23
ENDBRANCH  20  22
ENDBRANCH   1  20
BRANCH  19  28
HETATM   28  O5  UNL     1      32.518  30.886  12.507  1.00  0.00    -0.391 OA
ATOM     29  H5  UNL     1      33.072  30.150  12.276  1.00  0.00     0.210 HD
ENDBRANCH  19  28
BRANCH  18  30
HETATM   30  C26 UNL     1      34.499  30.852  10.934  1.00  0.00     0.031 C 
BRANCH  30  31
HETATM   31  C27 UNL     1      35.616  31.575  10.220  1.00  0.00    -0.021 C 
HETATM   32  C28 UNL     1      36.025  32.787  11.044  1.00  0.00     0.009 C 
HETATM   33  C29 UNL     1      36.844  30.715  10.037  1.00  0.00     0.009 C 
ENDBRANCH  30  31
ENDBRANCH  18  30
BRANCH  15  34
HETATM   34  O4  UNL     1      30.946  29.588   8.242  1.00  0.00    -0.348 OA
ATOM     35  H4  UNL     1      31.078  30.523   8.135  1.00  0.00     0.219 HD
ENDBRANCH  15  34
BRANCH   9  36
HETATM   36  C14 UNL     1      29.942  25.582  10.311  1.00  0.00     0.035 C 
BRANCH  36  37
HETATM   37  C15 UNL     1      29.697  25.428  11.769  1.00  0.00     0.002 C 
BRANCH  37  38
HETATM   38  C16 UNL     1      29.353  23.979  12.027  1.00  0.00    -0.004 C 
HETATM   39  C17 UNL     1      29.051  23.738  13.501  1.00  0.00     0.005 C 
ENDBRANCH  37  38
ENDBRANCH  36  37
ENDBRANCH   9  36
BRANCH  14  40
HETATM   40  C20 UNL     1      33.688  27.296   7.972  1.00  0.00     0.012 C 
HETATM   41  C21 UNL     1      34.278  26.974   6.590  1.00  0.00     0.012 C 
BRANCH  40  42
HETATM   42  C22 UNL     1      34.740  27.770   8.900  1.00  0.00     0.002 C 
HETATM   43  C23 UNL     1      36.132  27.415   8.484  1.00  0.00     0.005 C 
ENDBRANCH  40  42
ENDBRANCH  14  40
TORSDOF 15
ENDMDL
