MODEL 1
REMARK VINA RESULT: -7.415152259      0.000      0.000
REMARK  16 active torsions:
REMARK  status: ('A' for Active; 'I' for Inactive)
REMARK    1  A    between atoms: C2_2  and  C3_3 
REMARK    2  A    between atoms: C3_3  and  C4_4 
REMARK    3  A    between atoms: C4_4  and  C5_5 
REMARK    4  A    between atoms: C5_5  and  C6_6 
REMARK    5  A    between atoms: C6_6  and  N1_7 
REMARK    6  A    between atoms: N1_7  and  C7_8 
REMARK       I    between atoms: N1_7  and  C12_13 
REMARK    7  A    between atoms: C7_8  and  C8_9 
REMARK    8  A    between atoms: C8_9  and  C9_10 
REMARK    9  A    between atoms: C9_10  and  C10_11 
REMARK   10  A    between atoms: C12_13  and  C13_15 
REMARK   11  A    between atoms: C13_15  and  C14_16 
REMARK   12  A    between atoms: C14_16  and  N2_17 
REMARK   13  A    between atoms: N2_17  and  C15_20 
REMARK   14  A    between atoms: C23_28  and  O2_29 
REMARK   15  A    between atoms: C25_32  and  O3_33 
REMARK   16  A    between atoms: C27_36  and  O4_37 
ROOT
HETATM    1  C15 UNL     1      33.021  34.878  12.810  1.00  0.00     0.190 C 
HETATM    2  C16 UNL     1      34.067  35.614  13.592  1.00  0.00     0.034 C 
HETATM    3  C17 UNL     1      33.492  36.981  13.951  1.00  0.00     0.007 C 
HETATM    4  C18 UNL     1      32.340  37.122  13.002  1.00  0.00    -0.004 C 
HETATM    5  C19 UNL     1      31.786  35.742  12.939  1.00  0.00     0.020 C 
HETATM    6  C20 UNL     1      31.095  35.404  14.220  1.00  0.00     0.007 C 
HETATM    7  C21 UNL     1      30.012  36.392  14.543  1.00  0.00     0.008 C 
HETATM    8  C22 UNL     1      30.021  37.606  13.620  1.00  0.00     0.019 C 
HETATM    9  C23 UNL     1      28.933  38.519  13.995  1.00  0.00     0.130 C 
HETATM   10  C24 UNL     1      29.257  39.891  14.405  1.00  0.00     0.054 C 
HETATM   11  C25 UNL     1      27.938  40.543  14.860  1.00  0.00     0.128 C 
HETATM   12  C26 UNL     1      27.881  40.317  16.358  1.00  0.00     0.064 C 
HETATM   13  C27 UNL     1      29.257  40.004  16.827  1.00  0.00     0.129 C 
HETATM   14  C28 UNL     1      30.104  40.116  15.591  1.00  0.00    -0.010 C 
HETATM   15  C29 UNL     1      30.522  41.600  15.515  1.00  0.00     0.018 C 
HETATM   16  C30 UNL     1      31.368  39.316  15.651  1.00  0.00     0.012 C 
HETATM   17  C31 UNL     1      31.894  39.215  14.255  1.00  0.00     0.006 C 
HETATM   18  C32 UNL     1      31.354  38.202  13.349  1.00  0.00    -0.004 C 
ENDROOT
BRANCH   1  19
HETATM   19  N2  UNL     1      32.845  33.556  13.347  1.00  0.00    -0.070 N 
ATOM     20  H22 UNL     1      31.903  33.406  13.708  1.00  0.00     0.277 HD
ATOM     21  H21 UNL     1      33.357  33.420  14.219  1.00  0.00     0.277 HD
BRANCH  19  22
HETATM   22  C14 UNL     1      33.207  32.588  12.342  1.00  0.00     0.242 C 
BRANCH  22  23
HETATM   23  C13 UNL     1      32.529  31.237  12.539  1.00  0.00     0.130 C 
BRANCH  23  24
HETATM   24  C12 UNL     1      31.106  31.293  12.196  1.00  0.00     0.225 C 
HETATM   25  N1  UNL     1      30.519  30.695  11.017  1.00  0.00    -0.328 N 
HETATM   26  O1  UNL     1      30.324  31.897  12.974  1.00  0.00    -0.273 OA
BRANCH  25  27
HETATM   27  C6  UNL     1      29.113  30.784  10.872  1.00  0.00     0.131 C 
BRANCH  27  28
HETATM   28  C5  UNL     1      28.244  29.830  11.596  1.00  0.00     0.020 C 
BRANCH  28  29
HETATM   29  C4  UNL     1      27.240  29.281  10.578  1.00  0.00     0.002 C 
BRANCH  29  30
HETATM   30  C3  UNL     1      27.267  29.969   9.265  1.00  0.00    -0.000 C 
BRANCH  30  31
HETATM   31  C2  UNL     1      27.308  29.064   8.068  1.00  0.00    -0.005 C 
HETATM   32  C1  UNL     1      28.220  29.609   6.990  1.00  0.00     0.005 C 
ENDBRANCH  30  31
ENDBRANCH  29  30
ENDBRANCH  28  29
ENDBRANCH  27  28
ENDBRANCH  25  27
BRANCH  25  33
HETATM   33  C7  UNL     1      31.363  29.980  10.114  1.00  0.00     0.090 C 
BRANCH  33  34
HETATM   34  C8  UNL     1      30.857  28.914   9.270  1.00  0.00    -0.009 C 
BRANCH  34  35
HETATM   35  C9  UNL     1      30.934  27.483   9.567  1.00  0.00     0.028 C 
BRANCH  35  36
HETATM   36  C10 UNL     1      29.674  26.761   9.862  1.00  0.00    -0.001 C 
HETATM   37  C11 UNL     1      29.587  25.792  10.964  1.00  0.00     0.005 C 
ENDBRANCH  35  36
ENDBRANCH  34  35
ENDBRANCH  33  34
ENDBRANCH  25  33
ENDBRANCH  23  24
ENDBRANCH  22  23
ENDBRANCH  19  22
ENDBRANCH   1  19
BRANCH   9  38
HETATM   38  O2  UNL     1      28.145  37.943  15.025  1.00  0.00    -0.395 OA
ATOM     39  H2  UNL     1      28.651  37.884  15.827  1.00  0.00     0.210 HD
ENDBRANCH   9  38
BRANCH  11  40
HETATM   40  O3  UNL     1      27.868  41.868  14.505  1.00  0.00    -0.395 OA
ATOM     41  H3  UNL     1      27.947  41.989  13.566  1.00  0.00     0.210 HD
ENDBRANCH  11  40
BRANCH  13  42
HETATM   42  O4  UNL     1      29.395  38.797  17.482  1.00  0.00    -0.395 OA
ATOM     43  H4  UNL     1      29.291  38.026  16.938  1.00  0.00     0.210 HD
ENDBRANCH  13  42
TORSDOF 16
ENDMDL
MODEL 2
REMARK VINA RESULT: -7.304626433      1.204      2.245
REMARK  16 active torsions:
REMARK  status: ('A' for Active; 'I' for Inactive)
REMARK    1  A    between atoms: C2_2  and  C3_3 
REMARK    2  A    between atoms: C3_3  and  C4_4 
REMARK    3  A    between atoms: C4_4  and  C5_5 
REMARK    4  A    between atoms: C5_5  and  C6_6 
REMARK    5  A    between atoms: C6_6  and  N1_7 
REMARK    6  A    between atoms: N1_7  and  C7_8 
REMARK       I    between atoms: N1_7  and  C12_13 
REMARK    7  A    between atoms: C7_8  and  C8_9 
REMARK    8  A    between atoms: C8_9  and  C9_10 
REMARK    9  A    between atoms: C9_10  and  C10_11 
REMARK   10  A    between atoms: C12_13  and  C13_15 
REMARK   11  A    between atoms: C13_15  and  C14_16 
REMARK   12  A    between atoms: C14_16  and  N2_17 
REMARK   13  A    between atoms: N2_17  and  C15_20 
REMARK   14  A    between atoms: C23_28  and  O2_29 
REMARK   15  A    between atoms: C25_32  and  O3_33 
REMARK   16  A    between atoms: C27_36  and  O4_37 
ROOT
HETATM    1  C15 UNL     1      33.169  34.778  12.888  1.00  0.00     0.190 C 
HETATM    2  C16 UNL     1      34.191  35.535  13.681  1.00  0.00     0.034 C 
HETATM    3  C17 UNL     1      33.593  36.899  14.013  1.00  0.00     0.007 C 
HETATM    4  C18 UNL     1      32.456  37.014  13.042  1.00  0.00    -0.004 C 
HETATM    5  C19 UNL     1      31.920  35.626  12.986  1.00  0.00     0.020 C 
HETATM    6  C20 UNL     1      31.211  35.294  14.257  1.00  0.00     0.007 C 
HETATM    7  C21 UNL     1      30.110  36.272  14.549  1.00  0.00     0.008 C 
HETATM    8  C22 UNL     1      30.120  37.475  13.613  1.00  0.00     0.019 C 
HETATM    9  C23 UNL     1      29.014  38.379  13.958  1.00  0.00     0.130 C 
HETATM   10  C24 UNL     1      29.313  39.759  14.359  1.00  0.00     0.054 C 
HETATM   11  C25 UNL     1      27.978  40.399  14.783  1.00  0.00     0.128 C 
HETATM   12  C26 UNL     1      27.897  40.189  16.282  1.00  0.00     0.064 C 
HETATM   13  C27 UNL     1      29.268  39.898  16.779  1.00  0.00     0.129 C 
HETATM   14  C28 UNL     1      30.136  40.008  15.557  1.00  0.00    -0.010 C 
HETATM   15  C29 UNL     1      30.537  41.496  15.472  1.00  0.00     0.018 C 
HETATM   16  C30 UNL     1      31.409  39.224  15.649  1.00  0.00     0.012 C 
HETATM   17  C31 UNL     1      31.961  39.115  14.264  1.00  0.00     0.006 C 
HETATM   18  C32 UNL     1      31.450  38.085  13.360  1.00  0.00    -0.004 C 
ENDROOT
BRANCH   1  19
HETATM   19  N2  UNL     1      33.000  33.459  13.436  1.00  0.00    -0.070 N 
ATOM     20  H22 UNL     1      32.082  33.065  13.225  1.00  0.00     0.277 HD
ATOM     21  H21 UNL     1      32.921  33.468  14.454  1.00  0.00     0.277 HD
BRANCH  19  22
HETATM   22  C14 UNL     1      34.076  32.616  12.978  1.00  0.00     0.242 C 
BRANCH  22  23
HETATM   23  C13 UNL     1      34.026  32.343  11.479  1.00  0.00     0.130 C 
BRANCH  23  24
HETATM   24  C12 UNL     1      33.263  31.129  11.177  1.00  0.00     0.225 C 
HETATM   25  N1  UNL     1      31.862  31.105  10.820  1.00  0.00    -0.328 N 
HETATM   26  O1  UNL     1      33.854  30.020  11.225  1.00  0.00    -0.273 OA
BRANCH  25  27
HETATM   27  C6  UNL     1      31.294  29.850  10.491  1.00  0.00     0.131 C 
BRANCH  27  28
HETATM   28  C5  UNL     1      31.339  29.373   9.092  1.00  0.00     0.020 C 
BRANCH  28  29
HETATM   29  C4  UNL     1      29.942  28.843   8.755  1.00  0.00     0.002 C 
BRANCH  29  30
HETATM   30  C3  UNL     1      29.184  28.341   9.927  1.00  0.00    -0.000 C 
BRANCH  30  31
HETATM   31  C2  UNL     1      27.691  28.465   9.825  1.00  0.00    -0.005 C 
HETATM   32  C1  UNL     1      27.289  29.618   8.930  1.00  0.00     0.005 C 
ENDBRANCH  30  31
ENDBRANCH  29  30
ENDBRANCH  28  29
ENDBRANCH  27  28
ENDBRANCH  25  27
BRANCH  25  33
HETATM   33  C7  UNL     1      31.152  32.341  10.731  1.00  0.00     0.090 C 
BRANCH  33  34
HETATM   34  C8  UNL     1      29.995  32.625  11.559  1.00  0.00    -0.009 C 
BRANCH  34  35
HETATM   35  C9  UNL     1      28.630  32.161  11.302  1.00  0.00     0.028 C 
BRANCH  35  36
HETATM   36  C10 UNL     1      27.965  31.334  12.336  1.00  0.00    -0.001 C 
HETATM   37  C11 UNL     1      28.680  30.250  13.025  1.00  0.00     0.005 C 
ENDBRANCH  35  36
ENDBRANCH  34  35
ENDBRANCH  33  34
ENDBRANCH  25  33
ENDBRANCH  23  24
ENDBRANCH  22  23
ENDBRANCH  19  22
ENDBRANCH   1  19
BRANCH   9  38
HETATM   38  O2  UNL     1      28.215  37.804  14.980  1.00  0.00    -0.395 OA
ATOM     39  H2  UNL     1      27.507  38.393  15.211  1.00  0.00     0.210 HD
ENDBRANCH   9  38
BRANCH  11  40
HETATM   40  O3  UNL     1      27.898  41.719  14.411  1.00  0.00    -0.395 OA
ATOM     41  H3  UNL     1      27.291  42.206  14.955  1.00  0.00     0.210 HD
ENDBRANCH  11  40
BRANCH  13  42
HETATM   42  O4  UNL     1      29.410  38.701  17.450  1.00  0.00    -0.395 OA
ATOM     43  H4  UNL     1      30.241  38.581  17.894  1.00  0.00     0.210 HD
ENDBRANCH  13  42
TORSDOF 16
ENDMDL
MODEL 3
REMARK VINA RESULT: -7.261250321      1.545      2.328
REMARK  16 active torsions:
REMARK  status: ('A' for Active; 'I' for Inactive)
REMARK    1  A    between atoms: C2_2  and  C3_3 
REMARK    2  A    between atoms: C3_3  and  C4_4 
REMARK    3  A    between atoms: C4_4  and  C5_5 
REMARK    4  A    between atoms: C5_5  and  C6_6 
REMARK    5  A    between atoms: C6_6  and  N1_7 
REMARK    6  A    between atoms: N1_7  and  C7_8 
REMARK       I    between atoms: N1_7  and  C12_13 
REMARK    7  A    between atoms: C7_8  and  C8_9 
REMARK    8  A    between atoms: C8_9  and  C9_10 
REMARK    9  A    between atoms: C9_10  and  C10_11 
REMARK   10  A    between atoms: C12_13  and  C13_15 
REMARK   11  A    between atoms: C13_15  and  C14_16 
REMARK   12  A    between atoms: C14_16  and  N2_17 
REMARK   13  A    between atoms: N2_17  and  C15_20 
REMARK   14  A    between atoms: C23_28  and  O2_29 
REMARK   15  A    between atoms: C25_32  and  O3_33 
REMARK   16  A    between atoms: C27_36  and  O4_37 
ROOT
HETATM    1  C15 UNL     1      33.934  35.656  13.487  1.00  0.00     0.190 C 
HETATM    2  C16 UNL     1      34.750  36.867  13.824  1.00  0.00     0.034 C 
HETATM    3  C17 UNL     1      33.809  38.069  13.816  1.00  0.00     0.007 C 
HETATM    4  C18 UNL     1      32.617  37.559  13.063  1.00  0.00    -0.004 C 
HETATM    5  C19 UNL     1      32.504  36.149  13.527  1.00  0.00     0.020 C 
HETATM    6  C20 UNL     1      32.021  36.107  14.939  1.00  0.00     0.007 C 
HETATM    7  C21 UNL     1      30.709  36.820  15.098  1.00  0.00     0.008 C 
HETATM    8  C22 UNL     1      30.299  37.593  13.850  1.00  0.00     0.019 C 
HETATM    9  C23 UNL     1      29.008  38.256  14.081  1.00  0.00     0.130 C 
HETATM   10  C24 UNL     1      28.924  39.718  13.981  1.00  0.00     0.054 C 
HETATM   11  C25 UNL     1      27.497  40.112  14.406  1.00  0.00     0.128 C 
HETATM   12  C26 UNL     1      27.595  40.415  15.888  1.00  0.00     0.064 C 
HETATM   13  C27 UNL     1      29.025  40.661  16.212  1.00  0.00     0.129 C 
HETATM   14  C28 UNL     1      29.728  40.558  14.888  1.00  0.00    -0.010 C 
HETATM   15  C29 UNL     1      29.673  41.977  14.283  1.00  0.00     0.018 C 
HETATM   16  C30 UNL     1      31.176  40.195  15.001  1.00  0.00     0.012 C 
HETATM   17  C31 UNL     1      31.629  39.759  13.644  1.00  0.00     0.006 C 
HETATM   18  C32 UNL     1      31.371  38.389  13.200  1.00  0.00    -0.004 C 
ENDROOT
BRANCH   1  19
HETATM   19  N2  UNL     1      34.197  34.607  14.434  1.00  0.00    -0.070 N 
ATOM     20  H22 UNL     1      33.450  34.510  15.123  1.00  0.00     0.277 HD
ATOM     21  H21 UNL     1      34.954  34.844  15.075  1.00  0.00     0.277 HD
BRANCH  19  22
HETATM   22  C14 UNL     1      34.447  33.379  13.721  1.00  0.00     0.242 C 
BRANCH  22  23
HETATM   23  C13 UNL     1      33.433  33.112  12.614  1.00  0.00     0.130 C 
BRANCH  23  24
HETATM   24  C12 UNL     1      32.200  32.523  13.142  1.00  0.00     0.225 C 
HETATM   25  N1  UNL     1      31.235  31.789  12.353  1.00  0.00    -0.328 N 
HETATM   26  O1  UNL     1      31.950  32.651  14.367  1.00  0.00    -0.273 OA
BRANCH  25  27
HETATM   27  C6  UNL     1      30.130  31.225  13.035  1.00  0.00     0.131 C 
BRANCH  27  28
HETATM   28  C5  UNL     1      28.760  31.670  12.697  1.00  0.00     0.020 C 
BRANCH  28  29
HETATM   29  C4  UNL     1      27.885  30.414  12.634  1.00  0.00     0.002 C 
BRANCH  29  30
HETATM   30  C3  UNL     1      28.266  29.460  11.564  1.00  0.00    -0.000 C 
BRANCH  30  31
HETATM   31  C2  UNL     1      27.268  29.314  10.452  1.00  0.00    -0.005 C 
HETATM   32  C1  UNL     1      27.563  30.264   9.311  1.00  0.00     0.005 C 
ENDBRANCH  30  31
ENDBRANCH  29  30
ENDBRANCH  28  29
ENDBRANCH  27  28
ENDBRANCH  25  27
BRANCH  25  33
HETATM   33  C7  UNL     1      31.486  31.598  10.960  1.00  0.00     0.090 C 
BRANCH  33  34
HETATM   34  C8  UNL     1      31.999  30.347  10.436  1.00  0.00    -0.009 C 
BRANCH  34  35
HETATM   35  C9  UNL     1      33.404  29.934  10.440  1.00  0.00     0.028 C 
BRANCH  35  36
HETATM   36  C10 UNL     1      34.396  30.819   9.786  1.00  0.00    -0.001 C 
HETATM   37  C11 UNL     1      35.681  31.133  10.428  1.00  0.00     0.005 C 
ENDBRANCH  35  36
ENDBRANCH  34  35
ENDBRANCH  33  34
ENDBRANCH  25  33
ENDBRANCH  23  24
ENDBRANCH  22  23
ENDBRANCH  19  22
ENDBRANCH   1  19
BRANCH   9  38
HETATM   38  O2  UNL     1      28.491  37.887  15.350  1.00  0.00    -0.395 OA
ATOM     39  H2  UNL     1      29.103  38.128  16.034  1.00  0.00     0.210 HD
ENDBRANCH   9  38
BRANCH  11  40
HETATM   40  O3  UNL     1      27.010  41.161  13.666  1.00  0.00    -0.395 OA
ATOM     41  H3  UNL     1      27.136  41.028  12.733  1.00  0.00     0.210 HD
ENDBRANCH  11  40
BRANCH  13  42
HETATM   42  O4  UNL     1      29.559  39.841  17.185  1.00  0.00    -0.395 OA
ATOM     43  H4  UNL     1      30.384  40.133  17.553  1.00  0.00     0.210 HD
ENDBRANCH  13  42
TORSDOF 16
ENDMDL
MODEL 4
REMARK VINA RESULT: -7.247542959      4.141      7.191
REMARK  16 active torsions:
REMARK  status: ('A' for Active; 'I' for Inactive)
REMARK    1  A    between atoms: C2_2  and  C3_3 
REMARK    2  A    between atoms: C3_3  and  C4_4 
REMARK    3  A    between atoms: C4_4  and  C5_5 
REMARK    4  A    between atoms: C5_5  and  C6_6 
REMARK    5  A    between atoms: C6_6  and  N1_7 
REMARK    6  A    between atoms: N1_7  and  C7_8 
REMARK       I    between atoms: N1_7  and  C12_13 
REMARK    7  A    between atoms: C7_8  and  C8_9 
REMARK    8  A    between atoms: C8_9  and  C9_10 
REMARK    9  A    between atoms: C9_10  and  C10_11 
REMARK   10  A    between atoms: C12_13  and  C13_15 
REMARK   11  A    between atoms: C13_15  and  C14_16 
REMARK   12  A    between atoms: C14_16  and  N2_17 
REMARK   13  A    between atoms: N2_17  and  C15_20 
REMARK   14  A    between atoms: C23_28  and  O2_29 
REMARK   15  A    between atoms: C25_32  and  O3_33 
REMARK   16  A    between atoms: C27_36  and  O4_37 
ROOT
HETATM    1  C15 UNL     1      27.256  29.739  10.594  1.00  0.00     0.190 C 
HETATM    2  C16 UNL     1      27.301  30.874   9.618  1.00  0.00     0.034 C 
HETATM    3  C17 UNL     1      28.186  31.962  10.221  1.00  0.00     0.007 C 
HETATM    4  C18 UNL     1      28.245  31.582  11.670  1.00  0.00    -0.004 C 
HETATM    5  C19 UNL     1      28.303  30.095  11.626  1.00  0.00     0.020 C 
HETATM    6  C20 UNL     1      29.639  29.645  11.132  1.00  0.00     0.007 C 
HETATM    7  C21 UNL     1      30.755  30.191  11.974  1.00  0.00     0.008 C 
HETATM    8  C22 UNL     1      30.283  31.234  12.981  1.00  0.00     0.019 C 
HETATM    9  C23 UNL     1      31.428  31.713  13.768  1.00  0.00     0.130 C 
HETATM   10  C24 UNL     1      31.775  33.139  13.734  1.00  0.00     0.054 C 
HETATM   11  C25 UNL     1      33.080  33.299  14.536  1.00  0.00     0.128 C 
HETATM   12  C26 UNL     1      34.190  33.205  13.508  1.00  0.00     0.064 C 
HETATM   13  C27 UNL     1      33.598  33.463  12.169  1.00  0.00     0.129 C 
HETATM   14  C28 UNL     1      32.155  33.767  12.454  1.00  0.00    -0.010 C 
HETATM   15  C29 UNL     1      32.100  35.287  12.715  1.00  0.00     0.018 C 
HETATM   16  C30 UNL     1      31.242  33.495  11.299  1.00  0.00     0.012 C 
HETATM   17  C31 UNL     1      29.846  33.470  11.835  1.00  0.00     0.006 C 
HETATM   18  C32 UNL     1      29.334  32.251  12.462  1.00  0.00    -0.004 C 
ENDROOT
BRANCH   1  19
HETATM   19  N2  UNL     1      27.528  28.498   9.919  1.00  0.00    -0.070 N 
ATOM     20  H22 UNL     1      26.886  27.756  10.198  1.00  0.00     0.277 HD
ATOM     21  H21 UNL     1      28.395  28.065  10.236  1.00  0.00     0.277 HD
BRANCH  19  22
HETATM   22  C14 UNL     1      27.518  28.725   8.495  1.00  0.00     0.242 C 
BRANCH  22  23
HETATM   23  C13 UNL     1      28.423  27.767   7.729  1.00  0.00     0.130 C 
BRANCH  23  24
HETATM   24  C12 UNL     1      29.832  28.152   7.841  1.00  0.00     0.225 C 
HETATM   25  N1  UNL     1      30.849  27.368   8.507  1.00  0.00    -0.328 N 
HETATM   26  O1  UNL     1      30.202  29.236   7.323  1.00  0.00    -0.273 OA
BRANCH  25  27
HETATM   27  C6  UNL     1      32.179  27.853   8.464  1.00  0.00     0.131 C 
BRANCH  27  28
HETATM   28  C5  UNL     1      32.913  28.082   9.727  1.00  0.00     0.020 C 
BRANCH  28  29
HETATM   29  C4  UNL     1      34.385  28.290   9.358  1.00  0.00     0.002 C 
BRANCH  29  30
HETATM   30  C3  UNL     1      34.927  29.615   9.744  1.00  0.00    -0.000 C 
BRANCH  30  31
HETATM   31  C2  UNL     1      36.376  29.834   9.419  1.00  0.00    -0.005 C 
HETATM   32  C1  UNL     1      36.945  31.013  10.178  1.00  0.00     0.005 C 
ENDBRANCH  30  31
ENDBRANCH  29  30
ENDBRANCH  28  29
ENDBRANCH  27  28
ENDBRANCH  25  27
BRANCH  25  33
HETATM   33  C7  UNL     1      30.482  26.117   9.092  1.00  0.00     0.090 C 
BRANCH  33  34
HETATM   34  C8  UNL     1      30.097  26.004  10.486  1.00  0.00    -0.009 C 
BRANCH  34  35
HETATM   35  C9  UNL     1      30.117  24.774  11.278  1.00  0.00     0.028 C 
BRANCH  35  36
HETATM   36  C10 UNL     1      29.752  24.857  12.712  1.00  0.00    -0.001 C 
HETATM   37  C11 UNL     1      28.991  23.785  13.371  1.00  0.00     0.005 C 
ENDBRANCH  35  36
ENDBRANCH  34  35
ENDBRANCH  33  34
ENDBRANCH  25  33
ENDBRANCH  23  24
ENDBRANCH  22  23
ENDBRANCH  19  22
ENDBRANCH   1  19
BRANCH   9  38
HETATM   38  O2  UNL     1      32.596  30.984  13.425  1.00  0.00    -0.395 OA
ATOM     39  H2  UNL     1      32.714  30.983  12.483  1.00  0.00     0.210 HD
ENDBRANCH   9  38
BRANCH  11  40
HETATM   40  O3  UNL     1      33.101  34.468  15.258  1.00  0.00    -0.395 OA
ATOM     41  H3  UNL     1      33.732  34.437  15.968  1.00  0.00     0.210 HD
ENDBRANCH  11  40
BRANCH  13  42
HETATM   42  O4  UNL     1      33.777  32.457  11.242  1.00  0.00    -0.395 OA
ATOM     43  H4  UNL     1      33.024  31.895  11.104  1.00  0.00     0.210 HD
ENDBRANCH  13  42
TORSDOF 16
ENDMDL
MODEL 5
REMARK VINA RESULT: -7.207265563      1.762      3.574
REMARK  16 active torsions:
REMARK  status: ('A' for Active; 'I' for Inactive)
REMARK    1  A    between atoms: C2_2  and  C3_3 
REMARK    2  A    between atoms: C3_3  and  C4_4 
REMARK    3  A    between atoms: C4_4  and  C5_5 
REMARK    4  A    between atoms: C5_5  and  C6_6 
REMARK    5  A    between atoms: C6_6  and  N1_7 
REMARK    6  A    between atoms: N1_7  and  C7_8 
REMARK       I    between atoms: N1_7  and  C12_13 
REMARK    7  A    between atoms: C7_8  and  C8_9 
REMARK    8  A    between atoms: C8_9  and  C9_10 
REMARK    9  A    between atoms: C9_10  and  C10_11 
REMARK   10  A    between atoms: C12_13  and  C13_15 
REMARK   11  A    between atoms: C13_15  and  C14_16 
REMARK   12  A    between atoms: C14_16  and  N2_17 
REMARK   13  A    between atoms: N2_17  and  C15_20 
REMARK   14  A    between atoms: C23_28  and  O2_29 
REMARK   15  A    between atoms: C25_32  and  O3_33 
REMARK   16  A    between atoms: C27_36  and  O4_37 
ROOT
HETATM    1  C15 UNL     1      32.066  35.208  13.407  1.00  0.00     0.190 C 
HETATM    2  C16 UNL     1      33.353  35.940  13.636  1.00  0.00     0.034 C 
HETATM    3  C17 UNL     1      33.023  37.427  13.737  1.00  0.00     0.007 C 
HETATM    4  C18 UNL     1      31.651  37.508  13.138  1.00  0.00    -0.004 C 
HETATM    5  C19 UNL     1      30.999  36.260  13.619  1.00  0.00     0.020 C 
HETATM    6  C20 UNL     1      30.706  36.360  15.080  1.00  0.00     0.007 C 
HETATM    7  C21 UNL     1      29.852  37.554  15.393  1.00  0.00     0.008 C 
HETATM    8  C22 UNL     1      29.674  38.487  14.200  1.00  0.00     0.019 C 
HETATM    9  C23 UNL     1      28.825  39.623  14.584  1.00  0.00     0.130 C 
HETATM   10  C24 UNL     1      29.364  40.985  14.488  1.00  0.00     0.054 C 
HETATM   11  C25 UNL     1      28.300  41.928  15.081  1.00  0.00     0.128 C 
HETATM   12  C26 UNL     1      28.685  42.090  16.539  1.00  0.00     0.064 C 
HETATM   13  C27 UNL     1      30.109  41.690  16.685  1.00  0.00     0.129 C 
HETATM   14  C28 UNL     1      30.546  41.360  15.286  1.00  0.00    -0.010 C 
HETATM   15  C29 UNL     1      31.036  42.695  14.685  1.00  0.00     0.018 C 
HETATM   16  C30 UNL     1      31.703  40.411  15.223  1.00  0.00     0.012 C 
HETATM   17  C31 UNL     1      31.770  39.889  13.823  1.00  0.00     0.006 C 
HETATM   18  C32 UNL     1      30.904  38.781  13.421  1.00  0.00    -0.004 C 
ENDROOT
BRANCH   1  19
HETATM   19  N2  UNL     1      31.959  34.103  14.321  1.00  0.00    -0.070 N 
ATOM     20  H22 UNL     1      31.865  34.408  15.290  1.00  0.00     0.277 HD
ATOM     21  H21 UNL     1      32.838  33.593  14.416  1.00  0.00     0.277 HD
BRANCH  19  22
HETATM   22  C14 UNL     1      30.873  33.251  13.906  1.00  0.00     0.242 C 
BRANCH  22  23
HETATM   23  C13 UNL     1      31.271  31.784  13.792  1.00  0.00     0.130 C 
BRANCH  23  24
HETATM   24  C12 UNL     1      32.107  31.542  12.614  1.00  0.00     0.225 C 
HETATM   25  N1  UNL     1      31.610  31.114  11.325  1.00  0.00    -0.328 N 
HETATM   26  O1  UNL     1      33.349  31.717  12.712  1.00  0.00    -0.273 OA
BRANCH  25  27
HETATM   27  C6  UNL     1      32.548  30.993  10.271  1.00  0.00     0.131 C 
BRANCH  27  28
HETATM   28  C5  UNL     1      32.951  29.648   9.805  1.00  0.00     0.020 C 
BRANCH  28  29
HETATM   29  C4  UNL     1      34.451  29.510  10.085  1.00  0.00     0.002 C 
BRANCH  29  30
HETATM   30  C3  UNL     1      35.276  30.613   9.537  1.00  0.00    -0.000 C 
BRANCH  30  31
HETATM   31  C2  UNL     1      36.367  31.108  10.442  1.00  0.00    -0.005 C 
HETATM   32  C1  UNL     1      36.176  32.566  10.798  1.00  0.00     0.005 C 
ENDBRANCH  30  31
ENDBRANCH  29  30
ENDBRANCH  28  29
ENDBRANCH  27  28
ENDBRANCH  25  27
BRANCH  25  33
HETATM   33  C7  UNL     1      30.204  30.922  11.158  1.00  0.00     0.090 C 
BRANCH  33  34
HETATM   34  C8  UNL     1      29.314  32.015  10.814  1.00  0.00    -0.009 C 
BRANCH  34  35
HETATM   35  C9  UNL     1      27.909  31.880  10.428  1.00  0.00     0.028 C 
BRANCH  35  36
HETATM   36  C10 UNL     1      27.535  30.765   9.525  1.00  0.00    -0.001 C 
HETATM   37  C11 UNL     1      27.015  29.495  10.053  1.00  0.00     0.005 C 
ENDBRANCH  35  36
ENDBRANCH  34  35
ENDBRANCH  33  34
ENDBRANCH  25  33
ENDBRANCH  23  24
ENDBRANCH  22  23
ENDBRANCH  19  22
ENDBRANCH   1  19
BRANCH   9  38
HETATM   38  O2  UNL     1      28.346  39.449  15.908  1.00  0.00    -0.395 OA
ATOM     39  H2  UNL     1      28.227  38.525  16.093  1.00  0.00     0.210 HD
ENDBRANCH   9  38
BRANCH  11  40
HETATM   40  O3  UNL     1      28.229  43.118  14.400  1.00  0.00    -0.395 OA
ATOM     41  H3  UNL     1      27.353  43.291  14.075  1.00  0.00     0.210 HD
ENDBRANCH  11  40
BRANCH  13  42
HETATM   42  O4  UNL     1      30.346  40.675  17.589  1.00  0.00    -0.395 OA
ATOM     43  H4  UNL     1      30.621  40.958  18.453  1.00  0.00     0.210 HD
ENDBRANCH  13  42
TORSDOF 16
ENDMDL
