MODEL 1
REMARK VINA RESULT: -8.319906131      0.000      0.000
REMARK  15 active torsions:
REMARK  status: ('A' for Active; 'I' for Inactive)
REMARK    1  A    between atoms: C2_2  and  C3_3 
REMARK       I    between atoms: N1_14  and  C14_15 
REMARK       I    between atoms: C14_15  and  N2_17 
REMARK    2  A    between atoms: N2_17  and  C15_19 
REMARK    3  A    between atoms: C15_19  and  C16_20 
REMARK    4  A    between atoms: C16_20  and  C17_21 
REMARK    5  A    between atoms: C17_21  and  N3_22 
REMARK    6  A    between atoms: N3_22  and  C18_24 
REMARK    7  A    between atoms: C18_24  and  C19_25 
REMARK    8  A    between atoms: C19_25  and  C20_26 
REMARK    9  A    between atoms: C20_26  and  C21_27 
REMARK   10  A    between atoms: C21_27  and  N4_29 
REMARK   11  A    between atoms: N4_29  and  C23_31 
REMARK   12  A    between atoms: C23_31  and  C24_32 
REMARK   13  A    between atoms: C24_32  and  O2_33 
REMARK   14  A    between atoms: C24_32  and  C25_35 
REMARK   15  A    between atoms: C25_35  and  O3_36 
ROOT
HETATM    1  C3  UNL     1      29.370  42.764  16.053  1.00  0.00    -0.032 C 
HETATM    2  C4  UNL     1      30.557  43.405  15.427  1.00  0.00     0.015 C 
HETATM    3  C5  UNL     1      31.862  43.216  16.133  1.00  0.00    -0.013 C 
HETATM    4  C6  UNL     1      31.800  43.454  17.612  1.00  0.00     0.009 C 
HETATM    5  C7  UNL     1      30.770  42.473  18.132  1.00  0.00    -0.013 C 
HETATM    6  C8  UNL     1      31.238  41.099  17.811  1.00  0.00     0.010 C 
HETATM    7  C9  UNL     1      31.422  40.785  16.364  1.00  0.00    -0.004 C 
HETATM    8  C10 UNL     1      32.316  41.828  15.746  1.00  0.00     0.010 C 
HETATM    9  C11 UNL     1      30.213  40.415  15.600  1.00  0.00    -0.026 C 
HETATM   10  C12 UNL     1      30.613  40.051  14.192  1.00  0.00     0.030 C 
HETATM   11  C13 UNL     1      31.763  39.096  14.082  1.00  0.00     0.128 C 
HETATM   12  N1  UNL     1      31.271  37.836  14.639  1.00  0.00    -0.334 N 
HETATM   13  C14 UNL     1      31.269  36.664  13.903  1.00  0.00     0.318 C 
HETATM   14  O1  UNL     1      31.692  36.717  12.699  1.00  0.00    -0.247 OA
HETATM   15  N2  UNL     1      30.845  35.392  14.349  1.00  0.00    -0.343 N 
ATOM     16  H2  UNL     1      30.507  35.295  15.306  1.00  0.00     0.164 HD
HETATM   17  C26 UNL     1      30.795  37.950  15.968  1.00  0.00     0.128 C 
HETATM   18  C27 UNL     1      29.771  39.051  16.170  1.00  0.00     0.030 C 
HETATM   19  C28 UNL     1      29.068  41.366  15.621  1.00  0.00    -0.032 C 
HETATM   20  C29 UNL     1      27.903  40.802  16.431  1.00  0.00     0.016 C 
HETATM   21  C30 UNL     1      28.456  41.471  14.211  1.00  0.00     0.016 C 
HETATM   22  C31 UNL     1      29.447  42.857  17.562  1.00  0.00     0.015 C 
ENDROOT
BRANCH  15  23
HETATM   23  C15 UNL     1      30.873  34.213  13.489  1.00  0.00     0.126 C 
BRANCH  23  24
HETATM   24  C16 UNL     1      31.605  33.120  14.224  1.00  0.00     0.039 C 
BRANCH  24  25
HETATM   25  C17 UNL     1      31.610  31.821  13.485  1.00  0.00     0.115 C 
BRANCH  25  26
HETATM   26  N3  UNL     1      30.388  31.113  13.434  1.00  0.00    -0.421 N 
ATOM     27  H3  UNL     1      29.995  30.697  14.279  1.00  0.00     0.153 HD
BRANCH  26  28
HETATM   28  C18 UNL     1      29.720  30.990  12.193  1.00  0.00     0.113 C 
BRANCH  28  29
HETATM   29  C19 UNL     1      28.355  30.257  12.305  1.00  0.00     0.021 C 
BRANCH  29  30
HETATM   30  C20 UNL     1      28.146  29.541  11.010  1.00  0.00     0.026 C 
BRANCH  30  31
HETATM   31  C21 UNL     1      28.937  28.342  10.731  1.00  0.00     0.072 C 
HETATM   32  C22 UNL     1      28.329  27.804   9.368  1.00  0.00     0.031 C 
BRANCH  31  33
HETATM   33  N4  UNL     1      29.052  27.281  11.591  1.00  0.00    -0.415 N 
ATOM     34  H4  UNL     1      28.727  27.413  12.549  1.00  0.00     0.153 HD
BRANCH  33  35
HETATM   35  C23 UNL     1      29.576  26.046  11.255  1.00  0.00     0.147 C 
BRANCH  35  36
HETATM   36  C24 UNL     1      29.989  25.244  12.511  1.00  0.00     0.159 C 
BRANCH  36  37
HETATM   37  O2  UNL     1      31.327  24.909  12.417  1.00  0.00    -0.392 OA
ATOM     38  H2  UNL     1      31.808  25.341  13.112  1.00  0.00     0.210 HD
ENDBRANCH  36  37
BRANCH  36  39
HETATM   39  C25 UNL     1      29.087  24.054  12.626  1.00  0.00     0.197 C 
BRANCH  39  40
HETATM   40  O3  UNL     1      29.414  23.291  13.740  1.00  0.00    -0.398 OA
ATOM     41  H3  UNL     1      28.641  22.875  14.104  1.00  0.00     0.209 HD
ENDBRANCH  39  40
ENDBRANCH  36  39
ENDBRANCH  35  36
ENDBRANCH  33  35
ENDBRANCH  31  33
ENDBRANCH  30  31
ENDBRANCH  29  30
ENDBRANCH  28  29
ENDBRANCH  26  28
ENDBRANCH  25  26
ENDBRANCH  24  25
ENDBRANCH  23  24
ENDBRANCH  15  23
BRANCH   1  42
HETATM   42  C2  UNL     1      28.237  43.730  15.670  1.00  0.00     0.006 C 
HETATM   43  C1  UNL     1      28.219  44.968  16.473  1.00  0.00     0.006 C 
ENDBRANCH   1  42
TORSDOF 15
ENDMDL
MODEL 2
REMARK VINA RESULT: -8.269590991      1.236      1.947
REMARK  15 active torsions:
REMARK  status: ('A' for Active; 'I' for Inactive)
REMARK    1  A    between atoms: C2_2  and  C3_3 
REMARK       I    between atoms: N1_14  and  C14_15 
REMARK       I    between atoms: C14_15  and  N2_17 
REMARK    2  A    between atoms: N2_17  and  C15_19 
REMARK    3  A    between atoms: C15_19  and  C16_20 
REMARK    4  A    between atoms: C16_20  and  C17_21 
REMARK    5  A    between atoms: C17_21  and  N3_22 
REMARK    6  A    between atoms: N3_22  and  C18_24 
REMARK    7  A    between atoms: C18_24  and  C19_25 
REMARK    8  A    between atoms: C19_25  and  C20_26 
REMARK    9  A    between atoms: C20_26  and  C21_27 
REMARK   10  A    between atoms: C21_27  and  N4_29 
REMARK   11  A    between atoms: N4_29  and  C23_31 
REMARK   12  A    between atoms: C23_31  and  C24_32 
REMARK   13  A    between atoms: C24_32  and  O2_33 
REMARK   14  A    between atoms: C24_32  and  C25_35 
REMARK   15  A    between atoms: C25_35  and  O3_36 
ROOT
HETATM    1  C3  UNL     1      29.579  40.793  15.811  1.00  0.00    -0.032 C 
HETATM    2  C4  UNL     1      29.561  41.514  14.511  1.00  0.00     0.015 C 
HETATM    3  C5  UNL     1      30.883  41.992  13.999  1.00  0.00    -0.013 C 
HETATM    4  C6  UNL     1      31.722  42.691  15.025  1.00  0.00     0.009 C 
HETATM    5  C7  UNL     1      31.919  41.681  16.137  1.00  0.00    -0.013 C 
HETATM    6  C8  UNL     1      32.613  40.497  15.567  1.00  0.00     0.010 C 
HETATM    7  C9  UNL     1      31.902  39.779  14.469  1.00  0.00    -0.004 C 
HETATM    8  C10 UNL     1      31.531  40.768  13.396  1.00  0.00     0.010 C 
HETATM    9  C11 UNL     1      30.855  38.815  14.868  1.00  0.00    -0.026 C 
HETATM   10  C12 UNL     1      30.319  38.133  13.634  1.00  0.00     0.030 C 
HETATM   11  C13 UNL     1      31.361  37.603  12.694  1.00  0.00     0.128 C 
HETATM   12  N1  UNL     1      32.026  36.525  13.426  1.00  0.00    -0.334 N 
HETATM   13  C14 UNL     1      32.075  35.231  12.934  1.00  0.00     0.318 C 
HETATM   14  O1  UNL     1      31.495  34.996  11.820  1.00  0.00    -0.247 OA
HETATM   15  N2  UNL     1      32.711  34.125  13.541  1.00  0.00    -0.343 N 
ATOM     16  H2  UNL     1      33.196  34.263  14.427  1.00  0.00     0.164 HD
HETATM   17  C26 UNL     1      32.579  36.934  14.662  1.00  0.00     0.128 C 
HETATM   18  C27 UNL     1      31.607  37.664  15.570  1.00  0.00     0.030 C 
HETATM   19  C28 UNL     1      29.760  39.312  15.745  1.00  0.00    -0.032 C 
HETATM   20  C29 UNL     1      29.878  38.729  17.151  1.00  0.00     0.016 C 
HETATM   21  C30 UNL     1      28.414  38.732  15.270  1.00  0.00     0.016 C 
HETATM   22  C31 UNL     1      30.587  41.417  16.753  1.00  0.00     0.015 C 
ENDROOT
BRANCH  15  23
HETATM   23  C15 UNL     1      32.699  32.794  12.945  1.00  0.00     0.126 C 
BRANCH  23  24
HETATM   24  C16 UNL     1      31.640  31.981  13.643  1.00  0.00     0.039 C 
BRANCH  24  25
HETATM   25  C17 UNL     1      30.514  31.589  12.742  1.00  0.00     0.115 C 
BRANCH  25  26
HETATM   26  N3  UNL     1      29.577  30.666  13.259  1.00  0.00    -0.421 N 
ATOM     27  H3  UNL     1      29.850  30.001  13.984  1.00  0.00     0.153 HD
BRANCH  26  28
HETATM   28  C18 UNL     1      28.255  30.678  12.756  1.00  0.00     0.113 C 
BRANCH  28  29
HETATM   29  C19 UNL     1      28.192  30.688  11.205  1.00  0.00     0.021 C 
BRANCH  29  30
HETATM   30  C20 UNL     1      27.827  29.301  10.782  1.00  0.00     0.026 C 
BRANCH  30  31
HETATM   31  C21 UNL     1      28.896  28.318  10.594  1.00  0.00     0.072 C 
HETATM   32  C22 UNL     1      28.482  27.573   9.256  1.00  0.00     0.031 C 
BRANCH  31  33
HETATM   33  N4  UNL     1      29.236  27.368  11.520  1.00  0.00    -0.415 N 
ATOM     34  H4  UNL     1      29.292  27.658  12.496  1.00  0.00     0.153 HD
BRANCH  33  35
HETATM   35  C23 UNL     1      29.508  26.043  11.229  1.00  0.00     0.147 C 
BRANCH  35  36
HETATM   36  C24 UNL     1      29.927  25.258  12.493  1.00  0.00     0.159 C 
BRANCH  36  37
HETATM   37  O2  UNL     1      31.268  24.936  12.404  1.00  0.00    -0.392 OA
ATOM     38  H2  UNL     1      31.358  24.076  12.010  1.00  0.00     0.210 HD
ENDBRANCH  36  37
BRANCH  36  39
HETATM   39  C25 UNL     1      29.037  24.059  12.617  1.00  0.00     0.197 C 
BRANCH  39  40
HETATM   40  O3  UNL     1      29.408  23.278  13.704  1.00  0.00    -0.398 OA
ATOM     41  H3  UNL     1      30.102  22.674  13.466  1.00  0.00     0.209 HD
ENDBRANCH  39  40
ENDBRANCH  36  39
ENDBRANCH  35  36
ENDBRANCH  33  35
ENDBRANCH  31  33
ENDBRANCH  30  31
ENDBRANCH  29  30
ENDBRANCH  28  29
ENDBRANCH  26  28
ENDBRANCH  25  26
ENDBRANCH  24  25
ENDBRANCH  23  24
ENDBRANCH  15  23
BRANCH   1  42
HETATM   42  C2  UNL     1      28.214  41.168  16.411  1.00  0.00     0.006 C 
HETATM   43  C1  UNL     1      28.242  42.405  17.215  1.00  0.00     0.006 C 
ENDBRANCH   1  42
TORSDOF 15
ENDMDL
MODEL 3
REMARK VINA RESULT: -7.833097900      6.540     11.983
REMARK  15 active torsions:
REMARK  status: ('A' for Active; 'I' for Inactive)
REMARK    1  A    between atoms: C2_2  and  C3_3 
REMARK       I    between atoms: N1_14  and  C14_15 
REMARK       I    between atoms: C14_15  and  N2_17 
REMARK    2  A    between atoms: N2_17  and  C15_19 
REMARK    3  A    between atoms: C15_19  and  C16_20 
REMARK    4  A    between atoms: C16_20  and  C17_21 
REMARK    5  A    between atoms: C17_21  and  N3_22 
REMARK    6  A    between atoms: N3_22  and  C18_24 
REMARK    7  A    between atoms: C18_24  and  C19_25 
REMARK    8  A    between atoms: C19_25  and  C20_26 
REMARK    9  A    between atoms: C20_26  and  C21_27 
REMARK   10  A    between atoms: C21_27  and  N4_29 
REMARK   11  A    between atoms: N4_29  and  C23_31 
REMARK   12  A    between atoms: C23_31  and  C24_32 
REMARK   13  A    between atoms: C24_32  and  O2_33 
REMARK   14  A    between atoms: C24_32  and  C25_35 
REMARK   15  A    between atoms: C25_35  and  O3_36 
ROOT
HETATM    1  C3  UNL     1      36.066  28.133   7.038  1.00  0.00    -0.032 C 
HETATM    2  C4  UNL     1      36.527  29.136   6.042  1.00  0.00     0.015 C 
HETATM    3  C5  UNL     1      35.472  30.015   5.449  1.00  0.00    -0.013 C 
HETATM    4  C6  UNL     1      34.246  29.283   4.994  1.00  0.00     0.009 C 
HETATM    5  C7  UNL     1      33.718  28.580   6.227  1.00  0.00    -0.013 C 
HETATM    6  C8  UNL     1      33.399  29.615   7.246  1.00  0.00     0.010 C 
HETATM    7  C9  UNL     1      34.536  30.465   7.702  1.00  0.00    -0.004 C 
HETATM    8  C10 UNL     1      35.211  31.069   6.499  1.00  0.00     0.010 C 
HETATM    9  C11 UNL     1      35.422  29.899   8.741  1.00  0.00    -0.026 C 
HETATM   10  C12 UNL     1      36.448  30.933   9.130  1.00  0.00     0.030 C 
HETATM   11  C13 UNL     1      35.900  32.297   9.424  1.00  0.00     0.128 C 
HETATM   12  N1  UNL     1      35.094  32.134  10.635  1.00  0.00    -0.334 N 
HETATM   13  C14 UNL     1      35.346  32.867  11.783  1.00  0.00     0.318 C 
HETATM   14  O1  UNL     1      36.329  33.682  11.764  1.00  0.00    -0.247 OA
HETATM   15  N2  UNL     1      34.618  32.810  12.992  1.00  0.00    -0.343 N 
ATOM     16  H2  UNL     1      33.818  32.180  13.055  1.00  0.00     0.164 HD
HETATM   17  C26 UNL     1      34.073  31.162  10.511  1.00  0.00     0.128 C 
HETATM   18  C27 UNL     1      34.555  29.812  10.014  1.00  0.00     0.030 C 
HETATM   19  C28 UNL     1      36.047  28.576   8.464  1.00  0.00    -0.032 C 
HETATM   20  C29 UNL     1      35.442  27.490   9.350  1.00  0.00     0.016 C 
HETATM   21  C30 UNL     1      37.515  28.590   8.933  1.00  0.00     0.016 C 
HETATM   22  C31 UNL     1      34.724  27.558   6.635  1.00  0.00     0.015 C 
ENDROOT
BRANCH  15  23
HETATM   23  C15 UNL     1      34.969  33.619  14.154  1.00  0.00     0.126 C 
BRANCH  23  24
HETATM   24  C16 UNL     1      33.704  33.908  14.919  1.00  0.00     0.039 C 
BRANCH  24  25
HETATM   25  C17 UNL     1      32.466  33.639  14.127  1.00  0.00     0.115 C 
BRANCH  25  26
HETATM   26  N3  UNL     1      31.689  32.526  14.519  1.00  0.00    -0.421 N 
ATOM     27  H3  UNL     1      31.434  32.391  15.498  1.00  0.00     0.153 HD
BRANCH  26  28
HETATM   28  C18 UNL     1      31.271  31.601  13.534  1.00  0.00     0.113 C 
BRANCH  28  29
HETATM   29  C19 UNL     1      30.005  32.062  12.761  1.00  0.00     0.021 C 
BRANCH  29  30
HETATM   30  C20 UNL     1      30.222  31.699  11.328  1.00  0.00     0.026 C 
BRANCH  30  31
HETATM   31  C21 UNL     1      29.504  30.549  10.775  1.00  0.00     0.072 C 
HETATM   32  C22 UNL     1      28.235  30.416  11.717  1.00  0.00     0.031 C 
BRANCH  31  33
HETATM   33  N4  UNL     1      30.052  29.302  10.624  1.00  0.00    -0.415 N 
ATOM     34  H4  UNL     1      30.743  29.004  11.311  1.00  0.00     0.153 HD
BRANCH  33  35
HETATM   35  C23 UNL     1      29.736  28.419   9.607  1.00  0.00     0.147 C 
BRANCH  35  36
HETATM   36  C24 UNL     1      29.632  26.967  10.128  1.00  0.00     0.159 C 
BRANCH  36  37
HETATM   37  O2  UNL     1      29.396  26.988  11.490  1.00  0.00    -0.392 OA
ATOM     38  H2  UNL     1      28.483  26.783  11.652  1.00  0.00     0.210 HD
ENDBRANCH  36  37
BRANCH  36  39
HETATM   39  C25 UNL     1      30.890  26.244   9.756  1.00  0.00     0.197 C 
BRANCH  39  40
HETATM   40  O3  UNL     1      31.998  26.851  10.332  1.00  0.00    -0.398 OA
ATOM     41  H3  UNL     1      32.203  26.456  11.172  1.00  0.00     0.209 HD
ENDBRANCH  39  40
ENDBRANCH  36  39
ENDBRANCH  35  36
ENDBRANCH  33  35
ENDBRANCH  31  33
ENDBRANCH  30  31
ENDBRANCH  29  30
ENDBRANCH  28  29
ENDBRANCH  26  28
ENDBRANCH  25  26
ENDBRANCH  24  25
ENDBRANCH  23  24
ENDBRANCH  15  23
BRANCH   1  42
HETATM   42  C2  UNL     1      37.056  26.977   6.820  1.00  0.00     0.006 C 
HETATM   43  C1  UNL     1      37.288  26.657   5.398  1.00  0.00     0.006 C 
ENDBRANCH   1  42
TORSDOF 15
ENDMDL
MODEL 4
REMARK VINA RESULT: -7.809437094      7.585     13.447
REMARK  15 active torsions:
REMARK  status: ('A' for Active; 'I' for Inactive)
REMARK    1  A    between atoms: C2_2  and  C3_3 
REMARK       I    between atoms: N1_14  and  C14_15 
REMARK       I    between atoms: C14_15  and  N2_17 
REMARK    2  A    between atoms: N2_17  and  C15_19 
REMARK    3  A    between atoms: C15_19  and  C16_20 
REMARK    4  A    between atoms: C16_20  and  C17_21 
REMARK    5  A    between atoms: C17_21  and  N3_22 
REMARK    6  A    between atoms: N3_22  and  C18_24 
REMARK    7  A    between atoms: C18_24  and  C19_25 
REMARK    8  A    between atoms: C19_25  and  C20_26 
REMARK    9  A    between atoms: C20_26  and  C21_27 
REMARK   10  A    between atoms: C21_27  and  N4_29 
REMARK   11  A    between atoms: N4_29  and  C23_31 
REMARK   12  A    between atoms: C23_31  and  C24_32 
REMARK   13  A    between atoms: C24_32  and  O2_33 
REMARK   14  A    between atoms: C24_32  and  C25_35 
REMARK   15  A    between atoms: C25_35  and  O3_36 
ROOT
HETATM    1  C3  UNL     1      36.415  27.121   4.757  1.00  0.00    -0.032 C 
HETATM    2  C4  UNL     1      37.564  28.045   4.570  1.00  0.00     0.015 C 
HETATM    3  C5  UNL     1      37.259  29.361   3.926  1.00  0.00    -0.013 C 
HETATM    4  C6  UNL     1      36.405  29.260   2.699  1.00  0.00     0.009 C 
HETATM    5  C7  UNL     1      35.128  28.586   3.155  1.00  0.00    -0.013 C 
HETATM    6  C8  UNL     1      34.501  29.440   4.197  1.00  0.00     0.010 C 
HETATM    7  C9  UNL     1      35.310  29.681   5.427  1.00  0.00    -0.004 C 
HETATM    8  C10 UNL     1      36.664  30.204   5.029  1.00  0.00     0.010 C 
HETATM    9  C11 UNL     1      35.288  28.625   6.461  1.00  0.00    -0.026 C 
HETATM   10  C12 UNL     1      36.086  29.087   7.654  1.00  0.00     0.030 C 
HETATM   11  C13 UNL     1      35.767  30.469   8.138  1.00  0.00     0.128 C 
HETATM   12  N1  UNL     1      34.397  30.392   8.646  1.00  0.00    -0.334 N 
HETATM   13  C14 UNL     1      34.083  30.730   9.951  1.00  0.00     0.318 C 
HETATM   14  O1  UNL     1      35.038  31.092  10.718  1.00  0.00    -0.247 OA
HETATM   15  N2  UNL     1      32.796  30.718  10.535  1.00  0.00    -0.343 N 
ATOM     16  H2  UNL     1      31.999  30.445   9.962  1.00  0.00     0.164 HD
HETATM   17  C26 UNL     1      33.462  29.932   7.688  1.00  0.00     0.128 C 
HETATM   18  C27 UNL     1      33.848  28.627   7.017  1.00  0.00     0.030 C 
HETATM   19  C28 UNL     1      35.666  27.246   6.043  1.00  0.00    -0.032 C 
HETATM   20  C29 UNL     1      34.449  26.323   6.041  1.00  0.00     0.016 C 
HETATM   21  C30 UNL     1      36.553  26.603   7.126  1.00  0.00     0.016 C 
HETATM   22  C31 UNL     1      35.471  27.197   3.575  1.00  0.00     0.015 C 
ENDROOT
BRANCH  15  23
HETATM   23  C15 UNL     1      32.568  31.084  11.929  1.00  0.00     0.126 C 
BRANCH  23  24
HETATM   24  C16 UNL     1      31.792  32.375  11.950  1.00  0.00     0.039 C 
BRANCH  24  25
HETATM   25  C17 UNL     1      30.503  32.271  12.700  1.00  0.00     0.115 C 
BRANCH  25  26
HETATM   26  N3  UNL     1      30.194  31.012  13.262  1.00  0.00    -0.421 N 
ATOM     27  H3  UNL     1      30.887  30.509  13.818  1.00  0.00     0.153 HD
BRANCH  26  28
HETATM   28  C18 UNL     1      28.910  30.461  13.043  1.00  0.00     0.113 C 
BRANCH  28  29
HETATM   29  C19 UNL     1      28.268  30.920  11.705  1.00  0.00     0.021 C 
BRANCH  29  30
HETATM   30  C20 UNL     1      27.774  29.686  11.022  1.00  0.00     0.026 C 
BRANCH  30  31
HETATM   31  C21 UNL     1      28.694  28.942  10.159  1.00  0.00     0.072 C 
HETATM   32  C22 UNL     1      27.737  28.273   9.086  1.00  0.00     0.031 C 
BRANCH  31  33
HETATM   33  N4  UNL     1      29.561  27.981  10.610  1.00  0.00    -0.415 N 
ATOM     34  H4  UNL     1      30.389  28.292  11.117  1.00  0.00     0.153 HD
BRANCH  33  35
HETATM   35  C23 UNL     1      29.395  26.620  10.429  1.00  0.00     0.147 C 
BRANCH  35  36
HETATM   36  C24 UNL     1      30.748  25.907  10.208  1.00  0.00     0.159 C 
BRANCH  36  37
HETATM   37  O2  UNL     1      31.304  25.595  11.434  1.00  0.00    -0.392 OA
ATOM     38  H2  UNL     1      31.316  24.652  11.542  1.00  0.00     0.210 HD
ENDBRANCH  36  37
BRANCH  36  39
HETATM   39  C25 UNL     1      31.617  26.797   9.373  1.00  0.00     0.197 C 
BRANCH  39  40
HETATM   40  O3  UNL     1      32.459  27.559  10.173  1.00  0.00    -0.398 OA
ATOM     41  H3  UNL     1      33.006  27.003  10.715  1.00  0.00     0.209 HD
ENDBRANCH  39  40
ENDBRANCH  36  39
ENDBRANCH  35  36
ENDBRANCH  33  35
ENDBRANCH  31  33
ENDBRANCH  30  31
ENDBRANCH  29  30
ENDBRANCH  28  29
ENDBRANCH  26  28
ENDBRANCH  25  26
ENDBRANCH  24  25
ENDBRANCH  23  24
ENDBRANCH  15  23
BRANCH   1  42
HETATM   42  C2  UNL     1      37.080  25.741   4.624  1.00  0.00     0.006 C 
HETATM   43  C1  UNL     1      38.012  25.642   3.484  1.00  0.00     0.006 C 
ENDBRANCH   1  42
TORSDOF 15
ENDMDL
MODEL 5
REMARK VINA RESULT: -7.775617324      4.650      6.678
REMARK  15 active torsions:
REMARK  status: ('A' for Active; 'I' for Inactive)
REMARK    1  A    between atoms: C2_2  and  C3_3 
REMARK       I    between atoms: N1_14  and  C14_15 
REMARK       I    between atoms: C14_15  and  N2_17 
REMARK    2  A    between atoms: N2_17  and  C15_19 
REMARK    3  A    between atoms: C15_19  and  C16_20 
REMARK    4  A    between atoms: C16_20  and  C17_21 
REMARK    5  A    between atoms: C17_21  and  N3_22 
REMARK    6  A    between atoms: N3_22  and  C18_24 
REMARK    7  A    between atoms: C18_24  and  C19_25 
REMARK    8  A    between atoms: C19_25  and  C20_26 
REMARK    9  A    between atoms: C20_26  and  C21_27 
REMARK   10  A    between atoms: C21_27  and  N4_29 
REMARK   11  A    between atoms: N4_29  and  C23_31 
REMARK   12  A    between atoms: C23_31  and  C24_32 
REMARK   13  A    between atoms: C24_32  and  O2_33 
REMARK   14  A    between atoms: C24_32  and  C25_35 
REMARK   15  A    between atoms: C25_35  and  O3_36 
ROOT
HETATM    1  C3  UNL     1      33.552  36.187  13.659  1.00  0.00    -0.032 C 
HETATM    2  C4  UNL     1      34.655  36.026  12.675  1.00  0.00     0.015 C 
HETATM    3  C5  UNL     1      35.660  34.960  12.974  1.00  0.00    -0.013 C 
HETATM    4  C6  UNL     1      36.155  34.960  14.388  1.00  0.00     0.009 C 
HETATM    5  C7  UNL     1      34.919  34.778  15.245  1.00  0.00    -0.013 C 
HETATM    6  C8  UNL     1      34.291  33.481  14.879  1.00  0.00     0.010 C 
HETATM    7  C9  UNL     1      33.844  33.341  13.463  1.00  0.00    -0.004 C 
HETATM    8  C10 UNL     1      34.995  33.671  12.550  1.00  0.00     0.010 C 
HETATM    9  C11 UNL     1      32.534  33.929  13.112  1.00  0.00    -0.026 C 
HETATM   10  C12 UNL     1      32.221  33.609  11.672  1.00  0.00     0.030 C 
HETATM   11  C13 UNL     1      32.408  32.174  11.282  1.00  0.00     0.128 C 
HETATM   12  N1  UNL     1      31.391  31.436  12.031  1.00  0.00    -0.334 N 
HETATM   13  C14 UNL     1      30.445  30.649  11.396  1.00  0.00     0.318 C 
HETATM   14  O1  UNL     1      30.469  30.604  10.120  1.00  0.00    -0.247 OA
HETATM   15  N2  UNL     1      29.440  29.876  12.019  1.00  0.00    -0.343 N 
ATOM     16  H2  UNL     1      29.384  29.871  13.038  1.00  0.00     0.164 HD
HETATM   17  C26 UNL     1      31.469  31.624  13.432  1.00  0.00     0.128 C 
HETATM   18  C27 UNL     1      31.490  33.077  13.865  1.00  0.00     0.030 C 
HETATM   19  C28 UNL     1      32.324  35.371  13.417  1.00  0.00    -0.032 C 
HETATM   20  C29 UNL     1      31.334  35.549  14.565  1.00  0.00     0.016 C 
HETATM   21  C30 UNL     1      31.581  36.044  12.247  1.00  0.00     0.016 C 
HETATM   22  C31 UNL     1      34.062  35.985  15.071  1.00  0.00     0.015 C 
ENDROOT
BRANCH  15  23
HETATM   23  C15 UNL     1      28.479  29.084  11.259  1.00  0.00     0.126 C 
BRANCH  23  24
HETATM   24  C16 UNL     1      27.359  29.997  10.832  1.00  0.00     0.039 C 
BRANCH  24  25
HETATM   25  C17 UNL     1      27.003  29.850   9.388  1.00  0.00     0.115 C 
BRANCH  25  26
HETATM   26  N3  UNL     1      28.025  30.119   8.450  1.00  0.00    -0.421 N 
ATOM     27  H3  UNL     1      28.590  30.964   8.528  1.00  0.00     0.153 HD
BRANCH  26  28
HETATM   28  C18 UNL     1      28.251  29.196   7.401  1.00  0.00     0.113 C 
BRANCH  28  29
HETATM   29  C19 UNL     1      29.636  28.498   7.490  1.00  0.00     0.021 C 
BRANCH  29  30
HETATM   30  C20 UNL     1      29.448  27.280   8.337  1.00  0.00     0.026 C 
BRANCH  30  31
HETATM   31  C21 UNL     1      30.607  26.717   9.031  1.00  0.00     0.072 C 
HETATM   32  C22 UNL     1      30.987  25.452   8.154  1.00  0.00     0.031 C 
BRANCH  31  33
HETATM   33  N4  UNL     1      30.602  26.335  10.346  1.00  0.00    -0.415 N 
ATOM     34  H4  UNL     1      31.069  26.944  11.018  1.00  0.00     0.153 HD
BRANCH  33  35
HETATM   35  C23 UNL     1      30.010  25.182  10.831  1.00  0.00     0.147 C 
BRANCH  35  36
HETATM   36  C24 UNL     1      30.117  25.092  12.370  1.00  0.00     0.159 C 
BRANCH  36  37
HETATM   37  O2  UNL     1      31.410  24.746  12.717  1.00  0.00    -0.392 OA
ATOM     38  H2  UNL     1      31.498  23.801  12.691  1.00  0.00     0.210 HD
ENDBRANCH  36  37
BRANCH  36  39
HETATM   39  C25 UNL     1      29.092  24.114  12.856  1.00  0.00     0.197 C 
BRANCH  39  40
HETATM   40  O3  UNL     1      29.659  23.195  13.729  1.00  0.00    -0.398 OA
ATOM     41  H3  UNL     1      29.900  23.610  14.549  1.00  0.00     0.209 HD
ENDBRANCH  39  40
ENDBRANCH  36  39
ENDBRANCH  35  36
ENDBRANCH  33  35
ENDBRANCH  31  33
ENDBRANCH  30  31
ENDBRANCH  29  30
ENDBRANCH  28  29
ENDBRANCH  26  28
ENDBRANCH  25  26
ENDBRANCH  24  25
ENDBRANCH  23  24
ENDBRANCH  15  23
BRANCH   1  42
HETATM   42  C2  UNL     1      33.254  37.693  13.574  1.00  0.00     0.006 C 
HETATM   43  C1  UNL     1      34.466  38.534  13.541  1.00  0.00     0.006 C 
ENDBRANCH   1  42
TORSDOF 15
ENDMDL
