MODEL 1
REMARK VINA RESULT: -9.736795708      0.000      0.000
REMARK  0 active torsions:
REMARK  status: ('A' for Active; 'I' for Inactive)
ROOT
HETATM    1  O1  UNL     1      25.887  13.742  31.316  1.00  0.00    -0.287 OA
HETATM    2  C1  UNL     1      25.537  12.563  31.269  1.00  0.00     0.186 A 
HETATM    3  C2  UNL     1      26.388  11.708  30.553  1.00  0.00     0.072 A 
HETATM    4  C3  UNL     1      26.089  10.370  30.440  1.00  0.00     0.092 A 
HETATM    5  N1  UNL     1      24.971   9.889  31.021  1.00  0.00    -0.363 N 
ATOM      6  H1  UNL     1      24.759   8.896  30.929  1.00  0.00     0.165 HD
HETATM    7  C4  UNL     1      24.135  10.660  31.708  1.00  0.00     0.075 A 
HETATM    8  C5  UNL     1      22.996  10.146  32.296  1.00  0.00     0.074 A 
HETATM    9  N2  UNL     1      22.462   8.901  32.348  1.00  0.00    -0.353 N 
ATOM     10  H2  UNL     1      22.861   8.067  31.917  1.00  0.00     0.166 HD
HETATM   11  C6  UNL     1      21.321   8.941  33.060  1.00  0.00     0.044 A 
HETATM   12  C7  UNL     1      20.382   7.975  33.423  1.00  0.00     0.030 A 
HETATM   13  C8  UNL     1      19.271   8.262  34.172  1.00  0.00     0.002 A 
HETATM   14  C9  UNL     1      19.058   9.553  34.592  1.00  0.00     0.001 A 
HETATM   15  C10 UNL     1      19.963  10.537  34.253  1.00  0.00     0.014 A 
HETATM   16  C11 UNL     1      21.078  10.230  33.497  1.00  0.00     0.006 A 
HETATM   17  C12 UNL     1      22.150  10.983  33.004  1.00  0.00     0.040 A 
HETATM   18  C13 UNL     1      22.418  12.328  33.139  1.00  0.00     0.099 A 
HETATM   19  O2  UNL     1      21.789  13.320  33.748  1.00  0.00    -0.321 OA
HETATM   20  C14 UNL     1      22.458  14.431  33.583  1.00  0.00     0.143 A 
HETATM   21  C15 UNL     1      23.600  14.152  32.817  1.00  0.00     0.040 A 
HETATM   22  C16 UNL     1      23.574  12.830  32.539  1.00  0.00     0.017 A 
HETATM   23  C17 UNL     1      24.429  12.020  31.831  1.00  0.00     0.056 A 
ENDROOT
TORSDOF 0
ENDMDL
MODEL 2
REMARK VINA RESULT: -9.641503272      2.026      3.293
REMARK  0 active torsions:
REMARK  status: ('A' for Active; 'I' for Inactive)
ROOT
HETATM    1  O1  UNL     1      26.404  12.550  31.955  1.00  0.00    -0.287 OA
HETATM    2  C1  UNL     1      25.277  12.830  32.365  1.00  0.00     0.186 A 
HETATM    3  C2  UNL     1      25.030  14.196  32.565  1.00  0.00     0.072 A 
HETATM    4  C3  UNL     1      23.802  14.617  33.022  1.00  0.00     0.092 A 
HETATM    5  N1  UNL     1      22.841  13.706  33.277  1.00  0.00    -0.363 N 
ATOM      6  H1  UNL     1      21.936  14.030  33.616  1.00  0.00     0.165 HD
HETATM    7  C4  UNL     1      23.030  12.402  33.103  1.00  0.00     0.075 A 
HETATM    8  C5  UNL     1      22.031  11.485  33.370  1.00  0.00     0.074 A 
HETATM    9  N2  UNL     1      20.757  11.609  33.818  1.00  0.00    -0.353 N 
ATOM     10  H2  UNL     1      20.293  12.487  34.050  1.00  0.00     0.166 HD
HETATM   11  C6  UNL     1      20.202  10.386  33.908  1.00  0.00     0.044 A 
HETATM   12  C7  UNL     1      18.945   9.930  34.302  1.00  0.00     0.030 A 
HETATM   13  C8  UNL     1      18.603   8.603  34.309  1.00  0.00     0.002 A 
HETATM   14  C9  UNL     1      19.529   7.668  33.912  1.00  0.00     0.001 A 
HETATM   15  C10 UNL     1      20.785   8.079  33.514  1.00  0.00     0.014 A 
HETATM   16  C11 UNL     1      21.112   9.421  33.514  1.00  0.00     0.006 A 
HETATM   17  C12 UNL     1      22.268  10.135  33.176  1.00  0.00     0.040 A 
HETATM   18  C13 UNL     1      23.484   9.677  32.719  1.00  0.00     0.099 A 
HETATM   19  O2  UNL     1      23.957   8.470  32.456  1.00  0.00    -0.321 OA
HETATM   20  C14 UNL     1      25.192   8.563  32.039  1.00  0.00     0.143 A 
HETATM   21  C15 UNL     1      25.556   9.918  32.027  1.00  0.00     0.040 A 
HETATM   22  C16 UNL     1      24.481  10.617  32.455  1.00  0.00     0.017 A 
HETATM   23  C17 UNL     1      24.271  11.963  32.639  1.00  0.00     0.056 A 
ENDROOT
TORSDOF 0
ENDMDL
MODEL 3
REMARK VINA RESULT: -9.213470317      2.144      3.315
REMARK  0 active torsions:
REMARK  status: ('A' for Active; 'I' for Inactive)
ROOT
HETATM    1  O1  UNL     1      27.129  12.042  31.702  1.00  0.00    -0.287 OA
HETATM    2  C1  UNL     1      26.130  12.659  32.072  1.00  0.00     0.186 A 
HETATM    3  C2  UNL     1      26.270  14.053  32.133  1.00  0.00     0.072 A 
HETATM    4  C3  UNL     1      25.213  14.837  32.535  1.00  0.00     0.092 A 
HETATM    5  N1  UNL     1      24.044  14.254  32.870  1.00  0.00    -0.363 N 
ATOM      6  H1  UNL     1      23.269  14.845  33.168  1.00  0.00     0.165 HD
HETATM    7  C4  UNL     1      23.866  12.938  32.829  1.00  0.00     0.075 A 
HETATM    8  C5  UNL     1      22.660  12.360  33.176  1.00  0.00     0.074 A 
HETATM    9  N2  UNL     1      21.477  12.872  33.599  1.00  0.00    -0.353 N 
ATOM     10  H2  UNL     1      21.275  13.862  33.738  1.00  0.00     0.166 HD
HETATM   11  C6  UNL     1      20.610  11.863  33.804  1.00  0.00     0.044 A 
HETATM   12  C7  UNL     1      19.284  11.810  34.231  1.00  0.00     0.030 A 
HETATM   13  C8  UNL     1      18.592  10.635  34.366  1.00  0.00     0.002 A 
HETATM   14  C9  UNL     1      19.219   9.447  34.072  1.00  0.00     0.001 A 
HETATM   15  C10 UNL     1      20.532   9.458  33.647  1.00  0.00     0.014 A 
HETATM   16  C11 UNL     1      21.214  10.652  33.517  1.00  0.00     0.006 A 
HETATM   17  C12 UNL     1      22.514  10.985  33.120  1.00  0.00     0.040 A 
HETATM   18  C13 UNL     1      23.550  10.169  32.721  1.00  0.00     0.099 A 
HETATM   19  O2  UNL     1      23.669   8.858  32.584  1.00  0.00    -0.321 OA
HETATM   20  C14 UNL     1      24.875   8.568  32.170  1.00  0.00     0.143 A 
HETATM   21  C15 UNL     1      25.595   9.763  32.026  1.00  0.00     0.040 A 
HETATM   22  C16 UNL     1      24.761  10.769  32.373  1.00  0.00     0.017 A 
HETATM   23  C17 UNL     1      24.930  12.131  32.421  1.00  0.00     0.056 A 
ENDROOT
TORSDOF 0
ENDMDL
MODEL 4
REMARK VINA RESULT: -9.070701047      2.511      6.190
REMARK  0 active torsions:
REMARK  status: ('A' for Active; 'I' for Inactive)
ROOT
HETATM    1  O1  UNL     1      18.795   9.400  33.934  1.00  0.00    -0.287 OA
HETATM    2  C1  UNL     1      19.212  10.542  33.742  1.00  0.00     0.186 A 
HETATM    3  C2  UNL     1      18.241  11.554  33.780  1.00  0.00     0.072 A 
HETATM    4  C3  UNL     1      18.601  12.866  33.577  1.00  0.00     0.092 A 
HETATM    5  N1  UNL     1      19.893  13.170  33.340  1.00  0.00    -0.363 N 
ATOM      6  H1  UNL     1      20.148  14.146  33.190  1.00  0.00     0.165 HD
HETATM    7  C4  UNL     1      20.847  12.246  33.294  1.00  0.00     0.075 A 
HETATM    8  C5  UNL     1      22.165  12.579  33.050  1.00  0.00     0.074 A 
HETATM    9  N2  UNL     1      22.795  13.758  32.820  1.00  0.00    -0.353 N 
ATOM     10  H2  UNL     1      22.345  14.673  32.789  1.00  0.00     0.166 HD
HETATM   11  C6  UNL     1      24.108  13.528  32.640  1.00  0.00     0.044 A 
HETATM   12  C7  UNL     1      25.200  14.354  32.376  1.00  0.00     0.030 A 
HETATM   13  C8  UNL     1      26.476  13.877  32.230  1.00  0.00     0.002 A 
HETATM   14  C9  UNL     1      26.707  12.528  32.345  1.00  0.00     0.001 A 
HETATM   15  C10 UNL     1      25.653  11.676  32.606  1.00  0.00     0.014 A 
HETATM   16  C11 UNL     1      24.373  12.174  32.750  1.00  0.00     0.006 A 
HETATM   17  C12 UNL     1      23.129  11.586  33.011  1.00  0.00     0.040 A 
HETATM   18  C13 UNL     1      22.806  10.262  33.210  1.00  0.00     0.099 A 
HETATM   19  O2  UNL     1      23.518   9.148  33.223  1.00  0.00    -0.321 OA
HETATM   20  C14 UNL     1      22.735   8.128  33.460  1.00  0.00     0.143 A 
HETATM   21  C15 UNL     1      21.423   8.601  33.613  1.00  0.00     0.040 A 
HETATM   22  C16 UNL     1      21.469   9.944  33.455  1.00  0.00     0.017 A 
HETATM   23  C17 UNL     1      20.494  10.910  33.500  1.00  0.00     0.056 A 
ENDROOT
TORSDOF 0
ENDMDL
MODEL 5
REMARK VINA RESULT: -8.983711274      1.928      5.529
REMARK  0 active torsions:
REMARK  status: ('A' for Active; 'I' for Inactive)
ROOT
HETATM    1  O1  UNL     1      17.776   8.981  33.851  1.00  0.00    -0.287 OA
HETATM    2  C1  UNL     1      18.974   8.726  33.731  1.00  0.00     0.186 A 
HETATM    3  C2  UNL     1      19.316   7.369  33.824  1.00  0.00     0.072 A 
HETATM    4  C3  UNL     1      20.629   6.977  33.704  1.00  0.00     0.092 A 
HETATM    5  N1  UNL     1      21.583   7.908  33.498  1.00  0.00    -0.363 N 
ATOM      6  H1  UNL     1      22.553   7.605  33.412  1.00  0.00     0.165 HD
HETATM    7  C4  UNL     1      21.307   9.204  33.404  1.00  0.00     0.075 A 
HETATM    8  C5  UNL     1      22.300  10.141  33.192  1.00  0.00     0.074 A 
HETATM    9  N2  UNL     1      23.644  10.046  33.039  1.00  0.00    -0.353 N 
ATOM     10  H2  UNL     1      24.183   9.180  33.058  1.00  0.00     0.166 HD
HETATM   11  C6  UNL     1      24.154  11.278  32.857  1.00  0.00     0.044 A 
HETATM   12  C7  UNL     1      25.446  11.761  32.654  1.00  0.00     0.030 A 
HETATM   13  C8  UNL     1      25.725  13.093  32.489  1.00  0.00     0.002 A 
HETATM   14  C9  UNL     1      24.698  14.005  32.523  1.00  0.00     0.001 A 
HETATM   15  C10 UNL     1      23.405  13.566  32.722  1.00  0.00     0.014 A 
HETATM   16  C11 UNL     1      23.141  12.220  32.886  1.00  0.00     0.006 A 
HETATM   17  C12 UNL     1      21.971  11.482  33.100  1.00  0.00     0.040 A 
HETATM   18  C13 UNL     1      20.668  11.912  33.214  1.00  0.00     0.099 A 
HETATM   19  O2  UNL     1      20.100  13.106  33.166  1.00  0.00    -0.321 OA
HETATM   20  C14 UNL     1      18.808  12.985  33.333  1.00  0.00     0.143 A 
HETATM   21  C15 UNL     1      18.507  11.626  33.503  1.00  0.00     0.040 A 
HETATM   22  C16 UNL     1      19.677  10.952  33.428  1.00  0.00     0.017 A 
HETATM   23  C17 UNL     1      19.978   9.614  33.523  1.00  0.00     0.056 A 
ENDROOT
TORSDOF 0
ENDMDL
