MODEL 1
REMARK VINA RESULT: -9.051717366      0.000      0.000
REMARK  3 active torsions:
REMARK  status: ('A' for Active; 'I' for Inactive)
REMARK    1  A    between atoms: N1_1  and  C1_4 
REMARK    2  A    between atoms: C2_7  and  N3_8 
REMARK    3  A    between atoms: N3_8  and  C3_10 
ROOT
HETATM    1  C1  UNL     1      24.737  10.519  31.629  1.00  0.00     0.127 A 
HETATM    2  N2  UNL     1      23.412  10.386  31.555  1.00  0.00    -0.176 N 
ATOM      3  H2  UNL     1      23.037   9.458  31.359  1.00  0.00     0.186 HD
HETATM    4  C2  UNL     1      22.537  11.395  31.723  1.00  0.00     0.684 A 
HETATM    5  N4  UNL     1      23.038  12.605  31.979  1.00  0.00    -0.191 N 
ATOM      6  H4  UNL     1      22.403  13.392  32.112  1.00  0.00     0.184 HD
HETATM    7  C13 UNL     1      24.369  12.806  32.067  1.00  0.00     0.063 A 
HETATM    8  C14 UNL     1      24.906  14.053  32.332  1.00  0.00     0.031 A 
HETATM    9  C15 UNL     1      26.268  14.234  32.417  1.00  0.00     0.002 A 
HETATM   10  C16 UNL     1      27.141  13.169  32.237  1.00  0.00     0.001 A 
HETATM   11  C17 UNL     1      26.619  11.931  31.974  1.00  0.00     0.017 A 
HETATM   12  C18 UNL     1      25.259  11.772  31.894  1.00  0.00     0.035 A 
ENDROOT
BRANCH   4  13
HETATM   13  N3  UNL     1      21.301  11.119  31.624  1.00  0.00    -0.191 N 
ATOM     14  H3  UNL     1      20.954  10.901  30.691  1.00  0.00     0.184 HD
BRANCH  13  15
HETATM   15  C3  UNL     1      20.365  11.083  32.670  1.00  0.00     0.060 A 
HETATM   16  C4  UNL     1      19.784  12.242  33.148  1.00  0.00     0.031 A 
HETATM   17  C5  UNL     1      18.860  12.233  34.174  1.00  0.00     0.003 A 
HETATM   18  C6  UNL     1      18.475  11.054  34.773  1.00  0.00     0.012 A 
HETATM   19  C7  UNL     1      19.043   9.883  34.309  1.00  0.00    -0.024 A 
HETATM   20  C8  UNL     1      18.660   8.698  34.904  1.00  0.00     0.012 A 
HETATM   21  C12 UNL     1      19.975   9.904  33.272  1.00  0.00     0.001 A 
HETATM   22  C9  UNL     1      19.225   7.525  34.445  1.00  0.00     0.001 A 
HETATM   23  C10 UNL     1      20.147   7.547  33.418  1.00  0.00     0.001 A 
HETATM   24  C11 UNL     1      20.544   8.727  32.808  1.00  0.00     0.014 A 
ENDBRANCH  13  15
ENDBRANCH   4  13
BRANCH   1  25
HETATM   25  N1  UNL     1      25.545   9.548  31.465  1.00  0.00    -0.384 N 
ATOM     26  H12 UNL     1      25.159   8.615  31.320  1.00  0.00     0.157 HD
ATOM     27  H11 UNL     1      26.559   9.659  31.474  1.00  0.00     0.157 HD
ENDBRANCH   1  25
TORSDOF 3
ENDMDL
MODEL 2
REMARK VINA RESULT: -8.994250482      0.689      2.299
REMARK  3 active torsions:
REMARK  status: ('A' for Active; 'I' for Inactive)
REMARK    1  A    between atoms: N1_1  and  C1_4 
REMARK    2  A    between atoms: C2_7  and  N3_8 
REMARK    3  A    between atoms: N3_8  and  C3_10 
ROOT
HETATM    1  C1  UNL     1      25.145  10.632  31.264  1.00  0.00     0.127 A 
HETATM    2  N2  UNL     1      23.926  10.094  31.213  1.00  0.00    -0.176 N 
ATOM      3  H2  UNL     1      23.843   9.130  30.890  1.00  0.00     0.186 HD
HETATM    4  C2  UNL     1      22.796  10.739  31.561  1.00  0.00     0.684 A 
HETATM    5  N4  UNL     1      22.916  12.000  31.983  1.00  0.00    -0.191 N 
ATOM      6  H4  UNL     1      22.080  12.518  32.254  1.00  0.00     0.184 HD
HETATM    7  C13 UNL     1      24.121  12.601  32.058  1.00  0.00     0.063 A 
HETATM    8  C14 UNL     1      24.263  13.906  32.493  1.00  0.00     0.031 A 
HETATM    9  C15 UNL     1      25.504  14.499  32.561  1.00  0.00     0.002 A 
HETATM   10  C16 UNL     1      26.648  13.802  32.193  1.00  0.00     0.001 A 
HETATM   11  C17 UNL     1      26.517  12.510  31.761  1.00  0.00     0.017 A 
HETATM   12  C18 UNL     1      25.272  11.938  31.701  1.00  0.00     0.035 A 
ENDROOT
BRANCH   4  13
HETATM   13  N3  UNL     1      21.704  10.100  31.461  1.00  0.00    -0.191 N 
ATOM     14  H3  UNL     1      21.375   9.902  30.516  1.00  0.00     0.184 HD
BRANCH  13  15
HETATM   15  C3  UNL     1      20.904   9.638  32.518  1.00  0.00     0.060 A 
HETATM   16  C4  UNL     1      20.978   8.327  32.948  1.00  0.00     0.031 A 
HETATM   17  C5  UNL     1      20.201   7.848  33.986  1.00  0.00     0.003 A 
HETATM   18  C6  UNL     1      19.308   8.667  34.641  1.00  0.00     0.012 A 
HETATM   19  C7  UNL     1      19.219   9.983  34.226  1.00  0.00    -0.024 A 
HETATM   20  C8  UNL     1      18.328  10.808  34.880  1.00  0.00     0.012 A 
HETATM   21  C12 UNL     1      20.009  10.455  33.178  1.00  0.00     0.001 A 
HETATM   22  C9  UNL     1      18.234  12.123  34.469  1.00  0.00     0.001 A 
HETATM   23  C10 UNL     1      19.015  12.589  33.432  1.00  0.00     0.001 A 
HETATM   24  C11 UNL     1      19.917  11.776  32.763  1.00  0.00     0.014 A 
ENDBRANCH  13  15
ENDBRANCH   4  13
BRANCH   1  25
HETATM   25  N1  UNL     1      26.199  10.000  30.929  1.00  0.00    -0.384 N 
ATOM     26  H12 UNL     1      26.431   9.142  31.430  1.00  0.00     0.157 HD
ATOM     27  H11 UNL     1      26.823  10.312  30.184  1.00  0.00     0.157 HD
ENDBRANCH   1  25
TORSDOF 3
ENDMDL
MODEL 3
REMARK VINA RESULT: -8.752158370      1.234      7.015
REMARK  3 active torsions:
REMARK  status: ('A' for Active; 'I' for Inactive)
REMARK    1  A    between atoms: N1_1  and  C1_4 
REMARK    2  A    between atoms: C2_7  and  N3_8 
REMARK    3  A    between atoms: N3_8  and  C3_10 
ROOT
HETATM    1  C1  UNL     1      19.846  11.593  33.621  1.00  0.00     0.127 A 
HETATM    2  N2  UNL     1      20.731  11.914  32.677  1.00  0.00    -0.176 N 
ATOM      3  H2  UNL     1      20.880  12.904  32.481  1.00  0.00     0.186 HD
HETATM    4  C2  UNL     1      21.443  11.019  31.967  1.00  0.00     0.684 A 
HETATM    5  N4  UNL     1      21.241   9.727  32.233  1.00  0.00    -0.191 N 
ATOM      6  H4  UNL     1      21.764   9.021  31.713  1.00  0.00     0.184 HD
HETATM    7  C13 UNL     1      20.360   9.336  33.176  1.00  0.00     0.063 A 
HETATM    8  C14 UNL     1      20.139   8.001  33.465  1.00  0.00     0.031 A 
HETATM    9  C15 UNL     1      19.233   7.626  34.432  1.00  0.00     0.002 A 
HETATM   10  C16 UNL     1      18.516   8.579  35.144  1.00  0.00     0.001 A 
HETATM   11  C17 UNL     1      18.728   9.902  34.866  1.00  0.00     0.017 A 
HETATM   12  C18 UNL     1      19.635  10.254  33.899  1.00  0.00     0.035 A 
ENDROOT
BRANCH   4  13
HETATM   13  N3  UNL     1      22.251  11.471  31.099  1.00  0.00    -0.191 N 
ATOM     14  H3  UNL     1      21.845  12.000  30.327  1.00  0.00     0.184 HD
BRANCH  13  15
HETATM   15  C3  UNL     1      23.647  11.319  31.093  1.00  0.00     0.060 A 
HETATM   16  C4  UNL     1      24.237  10.168  30.608  1.00  0.00     0.031 A 
HETATM   17  C5  UNL     1      25.607   9.994  30.591  1.00  0.00     0.003 A 
HETATM   18  C6  UNL     1      26.453  10.973  31.065  1.00  0.00     0.012 A 
HETATM   19  C7  UNL     1      25.883  12.133  31.554  1.00  0.00    -0.024 A 
HETATM   20  C8  UNL     1      26.725  13.118  32.029  1.00  0.00     0.012 A 
HETATM   21  C12 UNL     1      24.498  12.298  31.566  1.00  0.00     0.001 A 
HETATM   22  C9  UNL     1      26.161  14.279  32.519  1.00  0.00     0.001 A 
HETATM   23  C10 UNL     1      24.791  14.440  32.530  1.00  0.00     0.001 A 
HETATM   24  C11 UNL     1      23.928  13.463  32.058  1.00  0.00     0.014 A 
ENDBRANCH  13  15
ENDBRANCH   4  13
BRANCH   1  25
HETATM   25  N1  UNL     1      19.184  12.460  34.279  1.00  0.00    -0.384 N 
ATOM     26  H12 UNL     1      18.186  12.555  34.090  1.00  0.00     0.157 HD
ATOM     27  H11 UNL     1      19.604  13.064  34.986  1.00  0.00     0.157 HD
ENDBRANCH   1  25
TORSDOF 3
ENDMDL
MODEL 4
REMARK VINA RESULT: -8.399472030      1.170      2.561
REMARK  3 active torsions:
REMARK  status: ('A' for Active; 'I' for Inactive)
REMARK    1  A    between atoms: N1_1  and  C1_4 
REMARK    2  A    between atoms: C2_7  and  N3_8 
REMARK    3  A    between atoms: N3_8  and  C3_10 
ROOT
HETATM    1  C1  UNL     1      24.551  10.942  32.992  1.00  0.00     0.127 A 
HETATM    2  N2  UNL     1      23.488  10.170  32.759  1.00  0.00    -0.176 N 
ATOM      3  H2  UNL     1      23.323   9.384  33.387  1.00  0.00     0.186 HD
HETATM    4  C2  UNL     1      22.619  10.359  31.749  1.00  0.00     0.684 A 
HETATM    5  N4  UNL     1      22.843  11.391  30.932  1.00  0.00    -0.191 N 
ATOM      6  H4  UNL     1      22.204  11.564  30.156  1.00  0.00     0.184 HD
HETATM    7  C13 UNL     1      23.901  12.209  31.114  1.00  0.00     0.063 A 
HETATM    8  C14 UNL     1      24.148  13.283  30.277  1.00  0.00     0.031 A 
HETATM    9  C15 UNL     1      25.234  14.105  30.482  1.00  0.00     0.002 A 
HETATM   10  C16 UNL     1      26.111  13.877  31.535  1.00  0.00     0.001 A 
HETATM   11  C17 UNL     1      25.874  12.817  32.368  1.00  0.00     0.017 A 
HETATM   12  C18 UNL     1      24.786  12.011  32.146  1.00  0.00     0.035 A 
ENDROOT
BRANCH   4  13
HETATM   13  N3  UNL     1      21.651   9.544  31.650  1.00  0.00    -0.191 N 
ATOM     14  H3  UNL     1      21.551   9.059  30.758  1.00  0.00     0.184 HD
BRANCH  13  15
HETATM   15  C3  UNL     1      20.706   9.240  32.642  1.00  0.00     0.060 A 
HETATM   16  C4  UNL     1      20.492   7.937  33.049  1.00  0.00     0.031 A 
HETATM   17  C5  UNL     1      19.568   7.613  34.023  1.00  0.00     0.003 A 
HETATM   18  C6  UNL     1      18.810   8.587  34.636  1.00  0.00     0.012 A 
HETATM   19  C7  UNL     1      19.010   9.897  34.244  1.00  0.00    -0.024 A 
HETATM   20  C8  UNL     1      18.255  10.877  34.856  1.00  0.00     0.012 A 
HETATM   21  C12 UNL     1      19.945  10.213  33.260  1.00  0.00     0.001 A 
HETATM   22  C9  UNL     1      18.449  12.188  34.468  1.00  0.00     0.001 A 
HETATM   23  C10 UNL     1      19.375  12.499  33.494  1.00  0.00     0.001 A 
HETATM   24  C11 UNL     1      20.143  11.529  32.868  1.00  0.00     0.014 A 
ENDBRANCH  13  15
ENDBRANCH   4  13
BRANCH   1  25
HETATM   25  N1  UNL     1      25.360  10.741  33.954  1.00  0.00    -0.384 N 
ATOM     26  H12 UNL     1      25.232   9.909  34.530  1.00  0.00     0.157 HD
ATOM     27  H11 UNL     1      26.129  11.373  34.178  1.00  0.00     0.157 HD
ENDBRANCH   1  25
TORSDOF 3
ENDMDL
MODEL 5
REMARK VINA RESULT: -8.149358542      1.683      6.638
REMARK  3 active torsions:
REMARK  status: ('A' for Active; 'I' for Inactive)
REMARK    1  A    between atoms: N1_1  and  C1_4 
REMARK    2  A    between atoms: C2_7  and  N3_8 
REMARK    3  A    between atoms: N3_8  and  C3_10 
ROOT
HETATM    1  C1  UNL     1      19.845  11.740  33.438  1.00  0.00     0.127 A 
HETATM    2  N2  UNL     1      21.058  12.284  33.546  1.00  0.00    -0.176 N 
ATOM      3  H2  UNL     1      21.130  13.301  33.504  1.00  0.00     0.186 HD
HETATM    4  C2  UNL     1      22.195  11.581  33.706  1.00  0.00     0.684 A 
HETATM    5  N4  UNL     1      22.090  10.251  33.760  1.00  0.00    -0.191 N 
ATOM      6  H4  UNL     1      22.932   9.688  33.881  1.00  0.00     0.184 HD
HETATM    7  C13 UNL     1      20.892   9.639  33.658  1.00  0.00     0.063 A 
HETATM    8  C14 UNL     1      20.766   8.263  33.713  1.00  0.00     0.031 A 
HETATM    9  C15 UNL     1      19.532   7.661  33.606  1.00  0.00     0.002 A 
HETATM   10  C16 UNL     1      18.381   8.419  33.440  1.00  0.00     0.001 A 
HETATM   11  C17 UNL     1      18.496   9.782  33.385  1.00  0.00     0.017 A 
HETATM   12  C18 UNL     1      19.734  10.362  33.494  1.00  0.00     0.035 A 
ENDROOT
BRANCH   4  13
HETATM   13  N3  UNL     1      23.279  12.235  33.794  1.00  0.00    -0.191 N 
ATOM     14  H3  UNL     1      23.614  12.440  34.735  1.00  0.00     0.184 HD
BRANCH  13  15
HETATM   15  C3  UNL     1      24.064  12.704  32.729  1.00  0.00     0.060 A 
HETATM   16  C4  UNL     1      24.182  14.056  32.471  1.00  0.00     0.031 A 
HETATM   17  C5  UNL     1      24.948  14.543  31.430  1.00  0.00     0.003 A 
HETATM   18  C6  UNL     1      25.635  13.690  30.594  1.00  0.00     0.012 A 
HETATM   19  C7  UNL     1      25.531  12.333  30.835  1.00  0.00    -0.024 A 
HETATM   20  C8  UNL     1      26.217  11.473  30.002  1.00  0.00     0.012 A 
HETATM   21  C12 UNL     1      24.755  11.853  31.889  1.00  0.00     0.001 A 
HETATM   22  C9  UNL     1      26.117  10.117  30.237  1.00  0.00     0.001 A 
HETATM   23  C10 UNL     1      25.348   9.643  31.281  1.00  0.00     0.001 A 
HETATM   24  C11 UNL     1      24.652  10.490  32.129  1.00  0.00     0.014 A 
ENDBRANCH  13  15
ENDBRANCH   4  13
BRANCH   1  25
HETATM   25  N1  UNL     1      18.784  12.428  33.286  1.00  0.00    -0.384 N 
ATOM     26  H12 UNL     1      18.816  13.423  33.506  1.00  0.00     0.157 HD
ATOM     27  H11 UNL     1      17.905  12.031  32.955  1.00  0.00     0.157 HD
ENDBRANCH   1  25
TORSDOF 3
ENDMDL
