MODEL 1
REMARK VINA RESULT: -4.268491448      0.000      0.000
REMARK  0 active torsions:
REMARK  status: ('A' for Active; 'I' for Inactive)
ROOT
HETATM    1  C1  UNL     1      26.746   6.879   4.522  1.00  0.00     0.035 C 
HETATM    2  C2  UNL     1      26.389   6.463   5.961  1.00  0.00     0.035 C 
HETATM    3  C3  UNL     1      25.625   5.203   5.633  1.00  0.00     0.188 C 
HETATM    4  C4  UNL     1      26.549   4.517   4.677  1.00  0.00     0.066 C 
HETATM    5  C5  UNL     1      26.147   5.692   3.808  1.00  0.00     0.188 C 
HETATM    6  N1  UNL     1      24.842   5.605   4.456  1.00  0.00    -0.067 N 
ATOM      7  H11 UNL     1      24.183   6.383   4.472  1.00  0.00     0.278 HD
ATOM      8  H12 UNL     1      24.079   5.040   4.083  1.00  0.00     0.278 HD
ENDROOT
TORSDOF 0
ENDMDL
MODEL 2
REMARK VINA RESULT: -4.137239236      0.646      1.092
REMARK  0 active torsions:
REMARK  status: ('A' for Active; 'I' for Inactive)
ROOT
HETATM    1  C1  UNL     1      26.355   6.760   5.777  1.00  0.00     0.035 C 
HETATM    2  C2  UNL     1      26.289   5.258   6.110  1.00  0.00     0.035 C 
HETATM    3  C3  UNL     1      25.848   4.760   4.755  1.00  0.00     0.188 C 
HETATM    4  C4  UNL     1      26.801   5.461   3.839  1.00  0.00     0.066 C 
HETATM    5  C5  UNL     1      26.007   6.662   4.311  1.00  0.00     0.188 C 
HETATM    6  N1  UNL     1      24.855   5.768   4.356  1.00  0.00    -0.067 N 
ATOM      7  H11 UNL     1      24.022   5.970   4.909  1.00  0.00     0.278 HD
ATOM      8  H12 UNL     1      24.228   5.638   3.562  1.00  0.00     0.278 HD
ENDROOT
TORSDOF 0
ENDMDL
MODEL 3
REMARK VINA RESULT: -4.131629116      1.038      1.859
REMARK  0 active torsions:
REMARK  status: ('A' for Active; 'I' for Inactive)
ROOT
HETATM    1  C1  UNL     1      26.434   6.596   5.996  1.00  0.00     0.035 C 
HETATM    2  C2  UNL     1      26.982   6.880   4.585  1.00  0.00     0.035 C 
HETATM    3  C3  UNL     1      26.402   5.675   3.886  1.00  0.00     0.188 C 
HETATM    4  C4  UNL     1      24.978   5.702   4.346  1.00  0.00     0.066 C 
HETATM    5  C5  UNL     1      25.641   5.356   5.664  1.00  0.00     0.188 C 
HETATM    6  N1  UNL     1      26.611   4.606   4.874  1.00  0.00    -0.067 N 
ATOM      7  H11 UNL     1      27.534   4.356   5.227  1.00  0.00     0.278 HD
ATOM      8  H12 UNL     1      26.492   3.618   4.649  1.00  0.00     0.278 HD
ENDROOT
TORSDOF 0
ENDMDL
MODEL 4
REMARK VINA RESULT: -4.076427159      1.144      1.864
REMARK  0 active torsions:
REMARK  status: ('A' for Active; 'I' for Inactive)
ROOT
HETATM    1  C1  UNL     1      26.260   5.225   6.129  1.00  0.00     0.035 C 
HETATM    2  C2  UNL     1      26.432   6.735   5.882  1.00  0.00     0.035 C 
HETATM    3  C3  UNL     1      26.234   6.727   4.385  1.00  0.00     0.188 C 
HETATM    4  C4  UNL     1      24.993   5.903   4.238  1.00  0.00     0.066 C 
HETATM    5  C5  UNL     1      25.938   4.817   4.713  1.00  0.00     0.188 C 
HETATM    6  N1  UNL     1      26.977   5.527   3.974  1.00  0.00    -0.067 N 
ATOM      7  H11 UNL     1      27.971   5.403   4.165  1.00  0.00     0.278 HD
ATOM      8  H12 UNL     1      27.196   5.323   2.999  1.00  0.00     0.278 HD
ENDROOT
TORSDOF 0
ENDMDL
MODEL 5
REMARK VINA RESULT: -3.976400697      0.698      1.371
REMARK  0 active torsions:
REMARK  status: ('A' for Active; 'I' for Inactive)
ROOT
HETATM    1  C1  UNL     1      26.934   5.457   3.428  1.00  0.00     0.035 C 
HETATM    2  C2  UNL     1      26.834   6.807   4.161  1.00  0.00     0.035 C 
HETATM    3  C3  UNL     1      25.802   6.413   5.190  1.00  0.00     0.188 C 
HETATM    4  C4  UNL     1      26.353   5.122   5.707  1.00  0.00     0.066 C 
HETATM    5  C5  UNL     1      25.988   4.674   4.306  1.00  0.00     0.188 C 
HETATM    6  N1  UNL     1      24.865   5.600   4.403  1.00  0.00    -0.067 N 
ATOM      7  H11 UNL     1      24.376   5.961   3.583  1.00  0.00     0.278 HD
ATOM      8  H12 UNL     1      23.949   5.320   4.755  1.00  0.00     0.278 HD
ENDROOT
TORSDOF 0
ENDMDL
