MODEL 1
REMARK VINA RESULT: -5.415515499      0.000      0.000
REMARK  0 active torsions:
REMARK  status: ('A' for Active; 'I' for Inactive)
ROOT
HETATM    1  C1  UNL     1      27.099   5.377   3.091  1.00  0.00     0.004 C 
HETATM    2  C2  UNL     1      27.206   6.759   3.594  1.00  0.00     0.025 C 
HETATM    3  C3  UNL     1      26.129   7.119   4.623  1.00  0.00     0.077 C 
HETATM    4  C4  UNL     1      26.657   6.612   5.974  1.00  0.00     0.027 C 
HETATM    5  C5  UNL     1      25.944   5.268   6.181  1.00  0.00     0.027 C 
HETATM    6  C6  UNL     1      25.294   5.036   4.806  1.00  0.00     0.077 C 
HETATM    7  C7  UNL     1      26.318   4.416   3.892  1.00  0.00     0.025 C 
HETATM    8  N1  UNL     1      25.022   6.331   4.395  1.00  0.00    -0.413 N 
ATOM      9  H1  UNL     1      24.143   6.650   3.988  1.00  0.00     0.154 HD
ENDROOT
TORSDOF 0
ENDMDL
MODEL 2
REMARK VINA RESULT: -5.079804871      0.535      2.765
REMARK  0 active torsions:
REMARK  status: ('A' for Active; 'I' for Inactive)
ROOT
HETATM    1  C1  UNL     1      26.458   6.655   6.237  1.00  0.00     0.004 C 
HETATM    2  C2  UNL     1      25.820   5.325   6.236  1.00  0.00     0.025 C 
HETATM    3  C3  UNL     1      25.239   4.928   4.875  1.00  0.00     0.077 C 
HETATM    4  C4  UNL     1      26.412   4.339   4.077  1.00  0.00     0.027 C 
HETATM    5  C5  UNL     1      26.877   5.491   3.176  1.00  0.00     0.027 C 
HETATM    6  C6  UNL     1      26.091   6.682   3.750  1.00  0.00     0.077 C 
HETATM    7  C7  UNL     1      26.846   7.227   4.934  1.00  0.00     0.025 C 
HETATM    8  N1  UNL     1      24.922   6.075   4.180  1.00  0.00    -0.413 N 
ATOM      9  H1  UNL     1      23.978   6.421   4.010  1.00  0.00     0.154 HD
ENDROOT
TORSDOF 0
ENDMDL
MODEL 3
REMARK VINA RESULT: -4.956292121      0.849      1.996
REMARK  0 active torsions:
REMARK  status: ('A' for Active; 'I' for Inactive)
ROOT
HETATM    1  C1  UNL     1      27.171   7.509   4.715  1.00  0.00     0.004 C 
HETATM    2  C2  UNL     1      26.434   7.172   5.946  1.00  0.00     0.025 C 
HETATM    3  C3  UNL     1      25.367   6.091   5.742  1.00  0.00     0.077 C 
HETATM    4  C4  UNL     1      26.108   4.749   5.846  1.00  0.00     0.027 C 
HETATM    5  C5  UNL     1      26.345   4.330   4.388  1.00  0.00     0.027 C 
HETATM    6  C6  UNL     1      25.949   5.604   3.622  1.00  0.00     0.077 C 
HETATM    7  C7  UNL     1      27.131   6.538   3.605  1.00  0.00     0.025 C 
HETATM    8  N1  UNL     1      24.951   6.127   4.429  1.00  0.00    -0.413 N 
ATOM      9  H1  UNL     1      24.052   6.481   4.103  1.00  0.00     0.154 HD
ENDROOT
TORSDOF 0
ENDMDL
MODEL 4
REMARK VINA RESULT: -4.926272934      0.649      2.746
REMARK  0 active torsions:
REMARK  status: ('A' for Active; 'I' for Inactive)
ROOT
HETATM    1  C1  UNL     1      26.124   5.445   6.225  1.00  0.00     0.004 C 
HETATM    2  C2  UNL     1      25.897   4.670   4.992  1.00  0.00     0.025 C 
HETATM    3  C3  UNL     1      25.747   5.542   3.742  1.00  0.00     0.077 C 
HETATM    4  C4  UNL     1      27.178   5.836   3.264  1.00  0.00     0.027 C 
HETATM    5  C5  UNL     1      27.480   7.239   3.809  1.00  0.00     0.027 C 
HETATM    6  C6  UNL     1      26.291   7.477   4.756  1.00  0.00     0.077 C 
HETATM    7  C7  UNL     1      26.600   6.834   6.082  1.00  0.00     0.025 C 
HETATM    8  N1  UNL     1      25.275   6.779   4.122  1.00  0.00    -0.413 N 
ATOM      9  H1  UNL     1      24.329   7.126   3.963  1.00  0.00     0.154 HD
ENDROOT
TORSDOF 0
ENDMDL
MODEL 5
REMARK VINA RESULT: -4.163743368      1.149      1.905
REMARK  0 active torsions:
REMARK  status: ('A' for Active; 'I' for Inactive)
ROOT
HETATM    1  C1  UNL     1      28.146   7.805   4.138  1.00  0.00     0.004 C 
HETATM    2  C2  UNL     1      27.558   8.047   5.468  1.00  0.00     0.025 C 
HETATM    3  C3  UNL     1      26.181   7.401   5.652  1.00  0.00     0.077 C 
HETATM    4  C4  UNL     1      26.455   5.946   6.064  1.00  0.00     0.027 C 
HETATM    5  C5  UNL     1      26.294   5.146   4.764  1.00  0.00     0.027 C 
HETATM    6  C6  UNL     1      26.208   6.263   3.710  1.00  0.00     0.077 C 
HETATM    7  C7  UNL     1      27.607   6.684   3.345  1.00  0.00     0.025 C 
HETATM    8  N1  UNL     1      25.583   7.278   4.417  1.00  0.00    -0.413 N 
ATOM      9  H1  UNL     1      24.806   7.844   4.078  1.00  0.00     0.154 HD
ENDROOT
TORSDOF 0
ENDMDL
