MODEL 1
REMARK VINA RESULT: -6.648959764      0.000      0.000
REMARK  1 active torsions:
REMARK  status: ('A' for Active; 'I' for Inactive)
REMARK    1  A    between atoms: N1_1  and  C1_5 
ROOT
HETATM    1  C1  UNL     1      27.380   7.895   4.131  1.00  0.00     0.250 C 
HETATM    2  C2  UNL     1      26.394   7.723   5.276  1.00  0.00     0.005 C 
HETATM    3  C3  UNL     1      26.367   6.578   6.137  1.00  0.00    -0.028 C 
HETATM    4  C4  UNL     1      25.500   5.348   5.847  1.00  0.00     0.038 C 
HETATM    5  C5  UNL     1      25.881   4.696   4.473  1.00  0.00     0.086 C 
HETATM    6  C6  UNL     1      26.592   5.680   3.762  1.00  0.00    -0.144 C 
HETATM    7  C7  UNL     1      27.297   6.705   3.111  1.00  0.00     0.270 C 
HETATM    8  F1  UNL     1      28.641   6.458   2.764  1.00  0.00    -0.234 F 
ENDROOT
BRANCH   1   9
HETATM    9  N1  UNL     1      28.707   8.091   4.595  1.00  0.00    -0.068 N 
ATOM     10  H13 UNL     1      28.726   8.267   5.600  1.00  0.00     0.275 HD
ATOM     11  H12 UNL     1      29.239   7.221   4.573  1.00  0.00     0.275 HD
ATOM     12  H11 UNL     1      29.187   8.831   4.082  1.00  0.00     0.275 HD
ENDBRANCH   1   9
TORSDOF 1
ENDMDL
MODEL 2
REMARK VINA RESULT: -6.273040377      0.952      1.020
REMARK  1 active torsions:
REMARK  status: ('A' for Active; 'I' for Inactive)
REMARK    1  A    between atoms: N1_1  and  C1_5 
ROOT
HETATM    1  C1  UNL     1      27.351   7.222   3.215  1.00  0.00     0.250 C 
HETATM    2  C2  UNL     1      26.646   7.718   4.467  1.00  0.00     0.005 C 
HETATM    3  C3  UNL     1      26.705   7.047   5.732  1.00  0.00    -0.028 C 
HETATM    4  C4  UNL     1      25.675   5.995   6.156  1.00  0.00     0.038 C 
HETATM    5  C5  UNL     1      25.660   4.783   5.161  1.00  0.00     0.086 C 
HETATM    6  C6  UNL     1      26.280   5.241   3.984  1.00  0.00    -0.144 C 
HETATM    7  C7  UNL     1      26.914   5.761   2.845  1.00  0.00     0.270 C 
HETATM    8  F1  UNL     1      28.109   5.144   2.420  1.00  0.00    -0.234 F 
ENDROOT
BRANCH   1   9
HETATM    9  N1  UNL     1      28.762   7.333   3.318  1.00  0.00    -0.068 N 
ATOM     10  H13 UNL     1      29.231   6.591   2.798  1.00  0.00     0.275 HD
ATOM     11  H12 UNL     1      29.109   8.139   2.797  1.00  0.00     0.275 HD
ATOM     12  H11 UNL     1      29.076   7.358   4.288  1.00  0.00     0.275 HD
ENDBRANCH   1   9
TORSDOF 1
ENDMDL
MODEL 3
REMARK VINA RESULT: -5.888820108      2.192      3.377
REMARK  1 active torsions:
REMARK  status: ('A' for Active; 'I' for Inactive)
REMARK    1  A    between atoms: N1_1  and  C1_5 
ROOT
HETATM    1  C1  UNL     1      25.471   6.006   5.252  1.00  0.00     0.250 C 
HETATM    2  C2  UNL     1      25.507   5.258   3.929  1.00  0.00     0.005 C 
HETATM    3  C3  UNL     1      26.711   4.774   3.321  1.00  0.00    -0.028 C 
HETATM    4  C4  UNL     1      27.519   5.604   2.318  1.00  0.00     0.038 C 
HETATM    5  C5  UNL     1      28.011   6.947   2.959  1.00  0.00     0.086 C 
HETATM    6  C6  UNL     1      27.206   7.152   4.094  1.00  0.00    -0.144 C 
HETATM    7  C7  UNL     1      26.372   7.291   5.215  1.00  0.00     0.270 C 
HETATM    8  F1  UNL     1      26.981   7.317   6.487  1.00  0.00    -0.234 F 
ENDROOT
BRANCH   1   9
HETATM    9  N1  UNL     1      25.803   5.169   6.348  1.00  0.00    -0.068 N 
ATOM     10  H13 UNL     1      25.184   5.334   7.142  1.00  0.00     0.275 HD
ATOM     11  H12 UNL     1      25.563   4.195   6.156  1.00  0.00     0.275 HD
ATOM     12  H11 UNL     1      26.782   5.261   6.619  1.00  0.00     0.275 HD
ENDBRANCH   1   9
TORSDOF 1
ENDMDL
MODEL 4
REMARK VINA RESULT: -5.773354095      1.642      2.590
REMARK  1 active torsions:
REMARK  status: ('A' for Active; 'I' for Inactive)
REMARK    1  A    between atoms: N1_1  and  C1_5 
ROOT
HETATM    1  C1  UNL     1      26.135   7.242   4.992  1.00  0.00     0.250 C 
HETATM    2  C2  UNL     1      25.511   6.019   4.339  1.00  0.00     0.005 C 
HETATM    3  C3  UNL     1      26.250   4.845   3.980  1.00  0.00    -0.028 C 
HETATM    4  C4  UNL     1      26.883   4.659   2.597  1.00  0.00     0.038 C 
HETATM    5  C5  UNL     1      27.927   5.789   2.296  1.00  0.00     0.086 C 
HETATM    6  C6  UNL     1      27.641   6.832   3.196  1.00  0.00    -0.144 C 
HETATM    7  C7  UNL     1      27.304   7.829   4.125  1.00  0.00     0.270 C 
HETATM    8  F1  UNL     1      28.281   8.198   5.073  1.00  0.00    -0.234 F 
ENDROOT
BRANCH   1   9
HETATM    9  N1  UNL     1      26.553   6.981   6.323  1.00  0.00    -0.068 N 
ATOM     10  H13 UNL     1      27.042   6.089   6.389  1.00  0.00     0.275 HD
ATOM     11  H12 UNL     1      27.314   7.603   6.600  1.00  0.00     0.275 HD
ATOM     12  H11 UNL     1      25.779   7.028   6.985  1.00  0.00     0.275 HD
ENDBRANCH   1   9
TORSDOF 1
ENDMDL
MODEL 5
REMARK VINA RESULT: -5.703294119      1.548      2.369
REMARK  1 active torsions:
REMARK  status: ('A' for Active; 'I' for Inactive)
REMARK    1  A    between atoms: N1_1  and  C1_5 
ROOT
HETATM    1  C1  UNL     1      28.120   7.070   3.255  1.00  0.00     0.250 C 
HETATM    2  C2  UNL     1      27.299   5.790   3.247  1.00  0.00     0.005 C 
HETATM    3  C3  UNL     1      25.911   5.734   3.599  1.00  0.00    -0.028 C 
HETATM    4  C4  UNL     1      25.433   5.458   5.028  1.00  0.00     0.038 C 
HETATM    5  C5  UNL     1      25.963   6.547   6.023  1.00  0.00     0.086 C 
HETATM    6  C6  UNL     1      27.039   7.177   5.372  1.00  0.00    -0.144 C 
HETATM    7  C7  UNL     1      28.098   7.764   4.662  1.00  0.00     0.270 C 
HETATM    8  F1  UNL     1      28.004   9.139   4.363  1.00  0.00    -0.234 F 
ENDROOT
BRANCH   1   9
HETATM    9  N1  UNL     1      27.724   7.965   2.226  1.00  0.00    -0.068 N 
ATOM     10  H13 UNL     1      28.133   7.702   1.330  1.00  0.00     0.275 HD
ATOM     11  H12 UNL     1      26.737   7.848   1.994  1.00  0.00     0.275 HD
ATOM     12  H11 UNL     1      27.936   8.935   2.459  1.00  0.00     0.275 HD
ENDBRANCH   1   9
TORSDOF 1
ENDMDL
