MODEL 1
REMARK VINA RESULT: -4.630272824      0.000      0.000
REMARK  0 active torsions:
REMARK  status: ('A' for Active; 'I' for Inactive)
ROOT
HETATM    1  C1  UNL     1      25.802   5.405   6.200  1.00  0.00     0.005 C 
HETATM    2  C2  UNL     1      26.638   6.624   5.941  1.00  0.00     0.005 C 
HETATM    3  C3  UNL     1      26.178   6.539   4.486  1.00  0.00    -0.010 A 
HETATM    4  C4  UNL     1      26.576   5.334   3.718  1.00  0.00     0.010 A 
HETATM    5  C5  UNL     1      25.544   5.212   4.748  1.00  0.00    -0.010 A 
ENDROOT
TORSDOF 0
ENDMDL
MODEL 2
REMARK VINA RESULT: -4.579655475      0.648      1.851
REMARK  0 active torsions:
REMARK  status: ('A' for Active; 'I' for Inactive)
ROOT
HETATM    1  C1  UNL     1      25.707   5.351   4.708  1.00  0.00     0.005 C 
HETATM    2  C2  UNL     1      25.984   5.232   6.177  1.00  0.00     0.005 C 
HETATM    3  C3  UNL     1      26.300   6.728   6.164  1.00  0.00    -0.010 A 
HETATM    4  C4  UNL     1      27.455   7.168   5.345  1.00  0.00     0.010 A 
HETATM    5  C5  UNL     1      26.228   6.744   4.671  1.00  0.00    -0.010 A 
ENDROOT
TORSDOF 0
ENDMDL
MODEL 3
REMARK VINA RESULT: -4.496451901      0.643      2.327
REMARK  0 active torsions:
REMARK  status: ('A' for Active; 'I' for Inactive)
ROOT
HETATM    1  C1  UNL     1      26.928   5.981   3.709  1.00  0.00     0.005 C 
HETATM    2  C2  UNL     1      26.248   4.670   3.973  1.00  0.00     0.005 C 
HETATM    3  C3  UNL     1      25.456   5.385   5.068  1.00  0.00    -0.010 A 
HETATM    4  C4  UNL     1      26.225   5.930   6.212  1.00  0.00     0.010 A 
HETATM    5  C5  UNL     1      26.314   6.599   4.915  1.00  0.00    -0.010 A 
ENDROOT
TORSDOF 0
ENDMDL
MODEL 4
REMARK VINA RESULT: -4.480238260      0.750      1.565
REMARK  0 active torsions:
REMARK  status: ('A' for Active; 'I' for Inactive)
ROOT
HETATM    1  C1  UNL     1      26.822   7.058   5.325  1.00  0.00     0.005 C 
HETATM    2  C2  UNL     1      26.168   6.335   6.465  1.00  0.00     0.005 C 
HETATM    3  C3  UNL     1      25.954   5.166   5.504  1.00  0.00    -0.010 A 
HETATM    4  C4  UNL     1      25.077   5.405   4.332  1.00  0.00     0.010 A 
HETATM    5  C5  UNL     1      26.410   6.007   4.356  1.00  0.00    -0.010 A 
ENDROOT
TORSDOF 0
ENDMDL
MODEL 5
REMARK VINA RESULT: -4.395833412      0.916      1.880
REMARK  0 active torsions:
REMARK  status: ('A' for Active; 'I' for Inactive)
ROOT
HETATM    1  C1  UNL     1      27.128   7.192   5.636  1.00  0.00     0.005 C 
HETATM    2  C2  UNL     1      26.829   6.703   4.249  1.00  0.00     0.005 C 
HETATM    3  C3  UNL     1      25.645   5.946   4.851  1.00  0.00    -0.010 A 
HETATM    4  C4  UNL     1      25.953   4.880   5.835  1.00  0.00     0.010 A 
HETATM    5  C5  UNL     1      26.114   6.279   6.230  1.00  0.00    -0.010 A 
ENDROOT
TORSDOF 0
ENDMDL
