MODEL 1
REMARK VINA RESULT: -12.124318250      0.000      0.000
REMARK  2 active torsions:
REMARK  status: ('A' for Active; 'I' for Inactive)
REMARK    1  A    between atoms: C4_4  and  N1_5 
REMARK       I    between atoms: N1_5  and  C5_7 
REMARK    2  A    between atoms: C5_7  and  C6_9 
ROOT
HETATM    1  C1  UNL     1      11.898 -26.105  35.672  1.00  0.00     0.049 C 
HETATM    2  C2  UNL     1      11.144 -25.988  36.980  1.00  0.00    -0.045 A 
HETATM    3  C3  UNL     1      10.250 -27.045  37.226  1.00  0.00     0.056 A 
HETATM    4  C4  UNL     1       9.128 -26.858  37.994  1.00  0.00     0.108 A 
HETATM    5  N2  UNL     1       8.907 -25.649  38.495  1.00  0.00    -0.342 N 
ATOM      6  H2  UNL     1       8.067 -25.509  39.057  1.00  0.00     0.167 HD
HETATM    7  C16 UNL     1       9.702 -24.624  38.310  1.00  0.00     0.045 A 
HETATM    8  C17 UNL     1       9.365 -23.349  38.711  1.00  0.00     0.033 A 
HETATM    9  C18 UNL     1      10.135 -22.270  38.406  1.00  0.00     0.033 A 
HETATM   10  C19 UNL     1      11.305 -22.392  37.693  1.00  0.00     0.047 A 
HETATM   11  N3  UNL     1      12.136 -21.393  37.513  1.00  0.00    -0.352 N 
ATOM     12  H3  UNL     1      11.841 -20.461  37.803  1.00  0.00     0.166 HD
HETATM   13  C20 UNL     1      13.349 -21.531  36.971  1.00  0.00     0.182 A 
HETATM   14  N4  UNL     1      13.760 -22.784  36.589  1.00  0.00    -0.340 N 
ATOM     15  H4  UNL     1      14.685 -22.920  36.183  1.00  0.00     0.167 HD
HETATM   16  C21 UNL     1      12.929 -23.831  36.755  1.00  0.00     0.130 A 
HETATM   17  N5  UNL     1      13.705 -25.038  37.021  1.00  0.00    -0.082 NA
HETATM   18  C22 UNL     1      11.681 -23.700  37.269  1.00  0.00     0.045 A 
HETATM   19  C23 UNL     1      10.891 -24.769  37.538  1.00  0.00     0.013 A 
ENDROOT
BRANCH   4  20
HETATM   20  N1  UNL     1       8.333 -27.814  38.220  1.00  0.00    -0.309 N 
HETATM   21  C5  UNL     1       7.398 -27.665  39.322  1.00  0.00     0.258 C 
HETATM   22  O1  UNL     1       7.826 -28.128  40.386  1.00  0.00    -0.267 OA
ATOM     23  H1  UNL     1       8.347 -28.659  37.649  1.00  0.00     0.170 HD
BRANCH  21  24
HETATM   24  C6  UNL     1       6.141 -27.032  39.085  1.00  0.00     0.043 A 
HETATM   25  C7  UNL     1       5.999 -25.712  39.527  1.00  0.00     0.018 A 
HETATM   26  C8  UNL     1       4.838 -25.015  39.310  1.00  0.00     0.002 A 
HETATM   27  C9  UNL     1       3.788 -25.606  38.650  1.00  0.00     0.012 A 
HETATM   28  C10 UNL     1       3.907 -26.906  38.206  1.00  0.00    -0.025 A 
HETATM   29  C11 UNL     1       2.818 -27.480  37.546  1.00  0.00     0.012 A 
HETATM   30  C15 UNL     1       5.082 -27.607  38.428  1.00  0.00    -0.010 A 
HETATM   31  C12 UNL     1       2.922 -28.782  37.108  1.00  0.00     0.001 A 
HETATM   32  C13 UNL     1       4.072 -29.490  37.318  1.00  0.00     0.001 A 
HETATM   33  C14 UNL     1       5.159 -28.904  37.981  1.00  0.00     0.013 A 
ENDBRANCH  21  24
ENDBRANCH   4  20
TORSDOF 2
ENDMDL
MODEL 2
REMARK VINA RESULT: -11.327960417      1.518      1.925
REMARK  2 active torsions:
REMARK  status: ('A' for Active; 'I' for Inactive)
REMARK    1  A    between atoms: C4_4  and  N1_5 
REMARK       I    between atoms: N1_5  and  C5_7 
REMARK    2  A    between atoms: C5_7  and  C6_9 
ROOT
HETATM    1  C1  UNL     1       9.460 -23.547  34.969  1.00  0.00     0.049 C 
HETATM    2  C2  UNL     1      10.142 -24.696  35.683  1.00  0.00    -0.045 A 
HETATM    3  C3  UNL     1       9.282 -25.753  36.028  1.00  0.00     0.056 A 
HETATM    4  C4  UNL     1       9.545 -26.555  37.111  1.00  0.00     0.108 A 
HETATM    5  N2  UNL     1      10.633 -26.301  37.827  1.00  0.00    -0.342 N 
ATOM      6  H2  UNL     1      10.822 -26.892  38.637  1.00  0.00     0.167 HD
HETATM    7  C16 UNL     1      11.479 -25.339  37.557  1.00  0.00     0.045 A 
HETATM    8  C17 UNL     1      12.512 -25.005  38.407  1.00  0.00     0.033 A 
HETATM    9  C18 UNL     1      13.310 -23.926  38.185  1.00  0.00     0.033 A 
HETATM   10  C19 UNL     1      13.143 -23.115  37.086  1.00  0.00     0.047 A 
HETATM   11  N3  UNL     1      13.986 -22.160  36.772  1.00  0.00    -0.352 N 
ATOM     12  H3  UNL     1      14.722 -21.927  37.438  1.00  0.00     0.166 HD
HETATM   13  C20 UNL     1      13.931 -21.476  35.625  1.00  0.00     0.182 A 
HETATM   14  N4  UNL     1      12.951 -21.790  34.719  1.00  0.00    -0.340 N 
ATOM     15  H4  UNL     1      12.893 -21.291  33.830  1.00  0.00     0.167 HD
HETATM   16  C21 UNL     1      12.065 -22.762  35.012  1.00  0.00     0.130 A 
HETATM   17  N5  UNL     1      11.653 -23.439  33.786  1.00  0.00    -0.082 NA
HETATM   18  C22 UNL     1      12.085 -23.438  36.186  1.00  0.00     0.045 A 
HETATM   19  C23 UNL     1      11.265 -24.490  36.432  1.00  0.00     0.013 A 
ENDROOT
BRANCH   4  20
HETATM   20  N1  UNL     1       8.773 -27.509  37.410  1.00  0.00    -0.309 N 
HETATM   21  C5  UNL     1       8.123 -27.467  38.709  1.00  0.00     0.258 C 
HETATM   22  O1  UNL     1       8.756 -28.062  39.587  1.00  0.00    -0.267 OA
ATOM     23  H1  UNL     1       8.613 -28.282  36.764  1.00  0.00     0.170 HD
BRANCH  21  24
HETATM   24  C6  UNL     1       6.880 -26.778  38.839  1.00  0.00     0.043 A 
HETATM   25  C7  UNL     1       6.906 -25.529  39.469  1.00  0.00     0.018 A 
HETATM   26  C8  UNL     1       5.765 -24.781  39.607  1.00  0.00     0.002 A 
HETATM   27  C9  UNL     1       4.568 -25.250  39.124  1.00  0.00     0.012 A 
HETATM   28  C10 UNL     1       4.519 -26.479  38.499  1.00  0.00    -0.025 A 
HETATM   29  C11 UNL     1       3.284 -26.930  38.027  1.00  0.00     0.012 A 
HETATM   30  C15 UNL     1       5.675 -27.231  38.363  1.00  0.00    -0.010 A 
HETATM   31  C12 UNL     1       3.222 -28.161  37.410  1.00  0.00     0.001 A 
HETATM   32  C13 UNL     1       4.350 -28.917  37.268  1.00  0.00     0.001 A 
HETATM   33  C14 UNL     1       5.585 -28.455  37.745  1.00  0.00     0.013 A 
ENDBRANCH  21  24
ENDBRANCH   4  20
TORSDOF 2
ENDMDL
MODEL 3
REMARK VINA RESULT: -11.070292165      2.560      8.090
REMARK  2 active torsions:
REMARK  status: ('A' for Active; 'I' for Inactive)
REMARK    1  A    between atoms: C4_4  and  N1_5 
REMARK       I    between atoms: N1_5  and  C5_7 
REMARK    2  A    between atoms: C5_7  and  C6_9 
ROOT
HETATM    1  C1  UNL     1       6.693 -28.080  39.509  1.00  0.00     0.049 C 
HETATM    2  C2  UNL     1       7.339 -28.002  38.142  1.00  0.00    -0.045 A 
HETATM    3  C3  UNL     1       8.709 -27.689  38.168  1.00  0.00     0.056 A 
HETATM    4  C4  UNL     1       9.307 -27.038  37.118  1.00  0.00     0.108 A 
HETATM    5  N2  UNL     1       8.553 -26.707  36.077  1.00  0.00    -0.342 N 
ATOM      6  H2  UNL     1       8.996 -26.214  35.302  1.00  0.00     0.167 HD
HETATM    7  C16 UNL     1       7.274 -26.974  35.985  1.00  0.00     0.045 A 
HETATM    8  C17 UNL     1       6.489 -26.481  34.965  1.00  0.00     0.033 A 
HETATM    9  C18 UNL     1       5.140 -26.656  34.942  1.00  0.00     0.033 A 
HETATM   10  C19 UNL     1       4.483 -27.352  35.930  1.00  0.00     0.047 A 
HETATM   11  N3  UNL     1       3.210 -27.660  35.857  1.00  0.00    -0.352 N 
ATOM     12  H3  UNL     1       2.658 -27.257  35.100  1.00  0.00     0.166 HD
HETATM   13  C20 UNL     1       2.597 -28.475  36.721  1.00  0.00     0.182 A 
HETATM   14  N4  UNL     1       3.334 -29.031  37.735  1.00  0.00    -0.340 N 
ATOM     15  H4  UNL     1       2.894 -29.666  38.402  1.00  0.00     0.167 HD
HETATM   16  C21 UNL     1       4.644 -28.732  37.842  1.00  0.00     0.130 A 
HETATM   17  N5  UNL     1       5.366 -29.874  38.396  1.00  0.00    -0.082 NA
HETATM   18  C22 UNL     1       5.270 -27.878  36.997  1.00  0.00     0.045 A 
HETATM   19  C23 UNL     1       6.608 -27.667  37.038  1.00  0.00     0.013 A 
ENDROOT
BRANCH   4  20
HETATM   20  N1  UNL     1      10.541 -26.768  37.143  1.00  0.00    -0.309 N 
HETATM   21  C5  UNL     1      10.983 -25.574  36.443  1.00  0.00     0.258 C 
HETATM   22  O1  UNL     1      11.333 -25.798  35.278  1.00  0.00    -0.267 OA
ATOM     23  H1  UNL     1      11.203 -27.366  37.637  1.00  0.00     0.170 HD
BRANCH  21  24
HETATM   24  C6  UNL     1      10.971 -24.323  37.130  1.00  0.00     0.043 A 
HETATM   25  C7  UNL     1       9.729 -23.846  37.564  1.00  0.00     0.018 A 
HETATM   26  C8  UNL     1       9.628 -22.670  38.263  1.00  0.00     0.002 A 
HETATM   27  C9  UNL     1      10.753 -21.937  38.550  1.00  0.00     0.012 A 
HETATM   28  C10 UNL     1      11.987 -22.388  38.131  1.00  0.00    -0.025 A 
HETATM   29  C11 UNL     1      13.110 -21.613  38.432  1.00  0.00     0.012 A 
HETATM   30  C15 UNL     1      12.085 -23.577  37.425  1.00  0.00    -0.010 A 
HETATM   31  C12 UNL     1      14.347 -22.050  38.009  1.00  0.00     0.001 A 
HETATM   32  C13 UNL     1      14.463 -23.219  37.311  1.00  0.00     0.001 A 
HETATM   33  C14 UNL     1      13.330 -23.989  37.014  1.00  0.00     0.013 A 
ENDBRANCH  21  24
ENDBRANCH   4  20
TORSDOF 2
ENDMDL
MODEL 4
REMARK VINA RESULT: -11.037877482      2.441      8.084
REMARK  2 active torsions:
REMARK  status: ('A' for Active; 'I' for Inactive)
REMARK    1  A    between atoms: C4_4  and  N1_5 
REMARK       I    between atoms: N1_5  and  C5_7 
REMARK    2  A    between atoms: C5_7  and  C6_9 
ROOT
HETATM    1  C1  UNL     1       7.343 -27.759  39.848  1.00  0.00     0.049 C 
HETATM    2  C2  UNL     1       8.011 -27.232  38.596  1.00  0.00    -0.045 A 
HETATM    3  C3  UNL     1       9.373 -26.923  38.756  1.00  0.00     0.056 A 
HETATM    4  C4  UNL     1       9.974 -25.957  37.987  1.00  0.00     0.108 A 
HETATM    5  N2  UNL     1       9.232 -25.319  37.092  1.00  0.00    -0.342 N 
ATOM      6  H2  UNL     1       9.678 -24.594  36.528  1.00  0.00     0.167 HD
HETATM    7  C16 UNL     1       7.961 -25.562  36.887  1.00  0.00     0.045 A 
HETATM    8  C17 UNL     1       7.184 -24.778  36.062  1.00  0.00     0.033 A 
HETATM    9  C18 UNL     1       5.840 -24.957  35.951  1.00  0.00     0.033 A 
HETATM   10  C19 UNL     1       5.181 -25.946  36.643  1.00  0.00     0.047 A 
HETATM   11  N3  UNL     1       3.917 -26.234  36.443  1.00  0.00    -0.352 N 
ATOM     12  H3  UNL     1       3.370 -25.616  35.844  1.00  0.00     0.166 HD
HETATM   13  C20 UNL     1       3.308 -27.294  36.982  1.00  0.00     0.182 A 
HETATM   14  N4  UNL     1       4.039 -28.137  37.780  1.00  0.00    -0.340 N 
ATOM     15  H4  UNL     1       3.602 -28.961  38.195  1.00  0.00     0.167 HD
HETATM   16  C21 UNL     1       5.339 -27.869  38.010  1.00  0.00     0.130 A 
HETATM   17  N5  UNL     1       6.077 -29.116  38.182  1.00  0.00    -0.082 NA
HETATM   18  C22 UNL     1       5.961 -26.777  37.502  1.00  0.00     0.045 A 
HETATM   19  C23 UNL     1       7.293 -26.569  37.642  1.00  0.00     0.013 A 
ENDROOT
BRANCH   4  20
HETATM   20  N1  UNL     1      11.201 -25.690  38.129  1.00  0.00    -0.309 N 
HETATM   21  C5  UNL     1      12.035 -25.705  36.939  1.00  0.00     0.258 C 
HETATM   22  O1  UNL     1      12.574 -26.799  36.740  1.00  0.00    -0.267 OA
ATOM     23  H1  UNL     1      11.592 -25.472  39.045  1.00  0.00     0.170 HD
BRANCH  21  24
HETATM   24  C6  UNL     1      12.144 -24.517  36.154  1.00  0.00     0.043 A 
HETATM   25  C7  UNL     1      11.300 -24.407  35.044  1.00  0.00     0.018 A 
HETATM   26  C8  UNL     1      11.312 -23.286  34.254  1.00  0.00     0.002 A 
HETATM   27  C9  UNL     1      12.160 -22.245  34.543  1.00  0.00     0.012 A 
HETATM   28  C10 UNL     1      13.001 -22.333  35.633  1.00  0.00    -0.025 A 
HETATM   29  C11 UNL     1      13.857 -21.260  35.894  1.00  0.00     0.012 A 
HETATM   30  C15 UNL     1      12.985 -23.468  36.428  1.00  0.00    -0.010 A 
HETATM   31  C12 UNL     1      14.709 -21.342  36.974  1.00  0.00     0.001 A 
HETATM   32  C13 UNL     1      14.708 -22.453  37.769  1.00  0.00     0.001 A 
HETATM   33  C14 UNL     1      13.845 -23.524  37.498  1.00  0.00     0.013 A 
ENDBRANCH  21  24
ENDBRANCH   4  20
TORSDOF 2
ENDMDL
MODEL 5
REMARK VINA RESULT: -11.001837853      1.563      1.648
REMARK  2 active torsions:
REMARK  status: ('A' for Active; 'I' for Inactive)
REMARK    1  A    between atoms: C4_4  and  N1_5 
REMARK       I    between atoms: N1_5  and  C5_7 
REMARK    2  A    between atoms: C5_7  and  C6_9 
ROOT
HETATM    1  C1  UNL     1      12.069 -26.041  36.298  1.00  0.00     0.049 C 
HETATM    2  C2  UNL     1      11.275 -25.575  37.501  1.00  0.00    -0.045 A 
HETATM    3  C3  UNL     1      10.191 -26.405  37.834  1.00  0.00     0.056 A 
HETATM    4  C4  UNL     1       9.080 -25.900  38.463  1.00  0.00     0.108 A 
HETATM    5  N2  UNL     1       9.057 -24.604  38.745  1.00  0.00    -0.342 N 
ATOM      6  H2  UNL     1       8.227 -24.228  39.204  1.00  0.00     0.167 HD
HETATM    7  C16 UNL     1      10.035 -23.777  38.470  1.00  0.00     0.045 A 
HETATM    8  C17 UNL     1       9.916 -22.414  38.634  1.00  0.00     0.033 A 
HETATM    9  C18 UNL     1      10.886 -21.550  38.229  1.00  0.00     0.033 A 
HETATM   10  C19 UNL     1      12.052 -21.991  37.648  1.00  0.00     0.047 A 
HETATM   11  N3  UNL     1      13.061 -21.195  37.385  1.00  0.00    -0.352 N 
ATOM     12  H3  UNL     1      12.926 -20.191  37.496  1.00  0.00     0.166 HD
HETATM   13  C20 UNL     1      14.257 -21.630  36.977  1.00  0.00     0.182 A 
HETATM   14  N4  UNL     1      14.452 -22.980  36.835  1.00  0.00    -0.340 N 
ATOM     15  H4  UNL     1      15.358 -23.341  36.537  1.00  0.00     0.167 HD
HETATM   16  C21 UNL     1      13.435 -23.826  37.093  1.00  0.00     0.130 A 
HETATM   17  N5  UNL     1      13.961 -25.085  37.612  1.00  0.00    -0.082 NA
HETATM   18  C22 UNL     1      12.206 -23.398  37.470  1.00  0.00     0.045 A 
HETATM   19  C23 UNL     1      11.220 -24.253  37.836  1.00  0.00     0.013 A 
ENDROOT
BRANCH   4  20
HETATM   20  N1  UNL     1       8.112 -26.653  38.768  1.00  0.00    -0.309 N 
HETATM   21  C5  UNL     1       6.783 -26.067  38.783  1.00  0.00     0.258 C 
HETATM   22  O1  UNL     1       6.452 -25.645  39.897  1.00  0.00    -0.267 OA
ATOM     23  H1  UNL     1       8.259 -27.636  38.995  1.00  0.00     0.170 HD
BRANCH  21  24
HETATM   24  C6  UNL     1       6.025 -26.036  37.574  1.00  0.00     0.043 A 
HETATM   25  C7  UNL     1       6.254 -24.962  36.707  1.00  0.00     0.018 A 
HETATM   26  C8  UNL     1       5.597 -24.869  35.507  1.00  0.00     0.002 A 
HETATM   27  C9  UNL     1       4.696 -25.836  35.134  1.00  0.00     0.012 A 
HETATM   28  C10 UNL     1       4.455 -26.904  35.974  1.00  0.00    -0.025 A 
HETATM   29  C11 UNL     1       3.526 -27.866  35.569  1.00  0.00     0.012 A 
HETATM   30  C15 UNL     1       5.122 -26.993  37.186  1.00  0.00    -0.010 A 
HETATM   31  C12 UNL     1       3.271 -28.930  36.406  1.00  0.00     0.001 A 
HETATM   32  C13 UNL     1       3.917 -29.035  37.605  1.00  0.00     0.001 A 
HETATM   33  C14 UNL     1       4.847 -28.064  38.002  1.00  0.00     0.013 A 
ENDBRANCH  21  24
ENDBRANCH   4  20
TORSDOF 2
ENDMDL
