MODEL 1
REMARK VINA RESULT: -10.627001506      0.000      0.000
REMARK  2 active torsions:
REMARK  status: ('A' for Active; 'I' for Inactive)
REMARK    1  A    between atoms: C5_9  and  C6_10 
REMARK    2  A    between atoms: C23_29  and  N5_30 
ROOT
HETATM    1  C6  UNL     1       8.312 -26.216  36.343  1.00  0.00     0.004 A 
HETATM    2  C7  UNL     1       9.187 -27.054  35.675  1.00  0.00     0.032 A 
HETATM    3  C8  UNL     1      10.474 -26.749  35.656  1.00  0.00     0.091 A 
HETATM    4  N3  UNL     1      11.065 -25.642  36.250  1.00  0.00    -0.360 N 
HETATM    5  C9  UNL     1      12.452 -25.464  36.084  1.00  0.00     0.155 C 
HETATM    6  C10 UNL     1      10.223 -24.828  36.895  1.00  0.00     0.056 A 
HETATM    7  C11 UNL     1       8.831 -25.109  36.944  1.00  0.00     0.004 A 
HETATM    8  C12 UNL     1       8.016 -24.200  37.575  1.00  0.00     0.015 A 
HETATM    9  C13 UNL     1       8.482 -23.057  38.159  1.00  0.00     0.013 A 
HETATM   10  C14 UNL     1       9.816 -22.789  38.121  1.00  0.00    -0.022 A 
HETATM   11  C15 UNL     1      10.293 -21.637  38.733  1.00  0.00     0.035 A 
HETATM   12  C16 UNL     1      11.630 -21.349  38.731  1.00  0.00     0.045 A 
HETATM   13  C17 UNL     1      12.131 -20.158  39.359  1.00  0.00     0.099 C 
HETATM   14  N4  UNL     1      12.526 -19.189  39.852  1.00  0.00    -0.191 NA
HETATM   15  C18 UNL     1      12.502 -22.201  38.123  1.00  0.00     0.023 A 
HETATM   16  C19 UNL     1      12.042 -23.374  37.496  1.00  0.00     0.016 A 
HETATM   17  C20 UNL     1      10.714 -23.654  37.500  1.00  0.00     0.002 A 
ENDROOT
BRANCH   1  18
HETATM   18  C5  UNL     1       6.899 -26.564  36.343  1.00  0.00     0.044 A 
HETATM   19  N2  UNL     1       6.045 -25.800  35.592  1.00  0.00    -0.363 N 
HETATM   20  C4  UNL     1       4.749 -26.082  35.429  1.00  0.00     0.119 A 
ATOM     21  H2  UNL     1       6.418 -24.971  35.131  1.00  0.00     0.165 HD
HETATM   22  C3  UNL     1       4.248 -27.209  36.056  1.00  0.00     0.063 A 
HETATM   23  N1  UNL     1       2.946 -27.569  35.946  1.00  0.00    -0.344 N 
HETATM   24  C22 UNL     1       5.041 -28.029  36.828  1.00  0.00     0.038 A 
HETATM   25  C2  UNL     1       2.420 -28.641  36.529  1.00  0.00     0.079 A 
ATOM     26  H1  UNL     1       2.333 -26.981  35.380  1.00  0.00     0.167 HD
HETATM   27  C1  UNL     1       0.986 -29.031  36.403  1.00  0.00     0.089 C 
HETATM   28  N6  UNL     1       3.198 -29.436  37.280  1.00  0.00    -0.332 N 
HETATM   29  C23 UNL     1       4.522 -29.138  37.439  1.00  0.00     0.112 A 
ATOM     30  H6  UNL     1       2.802 -30.260  37.731  1.00  0.00     0.168 HD
HETATM   31  C21 UNL     1       6.389 -27.667  36.950  1.00  0.00     0.048 A 
BRANCH  29  32
HETATM   32  N5  UNL     1       5.204 -29.931  38.164  1.00  0.00    -0.385 N 
ATOM     33  H52 UNL     1       6.049 -29.552  38.589  1.00  0.00     0.157 HD
ATOM     34  H51 UNL     1       4.951 -30.904  38.333  1.00  0.00     0.157 HD
ENDBRANCH  29  32
ENDBRANCH   1  18
TORSDOF 2
ENDMDL
MODEL 2
REMARK VINA RESULT: -10.257521341      2.137      9.342
REMARK  2 active torsions:
REMARK  status: ('A' for Active; 'I' for Inactive)
REMARK    1  A    between atoms: C5_9  and  C6_10 
REMARK    2  A    between atoms: C23_29  and  N5_30 
ROOT
HETATM    1  C6  UNL     1      11.912 -22.435  38.274  1.00  0.00     0.004 A 
HETATM    2  C7  UNL     1      13.172 -22.950  38.025  1.00  0.00     0.032 A 
HETATM    3  C8  UNL     1      13.275 -24.102  37.384  1.00  0.00     0.091 A 
HETATM    4  N3  UNL     1      12.223 -24.880  36.917  1.00  0.00    -0.360 N 
HETATM    5  C9  UNL     1      12.533 -26.103  36.292  1.00  0.00     0.155 C 
HETATM    6  C10 UNL     1      11.004 -24.385  37.156  1.00  0.00     0.056 A 
HETATM    7  C11 UNL     1      10.839 -23.154  37.843  1.00  0.00     0.004 A 
HETATM    8  C12 UNL     1       9.557 -22.734  38.105  1.00  0.00     0.015 A 
HETATM    9  C13 UNL     1       8.447 -23.437  37.730  1.00  0.00     0.013 A 
HETATM   10  C14 UNL     1       8.603 -24.614  37.063  1.00  0.00    -0.022 A 
HETATM   11  C15 UNL     1       7.475 -25.319  36.662  1.00  0.00     0.035 A 
HETATM   12  C16 UNL     1       7.597 -26.495  35.974  1.00  0.00     0.045 A 
HETATM   13  C17 UNL     1       6.436 -27.232  35.559  1.00  0.00     0.099 C 
HETATM   14  N4  UNL     1       5.497 -27.828  35.241  1.00  0.00    -0.191 NA
HETATM   15  C18 UNL     1       8.836 -26.977  35.678  1.00  0.00     0.023 A 
HETATM   16  C19 UNL     1       9.992 -26.281  36.074  1.00  0.00     0.016 A 
HETATM   17  C20 UNL     1       9.866 -25.116  36.760  1.00  0.00     0.002 A 
ENDROOT
BRANCH   1  18
HETATM   18  C5  UNL     1      11.821 -21.171  38.991  1.00  0.00     0.044 A 
HETATM   19  N2  UNL     1      12.067 -21.172  40.338  1.00  0.00    -0.363 N 
HETATM   20  C4  UNL     1      12.117 -20.065  41.083  1.00  0.00     0.119 A 
ATOM     21  H2  UNL     1      12.222 -22.069  40.799  1.00  0.00     0.165 HD
HETATM   22  C3  UNL     1      11.906 -18.851  40.452  1.00  0.00     0.063 A 
HETATM   23  N1  UNL     1      11.937 -17.678  41.130  1.00  0.00    -0.344 N 
HETATM   24  C22 UNL     1      11.652 -18.764  39.101  1.00  0.00     0.038 A 
HETATM   25  C2  UNL     1      11.741 -16.490  40.569  1.00  0.00     0.079 A 
ATOM     26  H1  UNL     1      12.123 -17.710  42.133  1.00  0.00     0.167 HD
HETATM   27  C1  UNL     1      11.776 -15.203  41.321  1.00  0.00     0.089 C 
HETATM   28  N6  UNL     1      11.495 -16.412  39.251  1.00  0.00    -0.332 N 
HETATM   29  C23 UNL     1      11.447 -17.552  38.499  1.00  0.00     0.112 A 
ATOM     30  H6  UNL     1      11.343 -15.504  38.813  1.00  0.00     0.168 HD
HETATM   31  C21 UNL     1      11.618 -19.970  38.389  1.00  0.00     0.048 A 
BRANCH  29  32
HETATM   32  N5  UNL     1      11.208 -17.409  37.258  1.00  0.00    -0.385 N 
ATOM     33  H52 UNL     1      10.623 -18.120  36.819  1.00  0.00     0.157 HD
ATOM     34  H51 UNL     1      11.566 -16.637  36.696  1.00  0.00     0.157 HD
ENDBRANCH  29  32
ENDBRANCH   1  18
TORSDOF 2
ENDMDL
MODEL 3
REMARK VINA RESULT: -10.251913909      1.220      2.000
REMARK  2 active torsions:
REMARK  status: ('A' for Active; 'I' for Inactive)
REMARK    1  A    between atoms: C5_9  and  C6_10 
REMARK    2  A    between atoms: C23_29  and  N5_30 
ROOT
HETATM    1  C6  UNL     1       9.385 -26.321  37.276  1.00  0.00     0.004 A 
HETATM    2  C7  UNL     1      10.388 -27.117  36.753  1.00  0.00     0.032 A 
HETATM    3  C8  UNL     1      11.615 -26.629  36.677  1.00  0.00     0.091 A 
HETATM    4  N3  UNL     1      12.022 -25.363  37.076  1.00  0.00    -0.360 N 
HETATM    5  C9  UNL     1      13.370 -25.008  36.876  1.00  0.00     0.155 C 
HETATM    6  C10 UNL     1      11.054 -24.590  37.581  1.00  0.00     0.056 A 
HETATM    7  C11 UNL     1       9.720 -25.065  37.682  1.00  0.00     0.004 A 
HETATM    8  C12 UNL     1       8.766 -24.198  38.157  1.00  0.00     0.015 A 
HETATM    9  C13 UNL     1       9.043 -22.917  38.541  1.00  0.00     0.013 A 
HETATM   10  C14 UNL     1      10.323 -22.462  38.453  1.00  0.00    -0.022 A 
HETATM   11  C15 UNL     1      10.610 -21.165  38.863  1.00  0.00     0.035 A 
HETATM   12  C16 UNL     1      11.889 -20.683  38.806  1.00  0.00     0.045 A 
HETATM   13  C17 UNL     1      12.193 -19.343  39.224  1.00  0.00     0.099 C 
HETATM   14  N4  UNL     1      12.429 -18.259  39.548  1.00  0.00    -0.191 NA
HETATM   15  C18 UNL     1      12.890 -21.483  38.344  1.00  0.00     0.023 A 
HETATM   16  C19 UNL     1      12.624 -22.799  37.923  1.00  0.00     0.016 A 
HETATM   17  C20 UNL     1      11.352 -23.271  37.979  1.00  0.00     0.002 A 
ENDROOT
BRANCH   1  18
HETATM   18  C5  UNL     1       8.039 -26.874  37.340  1.00  0.00     0.044 A 
HETATM   19  N2  UNL     1       7.748 -27.753  38.349  1.00  0.00    -0.363 N 
HETATM   20  C4  UNL     1       6.527 -28.244  38.575  1.00  0.00     0.119 A 
ATOM     21  H2  UNL     1       8.507 -28.049  38.963  1.00  0.00     0.165 HD
HETATM   22  C3  UNL     1       5.502 -27.837  37.739  1.00  0.00     0.063 A 
HETATM   23  N1  UNL     1       4.233 -28.286  37.893  1.00  0.00    -0.344 N 
HETATM   24  C22 UNL     1       5.711 -26.956  36.701  1.00  0.00     0.038 A 
HETATM   25  C2  UNL     1       3.217 -27.925  37.116  1.00  0.00     0.079 A 
ATOM     26  H1  UNL     1       4.045 -28.940  38.653  1.00  0.00     0.167 HD
HETATM   27  C1  UNL     1       1.822 -28.422  37.292  1.00  0.00     0.089 C 
HETATM   28  N6  UNL     1       3.428 -27.065  36.107  1.00  0.00    -0.332 N 
HETATM   29  C23 UNL     1       4.682 -26.569  35.886  1.00  0.00     0.112 A 
ATOM     30  H6  UNL     1       2.654 -26.782  35.506  1.00  0.00     0.168 HD
HETATM   31  C21 UNL     1       7.020 -26.485  36.530  1.00  0.00     0.048 A 
BRANCH  29  32
HETATM   32  N5  UNL     1       4.814 -25.760  34.914  1.00  0.00    -0.385 N 
ATOM     33  H52 UNL     1       5.309 -26.107  34.092  1.00  0.00     0.157 HD
ATOM     34  H51 UNL     1       4.458 -24.804  34.918  1.00  0.00     0.157 HD
ENDBRANCH  29  32
ENDBRANCH   1  18
TORSDOF 2
ENDMDL
MODEL 4
REMARK VINA RESULT: -10.235760066      1.933      9.180
REMARK  2 active torsions:
REMARK  status: ('A' for Active; 'I' for Inactive)
REMARK    1  A    between atoms: C5_9  and  C6_10 
REMARK    2  A    between atoms: C23_29  and  N5_30 
ROOT
HETATM    1  C6  UNL     1      12.112 -22.508  38.013  1.00  0.00     0.004 A 
HETATM    2  C7  UNL     1      13.324 -23.119  37.748  1.00  0.00     0.032 A 
HETATM    3  C8  UNL     1      13.326 -24.356  37.278  1.00  0.00     0.091 A 
HETATM    4  N3  UNL     1      12.208 -25.136  37.014  1.00  0.00    -0.360 N 
HETATM    5  C9  UNL     1      12.414 -26.451  36.554  1.00  0.00     0.155 C 
HETATM    6  C10 UNL     1      11.034 -24.549  37.270  1.00  0.00     0.056 A 
HETATM    7  C11 UNL     1      10.977 -23.224  37.778  1.00  0.00     0.004 A 
HETATM    8  C12 UNL     1       9.740 -22.704  38.073  1.00  0.00     0.015 A 
HETATM    9  C13 UNL     1       8.575 -23.395  37.892  1.00  0.00     0.013 A 
HETATM   10  C14 UNL     1       8.627 -24.662  37.397  1.00  0.00    -0.022 A 
HETATM   11  C15 UNL     1       7.441 -25.358  37.193  1.00  0.00     0.035 A 
HETATM   12  C16 UNL     1       7.457 -26.625  36.680  1.00  0.00     0.045 A 
HETATM   13  C17 UNL     1       6.236 -27.352  36.468  1.00  0.00     0.099 C 
HETATM   14  N4  UNL     1       5.251 -27.938  36.315  1.00  0.00    -0.191 NA
HETATM   15  C18 UNL     1       8.646 -27.210  36.364  1.00  0.00     0.023 A 
HETATM   16  C19 UNL     1       9.859 -26.525  36.562  1.00  0.00     0.016 A 
HETATM   17  C20 UNL     1       9.838 -25.268  37.075  1.00  0.00     0.002 A 
ENDROOT
BRANCH   1  18
HETATM   18  C5  UNL     1      12.132 -21.151  38.540  1.00  0.00     0.044 A 
HETATM   19  N2  UNL     1      11.929 -20.115  37.667  1.00  0.00    -0.363 N 
HETATM   20  C4  UNL     1      11.821 -18.839  38.045  1.00  0.00     0.119 A 
ATOM     21  H2  UNL     1      11.856 -20.330  36.673  1.00  0.00     0.165 HD
HETATM   22  C3  UNL     1      11.920 -18.553  39.396  1.00  0.00     0.063 A 
HETATM   23  N1  UNL     1      11.824 -17.287  39.868  1.00  0.00    -0.344 N 
HETATM   24  C22 UNL     1      12.124 -19.537  40.338  1.00  0.00     0.038 A 
HETATM   25  C2  UNL     1      11.913 -16.964  41.154  1.00  0.00     0.079 A 
ATOM     26  H1  UNL     1      11.674 -16.535  39.195  1.00  0.00     0.167 HD
HETATM   27  C1  UNL     1      11.806 -15.568  41.666  1.00  0.00     0.089 C 
HETATM   28  N6  UNL     1      12.111 -17.928  42.067  1.00  0.00    -0.332 N 
HETATM   29  C23 UNL     1      12.219 -19.231  41.668  1.00  0.00     0.112 A 
ATOM     30  H6  UNL     1      12.180 -17.689  43.056  1.00  0.00     0.168 HD
HETATM   31  C21 UNL     1      12.226 -20.851  39.862  1.00  0.00     0.048 A 
BRANCH  29  32
HETATM   32  N5  UNL     1      12.407 -20.095  42.582  1.00  0.00    -0.385 N 
ATOM     33  H52 UNL     1      11.579 -20.422  43.081  1.00  0.00     0.157 HD
ATOM     34  H51 UNL     1      13.323 -20.467  42.834  1.00  0.00     0.157 HD
ENDBRANCH  29  32
ENDBRANCH   1  18
TORSDOF 2
ENDMDL
MODEL 5
REMARK VINA RESULT: -9.837819062      1.865      8.769
REMARK  2 active torsions:
REMARK  status: ('A' for Active; 'I' for Inactive)
REMARK    1  A    between atoms: C5_9  and  C6_10 
REMARK    2  A    between atoms: C23_29  and  N5_30 
ROOT
HETATM    1  C6  UNL     1       6.743 -25.608  36.546  1.00  0.00     0.004 A 
HETATM    2  C7  UNL     1       5.861 -25.140  35.588  1.00  0.00     0.032 A 
HETATM    3  C8  UNL     1       4.787 -25.858  35.304  1.00  0.00     0.091 A 
HETATM    4  N3  UNL     1       4.434 -27.071  35.879  1.00  0.00    -0.360 N 
HETATM    5  C9  UNL     1       3.268 -27.708  35.414  1.00  0.00     0.155 C 
HETATM    6  C10 UNL     1       5.284 -27.527  36.805  1.00  0.00     0.056 A 
HETATM    7  C11 UNL     1       6.454 -26.797  37.144  1.00  0.00     0.004 A 
HETATM    8  C12 UNL     1       7.312 -27.353  38.062  1.00  0.00     0.015 A 
HETATM    9  C13 UNL     1       7.088 -28.559  38.662  1.00  0.00     0.013 A 
HETATM   10  C14 UNL     1       5.963 -29.258  38.344  1.00  0.00    -0.022 A 
HETATM   11  C15 UNL     1       5.723 -30.475  38.970  1.00  0.00     0.035 A 
HETATM   12  C16 UNL     1       4.594 -31.193  38.688  1.00  0.00     0.045 A 
HETATM   13  C17 UNL     1       4.340 -32.454  39.328  1.00  0.00     0.099 C 
HETATM   14  N4  UNL     1       4.149 -33.475  39.835  1.00  0.00    -0.191 NA
HETATM   15  C18 UNL     1       3.694 -30.707  37.787  1.00  0.00     0.023 A 
HETATM   16  C19 UNL     1       3.916 -29.478  37.141  1.00  0.00     0.016 A 
HETATM   17  C20 UNL     1       5.041 -28.771  37.422  1.00  0.00     0.002 A 
ENDROOT
BRANCH   1  18
HETATM   18  C5  UNL     1       7.925 -24.809  36.835  1.00  0.00     0.044 A 
HETATM   19  N2  UNL     1       7.814 -23.801  37.755  1.00  0.00    -0.363 N 
HETATM   20  C4  UNL     1       8.848 -23.069  38.180  1.00  0.00     0.119 A 
ATOM     21  H2  UNL     1       6.891 -23.596  38.137  1.00  0.00     0.165 HD
HETATM   22  C3  UNL     1      10.098 -23.352  37.659  1.00  0.00     0.063 A 
HETATM   23  N1  UNL     1      11.202 -22.660  38.033  1.00  0.00    -0.344 N 
HETATM   24  C22 UNL     1      10.294 -24.350  36.730  1.00  0.00     0.038 A 
HETATM   25  C2  UNL     1      12.421 -22.894  37.560  1.00  0.00     0.079 A 
ATOM     26  H1  UNL     1      11.089 -21.914  38.719  1.00  0.00     0.167 HD
HETATM   27  C1  UNL     1      13.631 -22.129  37.975  1.00  0.00     0.089 C 
HETATM   28  N6  UNL     1      12.605 -23.869  36.655  1.00  0.00    -0.332 N 
HETATM   29  C23 UNL     1      11.540 -24.610  36.227  1.00  0.00     0.112 A 
ATOM     30  H6  UNL     1      13.538 -24.055  36.287  1.00  0.00     0.168 HD
HETATM   31  C21 UNL     1       9.160 -25.072  36.335  1.00  0.00     0.048 A 
BRANCH  29  32
HETATM   32  N5  UNL     1      11.782 -25.517  35.369  1.00  0.00    -0.385 N 
ATOM     33  H52 UNL     1      10.976 -25.942  34.911  1.00  0.00     0.157 HD
ATOM     34  H51 UNL     1      12.721 -25.832  35.124  1.00  0.00     0.157 HD
ENDBRANCH  29  32
ENDBRANCH   1  18
TORSDOF 2
ENDMDL
