MODEL 1
REMARK VINA RESULT: -8.151395504      0.000      0.000
REMARK  2 active torsions:
REMARK  status: ('A' for Active; 'I' for Inactive)
REMARK    1  A    between atoms: C3_5  and  C4_7 
REMARK    2  A    between atoms: C5_8  and  C6_9 
ROOT
HETATM    1  C1  UNL     1       8.277 -28.401  41.371  1.00  0.00     0.037 C 
HETATM    2  C2  UNL     1       8.085 -28.339  40.200  1.00  0.00     0.000 C 
HETATM    3  N1  UNL     1       7.829 -28.279  38.813  1.00  0.00    -0.303 N 
ATOM      4  H1  UNL     1       8.411 -28.873  38.223  1.00  0.00     0.177 HD
HETATM    5  C3  UNL     1       6.975 -27.584  38.223  1.00  0.00     0.135 C 
HETATM    6  N2  UNL     1       6.342 -26.865  39.393  1.00  0.00    -0.081 NA
ENDROOT
BRANCH   5   7
HETATM    7  C4  UNL     1       6.428 -27.313  36.909  1.00  0.00     0.030 A 
HETATM    8  C5  UNL     1       7.052 -26.278  36.206  1.00  0.00    -0.009 A 
HETATM    9  C14 UNL     1       6.274 -25.617  35.276  1.00  0.00     0.015 A 
HETATM   10  C15 UNL     1       4.982 -25.875  34.988  1.00  0.00     0.033 A 
HETATM   11  C16 UNL     1       4.374 -26.892  35.657  1.00  0.00     0.060 A 
HETATM   12  N5  UNL     1       3.103 -27.216  35.445  1.00  0.00    -0.299 N 
HETATM   13  C23 UNL     1       5.123 -27.624  36.617  1.00  0.00     0.019 A 
HETATM   14  N6  UNL     1       2.450 -28.173  36.023  1.00  0.00    -0.300 N 
ATOM     15  H5  UNL     1       2.592 -26.656  34.763  1.00  0.00     0.187 HD
HETATM   16  C17 UNL     1       3.134 -28.935  36.925  1.00  0.00     0.059 A 
ATOM     17  H6  UNL     1       1.468 -28.350  35.813  1.00  0.00     0.187 HD
HETATM   18  C18 UNL     1       2.544 -30.081  37.390  1.00  0.00     0.032 A 
HETATM   19  C22 UNL     1       4.472 -28.682  37.225  1.00  0.00     0.005 A 
HETATM   20  C19 UNL     1       3.245 -31.002  38.129  1.00  0.00     0.002 A 
HETATM   21  C20 UNL     1       4.571 -30.766  38.397  1.00  0.00     0.001 A 
HETATM   22  C21 UNL     1       5.174 -29.604  37.935  1.00  0.00     0.014 A 
BRANCH   8  23
HETATM   23  C6  UNL     1       8.455 -25.922  36.207  1.00  0.00     0.005 A 
HETATM   24  C7  UNL     1       9.480 -26.536  35.504  1.00  0.00     0.101 A 
HETATM   25  N3  UNL     1      10.576 -25.829  35.641  1.00  0.00    -0.364 N 
HETATM   26  C8  UNL     1      10.341 -24.746  36.418  1.00  0.00     0.046 A 
ATOM     27  H3  UNL     1      11.476 -26.062  35.222  1.00  0.00     0.165 HD
HETATM   28  C9  UNL     1      11.160 -23.729  36.851  1.00  0.00     0.047 A 
HETATM   29  C13 UNL     1       8.982 -24.786  36.796  1.00  0.00     0.025 A 
HETATM   30  C10 UNL     1      10.623 -22.758  37.661  1.00  0.00     0.090 A 
HETATM   31  N4  UNL     1       9.338 -22.785  38.032  1.00  0.00    -0.369 N 
HETATM   32  C11 UNL     1       8.494 -23.767  37.629  1.00  0.00     0.018 A 
ATOM     33  H4  UNL     1       8.982 -22.045  38.637  1.00  0.00     0.165 HD
HETATM   34  C12 UNL     1       7.095 -23.788  38.124  1.00  0.00     0.069 C 
ENDBRANCH   8  23
ENDBRANCH   5   7
TORSDOF 2
ENDMDL
MODEL 2
REMARK VINA RESULT: -7.779733860      1.652      6.968
REMARK  2 active torsions:
REMARK  status: ('A' for Active; 'I' for Inactive)
REMARK    1  A    between atoms: C3_5  and  C4_7 
REMARK    2  A    between atoms: C5_8  and  C6_9 
ROOT
HETATM    1  C1  UNL     1       5.648 -24.600  40.789  1.00  0.00     0.037 C 
HETATM    2  C2  UNL     1       6.518 -25.001  40.086  1.00  0.00     0.000 C 
HETATM    3  N1  UNL     1       7.531 -25.490  39.234  1.00  0.00    -0.303 N 
ATOM      4  H1  UNL     1       8.168 -26.175  39.641  1.00  0.00     0.177 HD
HETATM    5  C3  UNL     1       7.741 -25.185  38.041  1.00  0.00     0.135 C 
HETATM    6  N2  UNL     1       6.634 -24.179  37.811  1.00  0.00    -0.081 NA
ENDROOT
BRANCH   5   7
HETATM    7  C4  UNL     1       8.595 -25.493  36.912  1.00  0.00     0.030 A 
HETATM    8  C5  UNL     1       8.183 -26.578  36.133  1.00  0.00    -0.009 A 
HETATM    9  C14 UNL     1       9.178 -27.251  35.451  1.00  0.00     0.015 A 
HETATM   10  C15 UNL     1      10.494 -26.962  35.469  1.00  0.00     0.033 A 
HETATM   11  C16 UNL     1      10.900 -25.897  36.213  1.00  0.00     0.060 A 
HETATM   12  N5  UNL     1      12.176 -25.539  36.297  1.00  0.00    -0.299 N 
HETATM   13  C23 UNL     1       9.924 -25.151  36.927  1.00  0.00     0.019 A 
HETATM   14  N6  UNL     1      12.648 -24.536  36.965  1.00  0.00    -0.300 N 
ATOM     15  H5  UNL     1      12.850 -26.110  35.785  1.00  0.00     0.187 HD
HETATM   16  C17 UNL     1      11.750 -23.760  37.638  1.00  0.00     0.059 A 
ATOM     17  H6  UNL     1      13.648 -24.335  36.989  1.00  0.00     0.187 HD
HETATM   18  C18 UNL     1      12.183 -22.576  38.173  1.00  0.00     0.032 A 
HETATM   19  C22 UNL     1      10.385 -24.045  37.620  1.00  0.00     0.005 A 
HETATM   20  C19 UNL     1      11.304 -21.648  38.675  1.00  0.00     0.002 A 
HETATM   21  C20 UNL     1       9.958 -21.918  38.628  1.00  0.00     0.001 A 
HETATM   22  C21 UNL     1       9.511 -23.119  38.093  1.00  0.00     0.014 A 
BRANCH   8  23
HETATM   23  C6  UNL     1       6.830 -26.982  35.815  1.00  0.00     0.005 A 
HETATM   24  C7  UNL     1       6.100 -26.659  34.681  1.00  0.00     0.101 A 
HETATM   25  N3  UNL     1       4.980 -27.341  34.685  1.00  0.00    -0.364 N 
HETATM   26  C8  UNL     1       4.912 -28.124  35.787  1.00  0.00     0.046 A 
ATOM     27  H3  UNL     1       4.262 -27.288  33.962  1.00  0.00     0.165 HD
HETATM   28  C9  UNL     1       3.949 -28.998  36.238  1.00  0.00     0.047 A 
HETATM   29  C13 UNL     1       6.092 -27.907  36.531  1.00  0.00     0.025 A 
HETATM   30  C10 UNL     1       4.164 -29.650  37.428  1.00  0.00     0.090 A 
HETATM   31  N4  UNL     1       5.276 -29.451  38.146  1.00  0.00    -0.369 N 
HETATM   32  C11 UNL     1       6.251 -28.601  37.741  1.00  0.00     0.018 A 
ATOM     33  H4  UNL     1       5.392 -29.955  39.025  1.00  0.00     0.165 HD
HETATM   34  C12 UNL     1       7.433 -28.365  38.608  1.00  0.00     0.069 C 
ENDBRANCH   8  23
ENDBRANCH   5   7
TORSDOF 2
ENDMDL
MODEL 3
REMARK VINA RESULT: -7.692414071      1.445      2.147
REMARK  2 active torsions:
REMARK  status: ('A' for Active; 'I' for Inactive)
REMARK    1  A    between atoms: C3_5  and  C4_7 
REMARK    2  A    between atoms: C5_8  and  C6_9 
ROOT
HETATM    1  C1  UNL     1       8.686 -28.433  41.260  1.00  0.00     0.037 C 
HETATM    2  C2  UNL     1       8.650 -28.186  40.099  1.00  0.00     0.000 C 
HETATM    3  N1  UNL     1       8.577 -27.893  38.720  1.00  0.00    -0.303 N 
ATOM      4  H1  UNL     1       8.944 -28.605  38.089  1.00  0.00     0.177 HD
HETATM    5  C3  UNL     1       8.115 -26.865  38.180  1.00  0.00     0.135 C 
HETATM    6  N2  UNL     1       7.689 -26.076  39.398  1.00  0.00    -0.081 NA
ENDROOT
BRANCH   5   7
HETATM    7  C4  UNL     1       7.847 -26.273  36.885  1.00  0.00     0.030 A 
HETATM    8  C5  UNL     1       8.836 -25.407  36.410  1.00  0.00    -0.009 A 
HETATM    9  C14 UNL     1       8.415 -24.423  35.536  1.00  0.00     0.015 A 
HETATM   10  C15 UNL     1       7.154 -24.224  35.104  1.00  0.00     0.033 A 
HETATM   11  C16 UNL     1       6.189 -25.075  35.550  1.00  0.00     0.060 A 
HETATM   12  N5  UNL     1       4.918 -24.954  35.185  1.00  0.00    -0.299 N 
HETATM   13  C23 UNL     1       6.557 -26.119  36.440  1.00  0.00     0.019 A 
HETATM   14  N6  UNL     1       3.941 -25.723  35.546  1.00  0.00    -0.300 N 
ATOM     15  H5  UNL     1       4.689 -24.181  34.560  1.00  0.00     0.187 HD
HETATM   16  C17 UNL     1       4.245 -26.768  36.369  1.00  0.00     0.059 A 
ATOM     17  H6  UNL     1       2.986 -25.555  35.230  1.00  0.00     0.187 HD
HETATM   18  C18 UNL     1       3.286 -27.720  36.596  1.00  0.00     0.032 A 
HETATM   19  C22 UNL     1       5.548 -26.988  36.816  1.00  0.00     0.005 A 
HETATM   20  C19 UNL     1       3.580 -28.900  37.234  1.00  0.00     0.002 A 
HETATM   21  C20 UNL     1       4.870 -29.127  37.646  1.00  0.00     0.001 A 
HETATM   22  C21 UNL     1       5.846 -28.165  37.426  1.00  0.00     0.014 A 
BRANCH   8  23
HETATM   23  C6  UNL     1      10.268 -25.511  36.585  1.00  0.00     0.005 A 
HETATM   24  C7  UNL     1      11.110 -26.485  36.068  1.00  0.00     0.101 A 
HETATM   25  N3  UNL     1      12.354 -26.148  36.313  1.00  0.00    -0.364 N 
HETATM   26  C8  UNL     1      12.398 -24.974  36.984  1.00  0.00     0.046 A 
ATOM     27  H3  UNL     1      13.170 -26.694  36.038  1.00  0.00     0.165 HD
HETATM   28  C9  UNL     1      13.449 -24.228  37.465  1.00  0.00     0.047 A 
HETATM   29  C13 UNL     1      11.066 -24.546  37.172  1.00  0.00     0.025 A 
HETATM   30  C10 UNL     1      13.170 -23.061  38.134  1.00  0.00     0.090 A 
HETATM   31  N4  UNL     1      11.913 -22.645  38.324  1.00  0.00    -0.369 N 
HETATM   32  C11 UNL     1      10.846 -23.346  37.867  1.00  0.00     0.018 A 
ATOM     33  H4  UNL     1      11.751 -21.773  38.829  1.00  0.00     0.165 HD
HETATM   34  C12 UNL     1       9.470 -22.876  38.164  1.00  0.00     0.069 C 
ENDBRANCH   8  23
ENDBRANCH   5   7
TORSDOF 2
ENDMDL
MODEL 4
REMARK VINA RESULT: -6.943843430      2.486      6.748
REMARK  2 active torsions:
REMARK  status: ('A' for Active; 'I' for Inactive)
REMARK    1  A    between atoms: C3_5  and  C4_7 
REMARK    2  A    between atoms: C5_8  and  C6_9 
ROOT
HETATM    1  C1  UNL     1       4.737 -32.969  38.629  1.00  0.00     0.037 C 
HETATM    2  C2  UNL     1       4.644 -31.790  38.519  1.00  0.00     0.000 C 
HETATM    3  N1  UNL     1       4.562 -30.388  38.379  1.00  0.00    -0.303 N 
ATOM      4  H1  UNL     1       4.436 -29.857  39.241  1.00  0.00     0.177 HD
HETATM    5  C3  UNL     1       4.626 -29.719  37.326  1.00  0.00     0.135 C 
HETATM    6  N2  UNL     1       4.802 -30.822  36.305  1.00  0.00    -0.081 NA
ENDROOT
BRANCH   5   7
HETATM    7  C4  UNL     1       4.629 -28.357  36.831  1.00  0.00     0.030 A 
HETATM    8  C5  UNL     1       3.594 -28.043  35.946  1.00  0.00    -0.009 A 
HETATM    9  C14 UNL     1       3.851 -27.030  35.043  1.00  0.00     0.015 A 
HETATM   10  C15 UNL     1       4.994 -26.325  34.938  1.00  0.00     0.033 A 
HETATM   11  C16 UNL     1       6.000 -26.615  35.808  1.00  0.00     0.060 A 
HETATM   12  N5  UNL     1       7.166 -25.978  35.777  1.00  0.00    -0.299 N 
HETATM   13  C23 UNL     1       5.796 -27.637  36.774  1.00  0.00     0.019 A 
HETATM   14  N6  UNL     1       8.168 -26.177  36.572  1.00  0.00    -0.300 N 
ATOM     15  H5  UNL     1       7.282 -25.264  35.058  1.00  0.00     0.187 HD
HETATM   16  C17 UNL     1       8.011 -27.120  37.546  1.00  0.00     0.059 A 
ATOM     17  H6  UNL     1       9.038 -25.652  36.475  1.00  0.00     0.187 HD
HETATM   18  C18 UNL     1       8.961 -27.205  38.530  1.00  0.00     0.032 A 
HETATM   19  C22 UNL     1       6.830 -27.850  37.668  1.00  0.00     0.005 A 
HETATM   20  C19 UNL     1       8.768 -27.975  39.651  1.00  0.00     0.002 A 
HETATM   21  C20 UNL     1       7.590 -28.669  39.784  1.00  0.00     0.001 A 
HETATM   22  C21 UNL     1       6.627 -28.594  38.787  1.00  0.00     0.014 A 
BRANCH   8  23
HETATM   23  C6  UNL     1       2.230 -28.528  35.964  1.00  0.00     0.005 A 
HETATM   24  C7  UNL     1       1.648 -29.434  35.092  1.00  0.00     0.101 A 
HETATM   25  N3  UNL     1       0.450 -29.739  35.529  1.00  0.00    -0.364 N 
HETATM   26  C8  UNL     1       0.185 -29.071  36.676  1.00  0.00     0.046 A 
ATOM     27  H3  UNL     1      -0.191 -30.387  35.069  1.00  0.00     0.165 HD
HETATM   28  C9  UNL     1      -0.921 -29.049  37.493  1.00  0.00     0.047 A 
HETATM   29  C13 UNL     1       1.316 -28.283  36.974  1.00  0.00     0.025 A 
HETATM   30  C10 UNL     1      -0.897 -28.240  38.604  1.00  0.00     0.090 A 
HETATM   31  N4  UNL     1       0.167 -27.484  38.897  1.00  0.00    -0.369 N 
HETATM   32  C11 UNL     1       1.279 -27.474  38.121  1.00  0.00     0.018 A 
ATOM     33  H4  UNL     1       0.141 -26.896  39.730  1.00  0.00     0.165 HD
HETATM   34  C12 UNL     1       2.405 -26.566  38.454  1.00  0.00     0.069 C 
ENDBRANCH   8  23
ENDBRANCH   5   7
TORSDOF 2
ENDMDL
MODEL 5
REMARK VINA RESULT: -6.825259227      2.368      4.395
REMARK  2 active torsions:
REMARK  status: ('A' for Active; 'I' for Inactive)
REMARK    1  A    between atoms: C3_5  and  C4_7 
REMARK    2  A    between atoms: C5_8  and  C6_9 
ROOT
HETATM    1  C1  UNL     1       5.042 -33.429  37.527  1.00  0.00     0.037 C 
HETATM    2  C2  UNL     1       4.467 -32.418  37.767  1.00  0.00     0.000 C 
HETATM    3  N1  UNL     1       3.810 -31.203  38.056  1.00  0.00    -0.303 N 
ATOM      4  H1  UNL     1       3.261 -31.182  38.915  1.00  0.00     0.177 HD
HETATM    5  C3  UNL     1       3.820 -30.149  37.385  1.00  0.00     0.135 C 
HETATM    6  N2  UNL     1       4.703 -30.563  36.228  1.00  0.00    -0.081 NA
ENDROOT
BRANCH   5   7
HETATM    7  C4  UNL     1       3.338 -28.783  37.389  1.00  0.00     0.030 A 
HETATM    8  C5  UNL     1       4.161 -27.864  38.046  1.00  0.00    -0.009 A 
HETATM    9  C14 UNL     1       3.534 -26.750  38.570  1.00  0.00     0.015 A 
HETATM   10  C15 UNL     1       2.217 -26.470  38.505  1.00  0.00     0.033 A 
HETATM   11  C16 UNL     1       1.413 -27.353  37.852  1.00  0.00     0.060 A 
HETATM   12  N5  UNL     1       0.102 -27.167  37.743  1.00  0.00    -0.299 N 
HETATM   13  C23 UNL     1       1.996 -28.514  37.277  1.00  0.00     0.019 A 
HETATM   14  N6  UNL     1      -0.733 -27.944  37.130  1.00  0.00    -0.300 N 
ATOM     15  H5  UNL     1      -0.284 -26.333  38.184  1.00  0.00     0.187 HD
HETATM   16  C17 UNL     1      -0.220 -29.053  36.523  1.00  0.00     0.059 A 
ATOM     17  H6  UNL     1      -1.732 -27.735  37.101  1.00  0.00     0.187 HD
HETATM   18  C18 UNL     1      -1.033 -29.776  35.690  1.00  0.00     0.032 A 
HETATM   19  C22 UNL     1       1.142 -29.347  36.577  1.00  0.00     0.005 A 
HETATM   20  C19 UNL     1      -0.536 -30.771  34.885  1.00  0.00     0.002 A 
HETATM   21  C20 UNL     1       0.811 -31.038  34.917  1.00  0.00     0.001 A 
HETATM   22  C21 UNL     1       1.640 -30.315  35.764  1.00  0.00     0.014 A 
BRANCH   8  23
HETATM   23  C6  UNL     1       5.607 -27.846  38.103  1.00  0.00     0.005 A 
HETATM   24  C7  UNL     1       6.424 -28.567  38.961  1.00  0.00     0.101 A 
HETATM   25  N3  UNL     1       7.674 -28.404  38.599  1.00  0.00    -0.364 N 
HETATM   26  C8  UNL     1       7.746 -27.591  37.519  1.00  0.00     0.046 A 
ATOM     27  H3  UNL     1       8.476 -28.827  39.066  1.00  0.00     0.165 HD
HETATM   28  C9  UNL     1       8.816 -27.121  36.791  1.00  0.00     0.047 A 
HETATM   29  C13 UNL     1       6.428 -27.218  37.184  1.00  0.00     0.025 A 
HETATM   30  C10 UNL     1       8.567 -26.280  35.734  1.00  0.00     0.090 A 
HETATM   31  N4  UNL     1       7.322 -25.914  35.406  1.00  0.00    -0.369 N 
HETATM   32  C11 UNL     1       6.239 -26.353  36.094  1.00  0.00     0.018 A 
ATOM     33  H4  UNL     1       7.184 -25.286  34.615  1.00  0.00     0.165 HD
HETATM   34  C12 UNL     1       4.886 -25.863  35.732  1.00  0.00     0.069 C 
ENDBRANCH   8  23
ENDBRANCH   5   7
TORSDOF 2
ENDMDL
