MODEL 1
REMARK VINA RESULT: -7.043161215      0.000      0.000
REMARK  9 active torsions:
REMARK  status: ('A' for Active; 'I' for Inactive)
REMARK    1  A    between atoms: C3_3  and  O1_5 
REMARK    2  A    between atoms: C3_3  and  C5_7 
REMARK    3  A    between atoms: C5_7  and  N1_8 
REMARK    4  A    between atoms: C5_7  and  C7_11 
REMARK    5  A    between atoms: N1_8  and  O2_9 
REMARK       I    between atoms: C7_11  and  N2_13 
REMARK    6  A    between atoms: N2_13  and  C8_15 
REMARK    7  A    between atoms: C8_15  and  O4_16 
REMARK    8  A    between atoms: C10_19  and  N3_20 
REMARK    9  A    between atoms: C13_27  and  O5_29 
ROOT
HETATM    1  C1  UNL     1      44.159  41.197  33.915  1.00  0.00     0.015 C 
HETATM    2  C2  UNL     1      43.855  40.876  35.034  1.00  0.00    -0.077 C 
HETATM    3  C3  UNL     1      43.510  40.486  36.420  1.00  0.00     0.144 C 
HETATM    4  C4  UNL     1      44.600  40.993  37.305  1.00  0.00     0.062 C 
ENDROOT
BRANCH   3   5
HETATM    5  O1  UNL     1      43.429  39.120  36.465  1.00  0.00    -0.376 OA
ATOM      6  H1  UNL     1      44.307  38.780  36.585  1.00  0.00     0.211 HD
ENDBRANCH   3   5
BRANCH   3   7
HETATM    7  C5  UNL     1      42.206  41.192  36.832  1.00  0.00     0.244 C 
BRANCH   7   8
HETATM    8  N1  UNL     1      41.750  41.791  35.542  1.00  0.00    -0.083 NA
BRANCH   8   9
HETATM    9  O2  UNL     1      40.625  42.514  35.801  1.00  0.00    -0.290 OA
HETATM   10  C6  UNL     1      40.132  43.209  34.720  1.00  0.00     0.231 C 
ENDBRANCH   8   9
ENDBRANCH   7   8
BRANCH   7  11
HETATM   11  C7  UNL     1      41.215  40.143  37.163  1.00  0.00     0.247 C 
HETATM   12  O3  UNL     1      41.106  39.868  38.407  1.00  0.00    -0.271 OA
HETATM   13  N2  UNL     1      40.418  39.451  36.201  1.00  0.00    -0.304 N 
ATOM     14  H2  UNL     1      40.523  39.682  35.214  1.00  0.00     0.167 HD
BRANCH  13  15
HETATM   15  C8  UNL     1      39.469  38.438  36.584  1.00  0.00     0.253 C 
HETATM   16  C9  UNL     1      40.158  37.165  37.033  1.00  0.00     0.128 C 
HETATM   17  C10 UNL     1      39.222  35.995  36.955  1.00  0.00     0.213 C 
HETATM   18  C11 UNL     1      38.626  35.799  35.602  1.00  0.00     0.185 C 
HETATM   19  C12 UNL     1      39.248  34.636  34.962  1.00  0.00     0.071 C 
HETATM   20  C13 UNL     1      38.896  37.052  34.791  1.00  0.00     0.181 C 
HETATM   21  N4  UNL     1      39.726  33.710  34.477  1.00  0.00    -0.197 NA
HETATM   22  C14 UNL     1      37.953  37.020  33.606  1.00  0.00     0.080 C 
HETATM   23  O6  UNL     1      38.597  38.190  35.521  1.00  0.00    -0.300 OA
BRANCH  15  24
HETATM   24  O4  UNL     1      38.706  38.914  37.638  1.00  0.00    -0.348 OA
ATOM     25  H4  UNL     1      38.293  38.179  38.075  1.00  0.00     0.215 HD
ENDBRANCH  15  24
BRANCH  17  26
HETATM   26  N3  UNL     1      40.014  34.826  37.373  1.00  0.00    -0.073 N 
ATOM     27  H33 UNL     1      39.941  34.034  36.735  1.00  0.00     0.274 HD
ATOM     28  H32 UNL     1      41.022  34.961  37.283  1.00  0.00     0.274 HD
ATOM     29  H31 UNL     1      39.712  34.615  38.324  1.00  0.00     0.274 HD
ENDBRANCH  17  26
BRANCH  20  30
HETATM   30  O5  UNL     1      40.178  37.054  34.240  1.00  0.00    -0.364 OA
ATOM     31  H5  UNL     1      40.849  36.900  34.895  1.00  0.00     0.213 HD
ENDBRANCH  20  30
ENDBRANCH  13  15
ENDBRANCH   7  11
ENDBRANCH   3   7
TORSDOF 9
ENDMDL
MODEL 2
REMARK VINA RESULT: -6.368306608      1.132      1.562
REMARK  9 active torsions:
REMARK  status: ('A' for Active; 'I' for Inactive)
REMARK    1  A    between atoms: C3_3  and  O1_5 
REMARK    2  A    between atoms: C3_3  and  C5_7 
REMARK    3  A    between atoms: C5_7  and  N1_8 
REMARK    4  A    between atoms: C5_7  and  C7_11 
REMARK    5  A    between atoms: N1_8  and  O2_9 
REMARK       I    between atoms: C7_11  and  N2_13 
REMARK    6  A    between atoms: N2_13  and  C8_15 
REMARK    7  A    between atoms: C8_15  and  O4_16 
REMARK    8  A    between atoms: C10_19  and  N3_20 
REMARK    9  A    between atoms: C13_27  and  O5_29 
ROOT
HETATM    1  C1  UNL     1      44.830  41.700  38.912  1.00  0.00     0.015 C 
HETATM    2  C2  UNL     1      44.346  41.307  37.883  1.00  0.00    -0.077 C 
HETATM    3  C3  UNL     1      43.754  40.793  36.627  1.00  0.00     0.144 C 
HETATM    4  C4  UNL     1      43.359  39.375  36.874  1.00  0.00     0.062 C 
ENDROOT
BRANCH   3   5
HETATM    5  O1  UNL     1      44.706  40.880  35.647  1.00  0.00    -0.376 OA
ATOM      6  H1  UNL     1      44.877  41.800  35.489  1.00  0.00     0.211 HD
ENDBRANCH   3   5
BRANCH   3   7
HETATM    7  C5  UNL     1      42.475  41.588  36.313  1.00  0.00     0.244 C 
BRANCH   7   8
HETATM    8  N1  UNL     1      42.491  41.637  34.820  1.00  0.00    -0.083 NA
BRANCH   8   9
HETATM    9  O2  UNL     1      41.406  42.358  34.422  1.00  0.00    -0.290 OA
HETATM   10  C6  UNL     1      41.546  43.720  34.555  1.00  0.00     0.231 C 
ENDBRANCH   8   9
ENDBRANCH   7   8
BRANCH   7  11
HETATM   11  C7  UNL     1      41.319  40.737  36.677  1.00  0.00     0.247 C 
HETATM   12  O3  UNL     1      40.877  40.897  37.866  1.00  0.00    -0.271 OA
HETATM   13  N2  UNL     1      40.709  39.786  35.805  1.00  0.00    -0.304 N 
ATOM     14  H2  UNL     1      41.079  39.671  34.862  1.00  0.00     0.167 HD
BRANCH  13  15
HETATM   15  C8  UNL     1      39.585  38.985  36.216  1.00  0.00     0.253 C 
HETATM   16  C9  UNL     1      40.026  37.664  36.814  1.00  0.00     0.128 C 
HETATM   17  C10 UNL     1      38.909  36.663  36.782  1.00  0.00     0.213 C 
HETATM   18  C11 UNL     1      38.349  36.440  35.417  1.00  0.00     0.185 C 
HETATM   19  C12 UNL     1      38.792  35.134  34.918  1.00  0.00     0.071 C 
HETATM   20  C13 UNL     1      38.865  37.548  34.519  1.00  0.00     0.181 C 
HETATM   21  N4  UNL     1      39.127  34.101  34.545  1.00  0.00    -0.197 NA
HETATM   22  C14 UNL     1      37.984  37.559  33.286  1.00  0.00     0.080 C 
HETATM   23  O6  UNL     1      38.732  38.785  35.128  1.00  0.00    -0.300 OA
BRANCH  15  24
HETATM   24  O4  UNL     1      38.868  39.679  37.177  1.00  0.00    -0.348 OA
ATOM     25  H4  UNL     1      39.475  40.165  37.722  1.00  0.00     0.215 HD
ENDBRANCH  15  24
BRANCH  17  26
HETATM   26  N3  UNL     1      39.471  35.424  37.345  1.00  0.00    -0.073 N 
ATOM     27  H33 UNL     1      40.489  35.385  37.314  1.00  0.00     0.274 HD
ATOM     28  H32 UNL     1      39.379  35.357  38.359  1.00  0.00     0.274 HD
ATOM     29  H31 UNL     1      39.016  34.663  36.841  1.00  0.00     0.274 HD
ENDBRANCH  17  26
BRANCH  20  30
HETATM   30  O5  UNL     1      40.152  37.285  34.047  1.00  0.00    -0.364 OA
ATOM     31  H5  UNL     1      40.818  37.718  34.568  1.00  0.00     0.213 HD
ENDBRANCH  20  30
ENDBRANCH  13  15
ENDBRANCH   7  11
ENDBRANCH   3   7
TORSDOF 9
ENDMDL
MODEL 3
REMARK VINA RESULT: -6.231321592      1.297      1.640
REMARK  9 active torsions:
REMARK  status: ('A' for Active; 'I' for Inactive)
REMARK    1  A    between atoms: C3_3  and  O1_5 
REMARK    2  A    between atoms: C3_3  and  C5_7 
REMARK    3  A    between atoms: C5_7  and  N1_8 
REMARK    4  A    between atoms: C5_7  and  C7_11 
REMARK    5  A    between atoms: N1_8  and  O2_9 
REMARK       I    between atoms: C7_11  and  N2_13 
REMARK    6  A    between atoms: N2_13  and  C8_15 
REMARK    7  A    between atoms: C8_15  and  O4_16 
REMARK    8  A    between atoms: C10_19  and  N3_20 
REMARK    9  A    between atoms: C13_27  and  O5_29 
ROOT
HETATM    1  C1  UNL     1      41.473  39.367  32.397  1.00  0.00     0.015 C 
HETATM    2  C2  UNL     1      42.175  39.806  33.270  1.00  0.00    -0.077 C 
HETATM    3  C3  UNL     1      43.060  40.356  34.322  1.00  0.00     0.144 C 
HETATM    4  C4  UNL     1      44.031  41.268  33.650  1.00  0.00     0.062 C 
ENDROOT
BRANCH   3   5
HETATM    5  O1  UNL     1      43.699  39.306  34.924  1.00  0.00    -0.376 OA
ATOM      6  H1  UNL     1      44.374  38.998  34.333  1.00  0.00     0.211 HD
ENDBRANCH   3   5
BRANCH   3   7
HETATM    7  C5  UNL     1      42.219  41.202  35.294  1.00  0.00     0.244 C 
BRANCH   7   8
HETATM    8  N1  UNL     1      41.604  42.213  34.382  1.00  0.00    -0.083 NA
BRANCH   8   9
HETATM    9  O2  UNL     1      41.741  43.434  34.972  1.00  0.00    -0.290 OA
HETATM   10  C6  UNL     1      40.801  44.362  34.588  1.00  0.00     0.231 C 
ENDBRANCH   8   9
ENDBRANCH   7   8
BRANCH   7  11
HETATM   11  C7  UNL     1      41.102  40.356  35.771  1.00  0.00     0.247 C 
HETATM   12  O3  UNL     1      39.947  40.904  35.734  1.00  0.00    -0.271 OA
HETATM   13  N2  UNL     1      41.249  39.020  36.255  1.00  0.00    -0.304 N 
ATOM     14  H2  UNL     1      42.179  38.604  36.280  1.00  0.00     0.167 HD
BRANCH  13  15
HETATM   15  C8  UNL     1      40.123  38.245  36.707  1.00  0.00     0.253 C 
HETATM   16  C9  UNL     1      40.536  36.850  37.131  1.00  0.00     0.128 C 
HETATM   17  C10 UNL     1      39.359  35.919  37.125  1.00  0.00     0.213 C 
HETATM   18  C11 UNL     1      38.653  35.861  35.812  1.00  0.00     0.185 C 
HETATM   19  C12 UNL     1      38.960  34.589  35.151  1.00  0.00     0.071 C 
HETATM   20  C13 UNL     1      39.147  37.022  34.970  1.00  0.00     0.181 C 
HETATM   21  N4  UNL     1      39.189  33.580  34.652  1.00  0.00    -0.197 NA
HETATM   22  C14 UNL     1      38.151  37.202  33.842  1.00  0.00     0.080 C 
HETATM   23  O6  UNL     1      39.155  38.199  35.701  1.00  0.00    -0.300 OA
BRANCH  15  24
HETATM   24  O4  UNL     1      39.550  38.880  37.798  1.00  0.00    -0.348 OA
ATOM     25  H4  UNL     1      38.937  39.534  37.485  1.00  0.00     0.215 HD
ENDBRANCH  15  24
BRANCH  17  26
HETATM   26  N3  UNL     1      39.894  34.602  37.510  1.00  0.00    -0.073 N 
ATOM     27  H33 UNL     1      39.563  34.277  38.418  1.00  0.00     0.274 HD
ATOM     28  H32 UNL     1      39.516  33.830  36.960  1.00  0.00     0.274 HD
ATOM     29  H31 UNL     1      40.908  34.690  37.451  1.00  0.00     0.274 HD
ENDBRANCH  17  26
BRANCH  20  30
HETATM   30  O5  UNL     1      40.361  36.737  34.343  1.00  0.00    -0.364 OA
ATOM     31  H5  UNL     1      40.985  37.448  34.434  1.00  0.00     0.213 HD
ENDBRANCH  20  30
ENDBRANCH  13  15
ENDBRANCH   7  11
ENDBRANCH   3   7
TORSDOF 9
ENDMDL
MODEL 4
REMARK VINA RESULT: -6.163369139      1.220      1.935
REMARK  9 active torsions:
REMARK  status: ('A' for Active; 'I' for Inactive)
REMARK    1  A    between atoms: C3_3  and  O1_5 
REMARK    2  A    between atoms: C3_3  and  C5_7 
REMARK    3  A    between atoms: C5_7  and  N1_8 
REMARK    4  A    between atoms: C5_7  and  C7_11 
REMARK    5  A    between atoms: N1_8  and  O2_9 
REMARK       I    between atoms: C7_11  and  N2_13 
REMARK    6  A    between atoms: N2_13  and  C8_15 
REMARK    7  A    between atoms: C8_15  and  O4_16 
REMARK    8  A    between atoms: C10_19  and  N3_20 
REMARK    9  A    between atoms: C13_27  and  O5_29 
ROOT
HETATM    1  C1  UNL     1      41.500  42.687  34.626  1.00  0.00     0.015 C 
HETATM    2  C2  UNL     1      42.124  41.685  34.859  1.00  0.00    -0.077 C 
HETATM    3  C3  UNL     1      42.915  40.462  35.128  1.00  0.00     0.144 C 
HETATM    4  C4  UNL     1      44.330  40.764  34.765  1.00  0.00     0.062 C 
ENDROOT
BRANCH   3   5
HETATM    5  O1  UNL     1      42.408  39.455  34.353  1.00  0.00    -0.376 OA
ATOM      6  H1  UNL     1      42.372  39.766  33.457  1.00  0.00     0.211 HD
ENDBRANCH   3   5
BRANCH   3   7
HETATM    7  C5  UNL     1      42.872  40.158  36.636  1.00  0.00     0.244 C 
BRANCH   7   8
HETATM    8  N1  UNL     1      42.256  41.400  37.192  1.00  0.00    -0.083 NA
BRANCH   8   9
HETATM    9  O2  UNL     1      42.261  41.287  38.550  1.00  0.00    -0.290 OA
HETATM   10  C6  UNL     1      43.455  41.622  39.146  1.00  0.00     0.231 C 
ENDBRANCH   8   9
ENDBRANCH   7   8
BRANCH   7  11
HETATM   11  C7  UNL     1      41.875  39.083  36.846  1.00  0.00     0.247 C 
HETATM   12  O3  UNL     1      42.356  37.901  36.929  1.00  0.00    -0.271 OA
HETATM   13  N2  UNL     1      40.467  39.296  36.949  1.00  0.00    -0.304 N 
ATOM     14  H2  UNL     1      40.104  40.246  36.876  1.00  0.00     0.167 HD
BRANCH  13  15
HETATM   15  C8  UNL     1      39.545  38.209  37.154  1.00  0.00     0.253 C 
HETATM   16  C9  UNL     1      40.265  36.915  37.475  1.00  0.00     0.128 C 
HETATM   17  C10 UNL     1      39.384  35.731  37.204  1.00  0.00     0.213 C 
HETATM   18  C11 UNL     1      38.860  35.687  35.808  1.00  0.00     0.185 C 
HETATM   19  C12 UNL     1      39.559  34.637  35.061  1.00  0.00     0.071 C 
HETATM   20  C13 UNL     1      39.114  37.041  35.175  1.00  0.00     0.181 C 
HETATM   21  N4  UNL     1      40.098  33.798  34.489  1.00  0.00    -0.197 NA
HETATM   22  C14 UNL     1      38.230  37.126  33.948  1.00  0.00     0.080 C 
HETATM   23  O6  UNL     1      38.734  38.066  36.025  1.00  0.00    -0.300 OA
BRANCH  15  24
HETATM   24  O4  UNL     1      38.714  38.520  38.218  1.00  0.00    -0.348 OA
ATOM     25  H4  UNL     1      38.461  39.434  38.153  1.00  0.00     0.215 HD
ENDBRANCH  15  24
BRANCH  17  26
HETATM   26  N3  UNL     1      40.204  34.548  37.513  1.00  0.00    -0.073 N 
ATOM     27  H33 UNL     1      40.942  34.728  38.193  1.00  0.00     0.274 HD
ATOM     28  H32 UNL     1      39.710  33.837  38.054  1.00  0.00     0.274 HD
ATOM     29  H31 UNL     1      40.549  34.211  36.614  1.00  0.00     0.274 HD
ENDBRANCH  17  26
BRANCH  20  30
HETATM   30  O5  UNL     1      40.420  37.159  34.694  1.00  0.00    -0.364 OA
ATOM     31  H5  UNL     1      40.464  37.052  33.751  1.00  0.00     0.213 HD
ENDBRANCH  20  30
ENDBRANCH  13  15
ENDBRANCH   7  11
ENDBRANCH   3   7
TORSDOF 9
ENDMDL
MODEL 5
REMARK VINA RESULT: -6.138006851      3.387      5.204
REMARK  9 active torsions:
REMARK  status: ('A' for Active; 'I' for Inactive)
REMARK    1  A    between atoms: C3_3  and  O1_5 
REMARK    2  A    between atoms: C3_3  and  C5_7 
REMARK    3  A    between atoms: C5_7  and  N1_8 
REMARK    4  A    between atoms: C5_7  and  C7_11 
REMARK    5  A    between atoms: N1_8  and  O2_9 
REMARK       I    between atoms: C7_11  and  N2_13 
REMARK    6  A    between atoms: N2_13  and  C8_15 
REMARK    7  A    between atoms: C8_15  and  O4_16 
REMARK    8  A    between atoms: C10_19  and  N3_20 
REMARK    9  A    between atoms: C13_27  and  O5_29 
ROOT
HETATM    1  C1  UNL     1      42.518  42.195  35.224  1.00  0.00     0.015 C 
HETATM    2  C2  UNL     1      42.815  41.313  35.986  1.00  0.00    -0.077 C 
HETATM    3  C3  UNL     1      43.210  40.240  36.927  1.00  0.00     0.144 C 
HETATM    4  C4  UNL     1      44.415  40.722  37.665  1.00  0.00     0.062 C 
ENDROOT
BRANCH   3   5
HETATM    5  O1  UNL     1      43.492  39.120  36.194  1.00  0.00    -0.376 OA
ATOM      6  H1  UNL     1      42.687  38.627  36.094  1.00  0.00     0.211 HD
ENDBRANCH   3   5
BRANCH   3   7
HETATM    7  C5  UNL     1      42.084  40.034  37.955  1.00  0.00     0.244 C 
BRANCH   7   8
HETATM    8  N1  UNL     1      42.078  41.337  38.685  1.00  0.00    -0.083 NA
BRANCH   8   9
HETATM    9  O2  UNL     1      41.313  41.178  39.801  1.00  0.00    -0.290 OA
HETATM   10  C6  UNL     1      41.821  41.777  40.931  1.00  0.00     0.231 C 
ENDBRANCH   8   9
ENDBRANCH   7   8
BRANCH   7  11
HETATM   11  C7  UNL     1      40.805  39.982  37.211  1.00  0.00     0.247 C 
HETATM   12  O3  UNL     1      40.636  38.941  36.487  1.00  0.00    -0.271 OA
HETATM   13  N2  UNL     1      39.800  40.996  37.257  1.00  0.00    -0.304 N 
ATOM     14  H2  UNL     1      39.956  41.820  37.837  1.00  0.00     0.167 HD
BRANCH  13  15
HETATM   15  C8  UNL     1      38.574  40.890  36.509  1.00  0.00     0.253 C 
HETATM   16  C9  UNL     1      38.821  40.955  35.016  1.00  0.00     0.128 C 
HETATM   17  C10 UNL     1      37.567  41.335  34.283  1.00  0.00     0.213 C 
HETATM   18  C11 UNL     1      36.968  42.617  34.755  1.00  0.00     0.185 C 
HETATM   19  C12 UNL     1      37.207  43.662  33.755  1.00  0.00     0.071 C 
HETATM   20  C13 UNL     1      37.633  42.984  36.068  1.00  0.00     0.181 C 
HETATM   21  N4  UNL     1      37.382  44.469  32.956  1.00  0.00    -0.197 NA
HETATM   22  C14 UNL     1      36.753  44.022  36.732  1.00  0.00     0.080 C 
HETATM   23  O6  UNL     1      37.691  41.892  36.918  1.00  0.00    -0.300 OA
BRANCH  15  24
HETATM   24  O4  UNL     1      37.977  39.673  36.798  1.00  0.00    -0.348 OA
ATOM     25  H4  UNL     1      37.090  39.831  37.101  1.00  0.00     0.215 HD
ENDBRANCH  15  24
BRANCH  17  26
HETATM   26  N3  UNL     1      37.944  41.405  32.862  1.00  0.00    -0.073 N 
ATOM     27  H33 UNL     1      38.952  41.401  32.705  1.00  0.00     0.274 HD
ATOM     28  H32 UNL     1      37.737  40.552  32.341  1.00  0.00     0.274 HD
ATOM     29  H31 UNL     1      37.476  42.233  32.494  1.00  0.00     0.274 HD
ENDBRANCH  17  26
BRANCH  20  30
HETATM   30  O5  UNL     1      38.863  43.616  35.874  1.00  0.00    -0.364 OA
ATOM     31  H5  UNL     1      38.931  44.424  36.370  1.00  0.00     0.213 HD
ENDBRANCH  20  30
ENDBRANCH  13  15
ENDBRANCH   7  11
ENDBRANCH   3   7
TORSDOF 9
ENDMDL
