MODEL 1
REMARK VINA RESULT: -7.762325900      0.000      0.000
REMARK  7 active torsions:
REMARK  status: ('A' for Active; 'I' for Inactive)
REMARK    1  A    between atoms: C3_8  and  C4_9 
REMARK    2  A    between atoms: C4_9  and  C5_10 
REMARK    3  A    between atoms: C7_14  and  N4_15 
REMARK       I    between atoms: N4_15  and  C8_17 
REMARK       I    between atoms: C8_17  and  N5_19 
REMARK    4  A    between atoms: N6_21  and  N7_23 
REMARK    5  A    between atoms: N8_26  and  C9_27 
REMARK    6  A    between atoms: C9_27  and  C10_28 
REMARK    7  A    between atoms: C10_28  and  O2_29 
ROOT
HETATM    1  C5  UNL     1      39.838  37.933  36.953  1.00  0.00     0.105 A 
HETATM    2  N3  UNL     1      41.007  38.342  36.467  1.00  0.00    -0.325 N 
ATOM      3  H3  UNL     1      41.462  37.958  35.639  1.00  0.00     0.169 HD
HETATM    4  C6  UNL     1      41.504  39.343  37.236  1.00  0.00     0.191 A 
HETATM    5  C7  UNL     1      42.695  40.109  37.152  1.00  0.00     0.161 A 
HETATM    6  N8  UNL     1      42.882  41.040  38.099  1.00  0.00    -0.323 N 
HETATM    7  C11 UNL     1      41.951  41.221  39.083  1.00  0.00     0.203 A 
HETATM    8  N9  UNL     1      40.843  40.480  39.126  1.00  0.00    -0.273 N 
ATOM      9  H9  UNL     1      40.161  40.630  39.869  1.00  0.00     0.190 HD
HETATM   10  N10 UNL     1      40.625  39.553  38.213  1.00  0.00    -0.174 N 
HETATM   11  N11 UNL     1      39.607  38.696  38.045  1.00  0.00    -0.266 N 
ATOM     12  H11 UNL     1      38.786  38.629  38.647  1.00  0.00     0.190 HD
ENDROOT
BRANCH   1  13
HETATM   13  C4  UNL     1      38.902  36.886  36.494  1.00  0.00     0.137 C 
BRANCH  13  14
HETATM   14  C3  UNL     1      39.462  35.534  36.521  1.00  0.00     0.049 A 
HETATM   15  C2  UNL     1      40.227  34.976  37.522  1.00  0.00     0.132 A 
HETATM   16  N2  UNL     1      40.569  33.713  37.210  1.00  0.00    -0.200 N 
HETATM   17  C1  UNL     1      40.025  33.457  36.006  1.00  0.00     0.675 A 
ATOM     18  H2  UNL     1      41.130  33.075  37.774  1.00  0.00     0.183 HD
HETATM   19  N1  UNL     1      40.129  32.344  35.365  1.00  0.00    -0.234 N 
HETATM   20  N12 UNL     1      39.350  34.569  35.589  1.00  0.00    -0.194 N 
ATOM     21  H12 UNL     1      40.633  31.513  35.677  1.00  0.00     0.174 HD
ATOM     22  H11 UNL     1      39.717  32.150  34.452  1.00  0.00     0.174 HD
ATOM     23  H12 UNL     1      38.841  34.656  34.708  1.00  0.00     0.184 HD
ENDBRANCH  13  14
ENDBRANCH   1  13
BRANCH   5  24
HETATM   24  N4  UNL     1      43.426  39.841  36.213  1.00  0.00    -0.290 N 
HETATM   25  C8  UNL     1      43.977  40.263  35.054  1.00  0.00     0.341 C 
HETATM   26  O1  UNL     1      45.053  40.931  35.023  1.00  0.00    -0.245 OA
HETATM   27  N5  UNL     1      43.422  40.010  33.733  1.00  0.00    -0.237 N 
HETATM   28  N6  UNL     1      43.522  40.924  32.890  1.00  0.00    -0.245 N 
ATOM     29  H5  UNL     1      42.970  39.124  33.506  1.00  0.00     0.193 HD
ATOM     30  H6  UNL     1      43.131  40.740  31.965  1.00  0.00     0.208 HD
ATOM     31  H4  UNL     1      43.767  38.892  36.370  1.00  0.00     0.172 HD
BRANCH  28  32
HETATM   32  N7  UNL     1      44.107  42.158  33.082  1.00  0.00    -0.331 N 
ATOM     33  H72 UNL     1      43.710  42.723  33.832  1.00  0.00     0.178 HD
ATOM     34  H71 UNL     1      44.887  42.549  32.553  1.00  0.00     0.178 HD
ENDBRANCH  28  32
ENDBRANCH   5  24
BRANCH   6  35
HETATM   35  C9  UNL     1      44.056  41.899  38.174  1.00  0.00     0.157 C 
BRANCH  35  36
HETATM   36  C10 UNL     1      45.173  41.188  38.922  1.00  0.00     0.184 C 
BRANCH  36  37
HETATM   37  O2  UNL     1      45.736  40.177  38.170  1.00  0.00    -0.399 OA
ATOM     38  H2  UNL     1      46.485  40.479  37.670  1.00  0.00     0.209 HD
ENDBRANCH  36  37
ENDBRANCH  35  36
ENDBRANCH   6  35
TORSDOF 7
ENDMDL
MODEL 2
REMARK VINA RESULT: -7.393253944      3.416      7.013
REMARK  7 active torsions:
REMARK  status: ('A' for Active; 'I' for Inactive)
REMARK    1  A    between atoms: C3_8  and  C4_9 
REMARK    2  A    between atoms: C4_9  and  C5_10 
REMARK    3  A    between atoms: C7_14  and  N4_15 
REMARK       I    between atoms: N4_15  and  C8_17 
REMARK       I    between atoms: C8_17  and  N5_19 
REMARK    4  A    between atoms: N6_21  and  N7_23 
REMARK    5  A    between atoms: N8_26  and  C9_27 
REMARK    6  A    between atoms: C9_27  and  C10_28 
REMARK    7  A    between atoms: C10_28  and  O2_29 
ROOT
HETATM    1  C5  UNL     1      39.972  38.920  37.401  1.00  0.00     0.105 A 
HETATM    2  N3  UNL     1      39.680  38.378  36.222  1.00  0.00    -0.325 N 
ATOM      3  H3  UNL     1      39.413  38.902  35.388  1.00  0.00     0.169 HD
HETATM    4  C6  UNL     1      39.788  37.028  36.291  1.00  0.00     0.191 A 
HETATM    5  C7  UNL     1      39.588  36.003  35.331  1.00  0.00     0.161 A 
HETATM    6  N8  UNL     1      39.784  34.742  35.743  1.00  0.00    -0.323 N 
HETATM    7  C11 UNL     1      40.160  34.488  37.032  1.00  0.00     0.203 A 
HETATM    8  N9  UNL     1      40.338  35.480  37.906  1.00  0.00    -0.273 N 
ATOM      9  H9  UNL     1      40.618  35.269  38.863  1.00  0.00     0.190 HD
HETATM   10  N10 UNL     1      40.154  36.733  37.537  1.00  0.00    -0.174 N 
HETATM   11  N11 UNL     1      40.267  37.883  38.218  1.00  0.00    -0.266 N 
ATOM     12  H11 UNL     1      40.534  37.964  39.199  1.00  0.00     0.190 HD
ENDROOT
BRANCH   1  13
HETATM   13  C4  UNL     1      40.004  40.327  37.849  1.00  0.00     0.137 C 
BRANCH  13  14
HETATM   14  C3  UNL     1      41.307  40.761  38.355  1.00  0.00     0.049 A 
HETATM   15  C2  UNL     1      41.638  41.025  39.666  1.00  0.00     0.132 A 
HETATM   16  N2  UNL     1      42.926  41.401  39.763  1.00  0.00    -0.200 N 
HETATM   17  C1  UNL     1      43.426  41.379  38.514  1.00  0.00     0.675 A 
ATOM     18  H2  UNL     1      43.426  41.653  40.616  1.00  0.00     0.183 HD
HETATM   19  N1  UNL     1      44.637  41.679  38.194  1.00  0.00    -0.234 N 
HETATM   20  N12 UNL     1      42.436  40.988  37.657  1.00  0.00    -0.194 N 
ATOM     21  H12 UNL     1      45.376  41.971  38.833  1.00  0.00     0.174 HD
ATOM     22  H11 UNL     1      45.016  41.663  37.246  1.00  0.00     0.174 HD
ATOM     23  H12 UNL     1      42.536  40.884  36.647  1.00  0.00     0.184 HD
ENDBRANCH  13  14
ENDBRANCH   1  13
BRANCH   5  24
HETATM   24  N4  UNL     1      39.264  36.384  34.218  1.00  0.00    -0.290 N 
HETATM   25  C8  UNL     1      38.634  37.328  33.486  1.00  0.00     0.341 C 
HETATM   26  O1  UNL     1      39.215  38.387  33.109  1.00  0.00    -0.245 OA
HETATM   27  N5  UNL     1      37.248  37.249  33.052  1.00  0.00    -0.237 N 
HETATM   28  N6  UNL     1      36.591  38.310  33.048  1.00  0.00    -0.245 N 
ATOM     29  H5  UNL     1      36.830  36.364  32.762  1.00  0.00     0.193 HD
ATOM     30  H6  UNL     1      35.620  38.248  32.741  1.00  0.00     0.208 HD
ATOM     31  H4  UNL     1      39.624  35.694  33.558  1.00  0.00     0.172 HD
BRANCH  28  32
HETATM   32  N7  UNL     1      37.047  39.558  33.418  1.00  0.00    -0.331 N 
ATOM     33  H72 UNL     1      37.981  39.801  33.090  1.00  0.00     0.178 HD
ATOM     34  H71 UNL     1      36.544  40.247  33.977  1.00  0.00     0.178 HD
ENDBRANCH  28  32
ENDBRANCH   5  24
BRANCH   6  35
HETATM   35  C9  UNL     1      39.604  33.571  34.895  1.00  0.00     0.157 C 
BRANCH  35  36
HETATM   36  C10 UNL     1      39.550  32.315  35.748  1.00  0.00     0.184 C 
BRANCH  36  37
HETATM   37  O2  UNL     1      39.151  31.212  35.020  1.00  0.00    -0.399 OA
ATOM     38  H2  UNL     1      38.256  30.962  35.214  1.00  0.00     0.209 HD
ENDBRANCH  36  37
ENDBRANCH  35  36
ENDBRANCH   6  35
TORSDOF 7
ENDMDL
MODEL 3
REMARK VINA RESULT: -7.389681385      3.955      6.623
REMARK  7 active torsions:
REMARK  status: ('A' for Active; 'I' for Inactive)
REMARK    1  A    between atoms: C3_8  and  C4_9 
REMARK    2  A    between atoms: C4_9  and  C5_10 
REMARK    3  A    between atoms: C7_14  and  N4_15 
REMARK       I    between atoms: N4_15  and  C8_17 
REMARK       I    between atoms: C8_17  and  N5_19 
REMARK    4  A    between atoms: N6_21  and  N7_23 
REMARK    5  A    between atoms: N8_26  and  C9_27 
REMARK    6  A    between atoms: C9_27  and  C10_28 
REMARK    7  A    between atoms: C10_28  and  O2_29 
ROOT
HETATM    1  C5  UNL     1      37.999  39.725  34.213  1.00  0.00     0.105 A 
HETATM    2  N3  UNL     1      38.961  39.597  35.122  1.00  0.00    -0.325 N 
ATOM      3  H3  UNL     1      39.478  40.371  35.539  1.00  0.00     0.169 HD
HETATM    4  C6  UNL     1      39.155  38.286  35.411  1.00  0.00     0.191 A 
HETATM    5  C7  UNL     1      40.044  37.624  36.296  1.00  0.00     0.161 A 
HETATM    6  N8  UNL     1      39.972  36.286  36.338  1.00  0.00    -0.323 N 
HETATM    7  C11 UNL     1      39.073  35.619  35.554  1.00  0.00     0.203 A 
HETATM    8  N9  UNL     1      38.253  36.278  34.734  1.00  0.00    -0.273 N 
ATOM      9  H9  UNL     1      37.589  35.761  34.157  1.00  0.00     0.190 HD
HETATM   10  N10 UNL     1      38.295  37.595  34.665  1.00  0.00    -0.174 N 
HETATM   11  N11 UNL     1      37.589  38.468  33.932  1.00  0.00    -0.266 N 
ATOM     12  H11 UNL     1      36.855  38.222  33.267  1.00  0.00     0.190 HD
ENDROOT
BRANCH   1  13
HETATM   13  C4  UNL     1      37.416  40.921  33.569  1.00  0.00     0.137 C 
BRANCH  13  14
HETATM   14  C3  UNL     1      37.302  42.078  34.457  1.00  0.00     0.049 A 
HETATM   15  C2  UNL     1      37.622  43.385  34.159  1.00  0.00     0.132 A 
HETATM   16  N2  UNL     1      37.390  44.184  35.216  1.00  0.00    -0.200 N 
HETATM   17  C1  UNL     1      36.921  43.392  36.197  1.00  0.00     0.675 A 
ATOM     18  H2  UNL     1      37.541  45.191  35.264  1.00  0.00     0.183 HD
HETATM   19  N1  UNL     1      36.581  43.790  37.374  1.00  0.00    -0.234 N 
HETATM   20  N12 UNL     1      36.868  42.108  35.731  1.00  0.00    -0.194 N 
ATOM     21  H12 UNL     1      36.621  44.748  37.722  1.00  0.00     0.174 HD
ATOM     22  H11 UNL     1      36.225  43.190  38.118  1.00  0.00     0.174 HD
ATOM     23  H12 UNL     1      36.549  41.299  36.265  1.00  0.00     0.184 HD
ENDBRANCH  13  14
ENDBRANCH   1  13
BRANCH   5  24
HETATM   24  N4  UNL     1      40.782  38.353  36.939  1.00  0.00    -0.290 N 
HETATM   25  C8  UNL     1      41.685  39.357  36.908  1.00  0.00     0.341 C 
HETATM   26  O1  UNL     1      41.339  40.575  36.913  1.00  0.00    -0.245 OA
HETATM   27  N5  UNL     1      43.128  39.172  36.868  1.00  0.00    -0.237 N 
HETATM   28  N6  UNL     1      43.785  39.972  36.171  1.00  0.00    -0.245 N 
ATOM     29  H5  UNL     1      43.582  38.420  37.385  1.00  0.00     0.193 HD
ATOM     30  H6  UNL     1      44.796  39.837  36.148  1.00  0.00     0.208 HD
ATOM     31  H4  UNL     1      40.668  38.093  37.919  1.00  0.00     0.172 HD
BRANCH  28  32
HETATM   32  N7  UNL     1      43.281  41.021  35.430  1.00  0.00    -0.331 N 
ATOM     33  H72 UNL     1      42.282  41.196  35.537  1.00  0.00     0.178 HD
ATOM     34  H71 UNL     1      43.806  41.625  34.799  1.00  0.00     0.178 HD
ENDBRANCH  28  32
ENDBRANCH   5  24
BRANCH   6  35
HETATM   35  C9  UNL     1      40.823  35.451  37.174  1.00  0.00     0.157 C 
BRANCH  35  36
HETATM   36  C10 UNL     1      40.531  33.983  36.910  1.00  0.00     0.184 C 
BRANCH  36  37
HETATM   37  O2  UNL     1      41.109  33.162  37.857  1.00  0.00    -0.399 OA
ATOM     38  H2  UNL     1      40.532  33.009  38.596  1.00  0.00     0.209 HD
ENDBRANCH  36  37
ENDBRANCH  35  36
ENDBRANCH   6  35
TORSDOF 7
ENDMDL
MODEL 4
REMARK VINA RESULT: -7.335477769      3.956      6.725
REMARK  7 active torsions:
REMARK  status: ('A' for Active; 'I' for Inactive)
REMARK    1  A    between atoms: C3_8  and  C4_9 
REMARK    2  A    between atoms: C4_9  and  C5_10 
REMARK    3  A    between atoms: C7_14  and  N4_15 
REMARK       I    between atoms: N4_15  and  C8_17 
REMARK       I    between atoms: C8_17  and  N5_19 
REMARK    4  A    between atoms: N6_21  and  N7_23 
REMARK    5  A    between atoms: N8_26  and  C9_27 
REMARK    6  A    between atoms: C9_27  and  C10_28 
REMARK    7  A    between atoms: C10_28  and  O2_29 
ROOT
HETATM    1  C5  UNL     1      38.453  40.625  34.866  1.00  0.00     0.105 A 
HETATM    2  N3  UNL     1      39.445  40.289  35.686  1.00  0.00    -0.325 N 
ATOM      3  H3  UNL     1      40.111  40.943  36.097  1.00  0.00     0.169 HD
HETATM    4  C6  UNL     1      39.440  38.948  35.896  1.00  0.00     0.191 A 
HETATM    5  C7  UNL     1      40.270  38.100  36.673  1.00  0.00     0.161 A 
HETATM    6  N8  UNL     1      39.980  36.791  36.655  1.00  0.00    -0.323 N 
HETATM    7  C11 UNL     1      38.929  36.326  35.917  1.00  0.00     0.203 A 
HETATM    8  N9  UNL     1      38.171  37.156  35.199  1.00  0.00    -0.273 N 
ATOM      9  H9  UNL     1      37.391  36.789  34.655  1.00  0.00     0.190 HD
HETATM   10  N10 UNL     1      38.426  38.451  35.191  1.00  0.00    -0.174 N 
HETATM   11  N11 UNL     1      37.821  39.469  34.561  1.00  0.00    -0.266 N 
ATOM     12  H11 UNL     1      37.010  39.385  33.947  1.00  0.00     0.190 HD
ENDROOT
BRANCH   1  13
HETATM   13  C4  UNL     1      38.030  41.935  34.331  1.00  0.00     0.137 C 
BRANCH  13  14
HETATM   14  C3  UNL     1      37.657  42.906  35.361  1.00  0.00     0.049 A 
HETATM   15  C2  UNL     1      36.919  42.663  36.498  1.00  0.00     0.132 A 
HETATM   16  N2  UNL     1      36.770  43.789  37.217  1.00  0.00    -0.200 N 
HETATM   17  C1  UNL     1      37.412  44.761  36.543  1.00  0.00     0.675 A 
ATOM     18  H2  UNL     1      36.269  43.888  38.100  1.00  0.00     0.183 HD
HETATM   19  N1  UNL     1      37.495  45.992  36.914  1.00  0.00    -0.234 N 
HETATM   20  N12 UNL     1      37.952  44.219  35.411  1.00  0.00    -0.194 N 
ATOM     21  H12 UNL     1      37.092  46.396  37.758  1.00  0.00     0.174 HD
ATOM     22  H11 UNL     1      37.982  46.728  36.402  1.00  0.00     0.174 HD
ATOM     23  H12 UNL     1      38.494  44.729  34.712  1.00  0.00     0.184 HD
ENDBRANCH  13  14
ENDBRANCH   1  13
BRANCH   5  24
HETATM   24  N4  UNL     1      41.163  38.660  37.287  1.00  0.00    -0.290 N 
HETATM   25  C8  UNL     1      42.127  39.606  37.266  1.00  0.00     0.341 C 
HETATM   26  O1  UNL     1      41.887  40.818  37.544  1.00  0.00    -0.245 OA
HETATM   27  N5  UNL     1      43.521  39.360  36.933  1.00  0.00    -0.237 N 
HETATM   28  N6  UNL     1      44.114  40.241  36.278  1.00  0.00    -0.245 N 
ATOM     29  H5  UNL     1      43.994  38.504  37.223  1.00  0.00     0.193 HD
ATOM     30  H6  UNL     1      45.092  40.063  36.049  1.00  0.00     0.208 HD
ATOM     31  H4  UNL     1      41.195  38.230  38.211  1.00  0.00     0.172 HD
BRANCH  28  32
HETATM   32  N7  UNL     1      43.579  41.432  35.833  1.00  0.00    -0.331 N 
ATOM     33  H72 UNL     1      43.829  42.258  36.376  1.00  0.00     0.178 HD
ATOM     34  H71 UNL     1      42.970  41.560  35.026  1.00  0.00     0.178 HD
ENDBRANCH  28  32
ENDBRANCH   5  24
BRANCH   6  35
HETATM   35  C9  UNL     1      40.741  35.780  37.378  1.00  0.00     0.157 C 
BRANCH  35  36
HETATM   36  C10 UNL     1      40.361  34.393  36.885  1.00  0.00     0.184 C 
BRANCH  36  37
HETATM   37  O2  UNL     1      41.056  33.401  37.547  1.00  0.00    -0.399 OA
ATOM     38  H2  UNL     1      40.487  32.694  37.828  1.00  0.00     0.209 HD
ENDBRANCH  36  37
ENDBRANCH  35  36
ENDBRANCH   6  35
TORSDOF 7
ENDMDL
MODEL 5
REMARK VINA RESULT: -7.240750476      3.801      5.047
REMARK  7 active torsions:
REMARK  status: ('A' for Active; 'I' for Inactive)
REMARK    1  A    between atoms: C3_8  and  C4_9 
REMARK    2  A    between atoms: C4_9  and  C5_10 
REMARK    3  A    between atoms: C7_14  and  N4_15 
REMARK       I    between atoms: N4_15  and  C8_17 
REMARK       I    between atoms: C8_17  and  N5_19 
REMARK    4  A    between atoms: N6_21  and  N7_23 
REMARK    5  A    between atoms: N8_26  and  C9_27 
REMARK    6  A    between atoms: C9_27  and  C10_28 
REMARK    7  A    between atoms: C10_28  and  O2_29 
ROOT
HETATM    1  C5  UNL     1      39.027  37.764  35.986  1.00  0.00     0.105 A 
HETATM    2  N3  UNL     1      38.420  38.911  35.692  1.00  0.00    -0.325 N 
ATOM      3  H3  UNL     1      37.435  39.112  35.863  1.00  0.00     0.169 HD
HETATM    4  C6  UNL     1      39.305  39.773  35.130  1.00  0.00     0.191 A 
HETATM    5  C7  UNL     1      39.169  41.099  34.646  1.00  0.00     0.161 A 
HETATM    6  N8  UNL     1      40.270  41.673  34.140  1.00  0.00    -0.323 N 
HETATM    7  C11 UNL     1      41.452  40.988  34.106  1.00  0.00     0.203 A 
HETATM    8  N9  UNL     1      41.539  39.742  34.572  1.00  0.00    -0.273 N 
ATOM      9  H9  UNL     1      42.431  39.248  34.538  1.00  0.00     0.190 HD
HETATM   10  N10 UNL     1      40.477  39.144  35.077  1.00  0.00    -0.174 N 
HETATM   11  N11 UNL     1      40.313  37.918  35.597  1.00  0.00    -0.266 N 
ATOM     12  H11 UNL     1      41.044  37.213  35.687  1.00  0.00     0.190 HD
ENDROOT
BRANCH   1  13
HETATM   13  C4  UNL     1      38.519  36.520  36.601  1.00  0.00     0.137 C 
BRANCH  13  14
HETATM   14  C3  UNL     1      39.489  35.424  36.611  1.00  0.00     0.049 A 
HETATM   15  C2  UNL     1      40.085  34.857  37.717  1.00  0.00     0.132 A 
HETATM   16  N2  UNL     1      40.924  33.872  37.351  1.00  0.00    -0.200 N 
HETATM   17  C1  UNL     1      40.869  33.803  36.009  1.00  0.00     0.675 A 
ATOM     18  H2  UNL     1      41.490  33.291  37.970  1.00  0.00     0.183 HD
HETATM   19  N1  UNL     1      41.537  32.976  35.280  1.00  0.00    -0.234 N 
HETATM   20  N12 UNL     1      39.993  34.750  35.560  1.00  0.00    -0.194 N 
ATOM     21  H12 UNL     1      42.191  32.269  35.614  1.00  0.00     0.174 HD
ATOM     22  H11 UNL     1      41.495  32.924  34.262  1.00  0.00     0.174 HD
ATOM     23  H12 UNL     1      39.757  34.921  34.582  1.00  0.00     0.184 HD
ENDBRANCH  13  14
ENDBRANCH   1  13
BRANCH   5  24
HETATM   24  N4  UNL     1      38.055  41.584  34.751  1.00  0.00    -0.290 N 
HETATM   25  C8  UNL     1      37.277  42.508  35.357  1.00  0.00     0.341 C 
HETATM   26  O1  UNL     1      37.183  43.695  34.926  1.00  0.00    -0.245 OA
HETATM   27  N5  UNL     1      36.473  42.263  36.544  1.00  0.00    -0.237 N 
HETATM   28  N6  UNL     1      36.397  43.187  37.380  1.00  0.00    -0.245 N 
ATOM     29  H5  UNL     1      35.992  41.375  36.688  1.00  0.00     0.193 HD
ATOM     30  H6  UNL     1      35.831  43.009  38.210  1.00  0.00     0.208 HD
ATOM     31  H4  UNL     1      37.452  41.073  34.106  1.00  0.00     0.172 HD
BRANCH  28  32
HETATM   32  N7  UNL     1      37.002  44.423  37.294  1.00  0.00    -0.331 N 
ATOM     33  H72 UNL     1      37.065  44.945  38.168  1.00  0.00     0.178 HD
ATOM     34  H71 UNL     1      37.384  44.855  36.453  1.00  0.00     0.178 HD
ENDBRANCH  28  32
ENDBRANCH   5  24
BRANCH   6  35
HETATM   35  C9  UNL     1      40.303  43.019  33.583  1.00  0.00     0.157 C 
BRANCH  35  36
HETATM   36  C10 UNL     1      40.802  44.002  34.629  1.00  0.00     0.184 C 
BRANCH  36  37
HETATM   37  O2  UNL     1      39.784  44.447  35.448  1.00  0.00    -0.399 OA
ATOM     38  H2  UNL     1      40.115  44.842  36.246  1.00  0.00     0.209 HD
ENDBRANCH  36  37
ENDBRANCH  35  36
ENDBRANCH   6  35
TORSDOF 7
ENDMDL
