MODEL 1
REMARK VINA RESULT: -7.018731082      0.000      0.000
REMARK  6 active torsions:
REMARK  status: ('A' for Active; 'I' for Inactive)
REMARK    1  A    between atoms: N1_2  and  C3_4 
REMARK    2  A    between atoms: N1_2  and  C11_14 
REMARK    3  A    between atoms: C3_4  and  C4_5 
REMARK    4  A    between atoms: C4_5  and  C5_6 
REMARK    5  A    between atoms: C5_6  and  N2_7 
REMARK    6  A    between atoms: N2_7  and  C6_9 
ROOT
HETATM    1  C3  UNL     1     -26.359 152.108  58.015  1.00  0.00     0.238 C 
ENDROOT
BRANCH   1   2
HETATM    2  N1  UNL     1     -24.974 152.182  57.619  1.00  0.00    -0.070 N 
HETATM    3  C1  UNL     1     -24.202 151.393  58.563  1.00  0.00     0.272 C 
HETATM    4  C2  UNL     1     -24.570 153.562  57.694  1.00  0.00     0.272 C 
BRANCH   2   5
HETATM    5  C11 UNL     1     -24.830 151.722  56.272  1.00  0.00     0.189 C 
HETATM    6  C12 UNL     1     -25.307 150.302  56.058  1.00  0.00     0.033 C 
HETATM    7  C13 UNL     1     -25.558 150.181  54.549  1.00  0.00     0.002 C 
HETATM    8  C14 UNL     1     -24.276 150.423  53.798  1.00  0.00     0.000 C 
HETATM    9  C15 UNL     1     -23.136 150.746  54.706  1.00  0.00     0.002 C 
HETATM   10  C16 UNL     1     -23.449 151.821  55.722  1.00  0.00     0.033 C 
ENDBRANCH   2   5
ENDBRANCH   1   2
BRANCH   1  11
HETATM   11  C4  UNL     1     -26.862 153.352  58.692  1.00  0.00     0.047 C 
BRANCH  11  12
HETATM   12  C5  UNL     1     -28.174 153.729  58.030  1.00  0.00     0.115 C 
BRANCH  12  13
HETATM   13  N2  UNL     1     -28.947 152.647  57.554  1.00  0.00    -0.417 N 
ATOM     14  H2  UNL     1     -28.533 151.731  57.386  1.00  0.00     0.153 HD
BRANCH  13  15
HETATM   15  C6  UNL     1     -30.319 152.889  57.320  1.00  0.00     0.076 C 
HETATM   16  C7  UNL     1     -31.229 151.720  57.578  1.00  0.00     0.024 C 
HETATM   17  C8  UNL     1     -32.598 152.419  57.567  1.00  0.00     0.002 C 
HETATM   18  C9  UNL     1     -32.343 153.799  58.108  1.00  0.00     0.002 C 
HETATM   19  C10 UNL     1     -30.866 153.885  58.354  1.00  0.00     0.024 C 
ENDBRANCH  13  15
ENDBRANCH  12  13
ENDBRANCH  11  12
ENDBRANCH   1  11
TORSDOF 6
ENDMDL
MODEL 2
REMARK VINA RESULT: -7.008407158      0.691      1.237
REMARK  6 active torsions:
REMARK  status: ('A' for Active; 'I' for Inactive)
REMARK    1  A    between atoms: N1_2  and  C3_4 
REMARK    2  A    between atoms: N1_2  and  C11_14 
REMARK    3  A    between atoms: C3_4  and  C4_5 
REMARK    4  A    between atoms: C4_5  and  C5_6 
REMARK    5  A    between atoms: C5_6  and  N2_7 
REMARK    6  A    between atoms: N2_7  and  C6_9 
ROOT
HETATM    1  C3  UNL     1     -26.390 152.150  58.043  1.00  0.00     0.238 C 
ENDROOT
BRANCH   1   2
HETATM    2  N1  UNL     1     -25.002 152.223  57.653  1.00  0.00    -0.070 N 
HETATM    3  C1  UNL     1     -24.235 151.444  58.610  1.00  0.00     0.272 C 
HETATM    4  C2  UNL     1     -24.602 153.603  57.715  1.00  0.00     0.272 C 
BRANCH   2   5
HETATM    5  C11 UNL     1     -24.851 151.748  56.312  1.00  0.00     0.189 C 
HETATM    6  C12 UNL     1     -25.314 150.322  56.114  1.00  0.00     0.033 C 
HETATM    7  C13 UNL     1     -25.560 150.180  54.605  1.00  0.00     0.002 C 
HETATM    8  C14 UNL     1     -24.278 150.425  53.855  1.00  0.00     0.000 C 
HETATM    9  C15 UNL     1     -23.144 150.770  54.762  1.00  0.00     0.002 C 
HETATM   10  C16 UNL     1     -23.469 151.854  55.765  1.00  0.00     0.033 C 
ENDBRANCH   2   5
ENDBRANCH   1   2
BRANCH   1  11
HETATM   11  C4  UNL     1     -26.921 153.428  58.631  1.00  0.00     0.047 C 
BRANCH  11  12
HETATM   12  C5  UNL     1     -28.280 153.682  58.010  1.00  0.00     0.115 C 
BRANCH  12  13
HETATM   13  N2  UNL     1     -28.683 152.752  57.025  1.00  0.00    -0.417 N 
ATOM     14  H2  UNL     1     -28.167 152.646  56.152  1.00  0.00     0.153 HD
BRANCH  13  15
HETATM   15  C6  UNL     1     -29.831 151.976  57.302  1.00  0.00     0.076 C 
HETATM   16  C7  UNL     1     -31.038 152.755  57.746  1.00  0.00     0.024 C 
HETATM   17  C8  UNL     1     -32.131 151.683  57.614  1.00  0.00     0.002 C 
HETATM   18  C9  UNL     1     -31.700 150.817  56.462  1.00  0.00     0.002 C 
HETATM   19  C10 UNL     1     -30.376 151.356  56.007  1.00  0.00     0.024 C 
ENDBRANCH  13  15
ENDBRANCH  12  13
ENDBRANCH  11  12
ENDBRANCH   1  11
TORSDOF 6
ENDMDL
MODEL 3
REMARK VINA RESULT: -6.791395832      1.899      6.153
REMARK  6 active torsions:
REMARK  status: ('A' for Active; 'I' for Inactive)
REMARK    1  A    between atoms: N1_2  and  C3_4 
REMARK    2  A    between atoms: N1_2  and  C11_14 
REMARK    3  A    between atoms: C3_4  and  C4_5 
REMARK    4  A    between atoms: C4_5  and  C5_6 
REMARK    5  A    between atoms: C5_6  and  N2_7 
REMARK    6  A    between atoms: N2_7  and  C6_9 
ROOT
HETATM    1  C3  UNL     1     -24.830 151.134  56.655  1.00  0.00     0.238 C 
ENDROOT
BRANCH   1   2
HETATM    2  N1  UNL     1     -25.422 152.069  57.581  1.00  0.00    -0.070 N 
HETATM    3  C1  UNL     1     -25.039 153.406  57.163  1.00  0.00     0.272 C 
HETATM    4  C2  UNL     1     -24.883 151.793  58.886  1.00  0.00     0.272 C 
BRANCH   2   5
HETATM    5  C11 UNL     1     -26.841 151.889  57.610  1.00  0.00     0.189 C 
HETATM    6  C12 UNL     1     -27.386 151.141  56.413  1.00  0.00     0.033 C 
HETATM    7  C13 UNL     1     -28.756 150.610  56.856  1.00  0.00     0.002 C 
HETATM    8  C14 UNL     1     -29.659 151.760  57.211  1.00  0.00     0.000 C 
HETATM    9  C15 UNL     1     -28.978 153.082  57.076  1.00  0.00     0.002 C 
HETATM   10  C16 UNL     1     -27.627 153.146  57.752  1.00  0.00     0.033 C 
ENDBRANCH   2   5
ENDBRANCH   1   2
BRANCH   1  11
HETATM   11  C4  UNL     1     -23.531 151.608  56.066  1.00  0.00     0.047 C 
BRANCH  11  12
HETATM   12  C5  UNL     1     -23.302 150.827  54.787  1.00  0.00     0.115 C 
BRANCH  12  13
HETATM   13  N2  UNL     1     -24.435 150.159  54.271  1.00  0.00    -0.417 N 
ATOM     14  H2  UNL     1     -24.800 149.315  54.712  1.00  0.00     0.153 HD
BRANCH  13  15
HETATM   15  C6  UNL     1     -25.039 150.709  53.119  1.00  0.00     0.076 C 
HETATM   16  C7  UNL     1     -24.159 151.619  52.307  1.00  0.00     0.024 C 
HETATM   17  C8  UNL     1     -24.985 151.734  51.016  1.00  0.00     0.002 C 
HETATM   18  C9  UNL     1     -25.687 150.411  50.875  1.00  0.00     0.002 C 
HETATM   19  C10 UNL     1     -25.310 149.607  52.084  1.00  0.00     0.024 C 
ENDBRANCH  13  15
ENDBRANCH  12  13
ENDBRANCH  11  12
ENDBRANCH   1  11
TORSDOF 6
ENDMDL
MODEL 4
REMARK VINA RESULT: -6.667410384      1.837      6.122
REMARK  6 active torsions:
REMARK  status: ('A' for Active; 'I' for Inactive)
REMARK    1  A    between atoms: N1_2  and  C3_4 
REMARK    2  A    between atoms: N1_2  and  C11_14 
REMARK    3  A    between atoms: C3_4  and  C4_5 
REMARK    4  A    between atoms: C4_5  and  C5_6 
REMARK    5  A    between atoms: C5_6  and  N2_7 
REMARK    6  A    between atoms: N2_7  and  C6_9 
ROOT
HETATM    1  C3  UNL     1     -24.604 151.181  56.874  1.00  0.00     0.238 C 
ENDROOT
BRANCH   1   2
HETATM    2  N1  UNL     1     -25.311 152.250  57.538  1.00  0.00    -0.070 N 
HETATM    3  C1  UNL     1     -24.609 153.489  57.248  1.00  0.00     0.272 C 
HETATM    4  C2  UNL     1     -25.273 151.988  58.952  1.00  0.00     0.272 C 
BRANCH   2   5
HETATM    5  C11 UNL     1     -26.672 152.276  57.099  1.00  0.00     0.189 C 
HETATM    6  C12 UNL     1     -27.627 152.882  58.104  1.00  0.00     0.033 C 
HETATM    7  C13 UNL     1     -28.865 153.289  57.294  1.00  0.00     0.002 C 
HETATM    8  C14 UNL     1     -29.479 152.072  56.655  1.00  0.00     0.000 C 
HETATM    9  C15 UNL     1     -28.709 150.826  56.947  1.00  0.00     0.002 C 
HETATM   10  C16 UNL     1     -27.223 150.952  56.695  1.00  0.00     0.033 C 
ENDBRANCH   2   5
ENDBRANCH   1   2
BRANCH   1  11
HETATM   11  C4  UNL     1     -23.425 151.646  56.067  1.00  0.00     0.047 C 
BRANCH  11  12
HETATM   12  C5  UNL     1     -23.296 150.717  54.876  1.00  0.00     0.115 C 
BRANCH  12  13
HETATM   13  N2  UNL     1     -24.502 150.134  54.427  1.00  0.00    -0.417 N 
ATOM     14  H2  UNL     1     -24.940 149.364  54.932  1.00  0.00     0.153 HD
BRANCH  13  15
HETATM   15  C6  UNL     1     -25.075 150.664  53.249  1.00  0.00     0.076 C 
HETATM   16  C7  UNL     1     -24.158 151.517  52.418  1.00  0.00     0.024 C 
HETATM   17  C8  UNL     1     -24.964 151.614  51.114  1.00  0.00     0.002 C 
HETATM   18  C9  UNL     1     -25.705 150.310  51.008  1.00  0.00     0.002 C 
HETATM   19  C10 UNL     1     -25.367 149.536  52.248  1.00  0.00     0.024 C 
ENDBRANCH  13  15
ENDBRANCH  12  13
ENDBRANCH  11  12
ENDBRANCH   1  11
TORSDOF 6
ENDMDL
MODEL 5
REMARK VINA RESULT: -6.639755043      0.899      1.803
REMARK  6 active torsions:
REMARK  status: ('A' for Active; 'I' for Inactive)
REMARK    1  A    between atoms: N1_2  and  C3_4 
REMARK    2  A    between atoms: N1_2  and  C11_14 
REMARK    3  A    between atoms: C3_4  and  C4_5 
REMARK    4  A    between atoms: C4_5  and  C5_6 
REMARK    5  A    between atoms: C5_6  and  N2_7 
REMARK    6  A    between atoms: N2_7  and  C6_9 
ROOT
HETATM    1  C3  UNL     1     -26.692 152.305  57.670  1.00  0.00     0.238 C 
ENDROOT
BRANCH   1   2
HETATM    2  N1  UNL     1     -25.256 152.318  57.818  1.00  0.00    -0.070 N 
HETATM    3  C1  UNL     1     -24.948 151.878  59.169  1.00  0.00     0.272 C 
HETATM    4  C2  UNL     1     -24.810 153.673  57.634  1.00  0.00     0.272 C 
BRANCH   2   5
HETATM    5  C11 UNL     1     -24.659 151.484  56.821  1.00  0.00     0.189 C 
HETATM    6  C12 UNL     1     -23.763 152.230  55.858  1.00  0.00     0.033 C 
HETATM    7  C13 UNL     1     -22.852 151.161  55.239  1.00  0.00     0.002 C 
HETATM    8  C14 UNL     1     -23.684 150.147  54.503  1.00  0.00     0.000 C 
HETATM    9  C15 UNL     1     -25.146 150.429  54.602  1.00  0.00     0.002 C 
HETATM   10  C16 UNL     1     -25.625 150.688  56.013  1.00  0.00     0.033 C 
ENDBRANCH   2   5
ENDBRANCH   1   2
BRANCH   1  11
HETATM   11  C4  UNL     1     -27.384 153.428  58.389  1.00  0.00     0.047 C 
BRANCH  11  12
HETATM   12  C5  UNL     1     -28.495 153.928  57.487  1.00  0.00     0.115 C 
BRANCH  12  13
HETATM   13  N2  UNL     1     -29.808 153.686  57.948  1.00  0.00    -0.417 N 
ATOM     14  H2  UNL     1     -30.336 154.399  58.450  1.00  0.00     0.153 HD
BRANCH  13  15
HETATM   15  C6  UNL     1     -30.360 152.412  57.683  1.00  0.00     0.076 C 
HETATM   16  C7  UNL     1     -31.862 152.353  57.675  1.00  0.00     0.024 C 
HETATM   17  C8  UNL     1     -32.089 150.975  57.034  1.00  0.00     0.002 C 
HETATM   18  C9  UNL     1     -30.941 150.788  56.080  1.00  0.00     0.002 C 
HETATM   19  C10 UNL     1     -30.071 152.000  56.231  1.00  0.00     0.024 C 
ENDBRANCH  13  15
ENDBRANCH  12  13
ENDBRANCH  11  12
ENDBRANCH   1  11
TORSDOF 6
ENDMDL
