MODEL 1
REMARK VINA RESULT: -7.235190300      0.000      0.000
REMARK  6 active torsions:
REMARK  status: ('A' for Active; 'I' for Inactive)
REMARK    1  A    between atoms: C2_2  and  C4_4 
REMARK    2  A    between atoms: C4_4  and  C5_5 
REMARK    3  A    between atoms: C5_5  and  N1_6 
REMARK       I    between atoms: N1_6  and  C6_8 
REMARK    4  A    between atoms: C6_8  and  C7_10 
REMARK    5  A    between atoms: C7_10  and  C10_13 
REMARK    6  A    between atoms: C10_13  and  C11_14 
ROOT
HETATM    1  C7  UNL     1     -26.460 154.092  58.209  1.00  0.00     0.034 C 
HETATM    2  C8  UNL     1     -26.578 155.314  57.358  1.00  0.00     0.025 C 
HETATM    3  C9  UNL     1     -25.894 154.510  59.550  1.00  0.00     0.025 C 
ENDROOT
BRANCH   1   4
HETATM    4  C6  UNL     1     -25.385 153.235  57.609  1.00  0.00     0.225 C 
HETATM    5  N1  UNL     1     -25.534 151.842  57.608  1.00  0.00    -0.360 N 
ATOM      6  H1  UNL     1     -26.364 151.410  58.012  1.00  0.00     0.162 HD
HETATM    7  O1  UNL     1     -24.390 153.780  57.126  1.00  0.00    -0.273 OA
BRANCH   5   8
HETATM    8  C5  UNL     1     -24.475 151.013  57.014  1.00  0.00     0.123 C 
BRANCH   8   9
HETATM    9  C4  UNL     1     -24.971 150.329  55.770  1.00  0.00     0.023 C 
BRANCH   9  10
HETATM   10  C2  UNL     1     -23.838 150.375  54.754  1.00  0.00    -0.021 C 
HETATM   11  C1  UNL     1     -22.752 151.281  55.291  1.00  0.00     0.009 C 
HETATM   12  C3  UNL     1     -24.417 150.924  53.456  1.00  0.00     0.009 C 
ENDBRANCH   9  10
ENDBRANCH   8   9
ENDBRANCH   5   8
ENDBRANCH   1   4
BRANCH   1  13
HETATM   13  C10 UNL     1     -27.677 153.283  58.364  1.00  0.00     0.023 C 
BRANCH  13  14
HETATM   14  C11 UNL     1     -28.921 153.589  57.658  1.00  0.00    -0.013 C 
HETATM   15  C12 UNL     1     -30.090 153.952  58.457  1.00  0.00     0.005 C 
HETATM   16  C13 UNL     1     -31.426 153.480  57.951  1.00  0.00     0.000 C 
HETATM   17  C14 UNL     1     -31.454 152.147  57.311  1.00  0.00     0.000 C 
HETATM   18  C15 UNL     1     -30.144 151.456  57.160  1.00  0.00     0.000 C 
HETATM   19  C16 UNL     1     -29.163 152.474  56.651  1.00  0.00     0.005 C 
ENDBRANCH  13  14
ENDBRANCH   1  13
TORSDOF 6
ENDMDL
MODEL 2
REMARK VINA RESULT: -7.201059038      1.268      1.878
REMARK  6 active torsions:
REMARK  status: ('A' for Active; 'I' for Inactive)
REMARK    1  A    between atoms: C2_2  and  C4_4 
REMARK    2  A    between atoms: C4_4  and  C5_5 
REMARK    3  A    between atoms: C5_5  and  N1_6 
REMARK       I    between atoms: N1_6  and  C6_8 
REMARK    4  A    between atoms: C6_8  and  C7_10 
REMARK    5  A    between atoms: C7_10  and  C10_13 
REMARK    6  A    between atoms: C10_13  and  C11_14 
ROOT
HETATM    1  C7  UNL     1     -25.995 152.478  57.829  1.00  0.00     0.034 C 
HETATM    2  C8  UNL     1     -25.717 153.900  57.468  1.00  0.00     0.025 C 
HETATM    3  C9  UNL     1     -25.656 152.294  59.294  1.00  0.00     0.025 C 
ENDROOT
BRANCH   1   4
HETATM    4  C6  UNL     1     -24.986 151.631  57.111  1.00  0.00     0.225 C 
HETATM    5  N1  UNL     1     -25.330 151.031  55.894  1.00  0.00    -0.360 N 
ATOM      6  H1  UNL     1     -26.260 151.164  55.496  1.00  0.00     0.162 HD
HETATM    7  O1  UNL     1     -23.869 151.484  57.612  1.00  0.00    -0.273 OA
BRANCH   5   8
HETATM    8  C5  UNL     1     -24.332 150.207  55.198  1.00  0.00     0.123 C 
BRANCH   8   9
HETATM    9  C4  UNL     1     -23.755 150.949  54.024  1.00  0.00     0.023 C 
BRANCH   9  10
HETATM   10  C2  UNL     1     -24.864 151.079  52.989  1.00  0.00    -0.021 C 
HETATM   11  C1  UNL     1     -25.288 149.689  52.567  1.00  0.00     0.009 C 
HETATM   12  C3  UNL     1     -24.294 151.859  51.812  1.00  0.00     0.009 C 
ENDBRANCH   9  10
ENDBRANCH   8   9
ENDBRANCH   5   8
ENDBRANCH   1   4
BRANCH   1  13
HETATM   13  C10 UNL     1     -27.340 151.975  57.518  1.00  0.00     0.023 C 
BRANCH  13  14
HETATM   14  C11 UNL     1     -28.452 152.861  57.173  1.00  0.00    -0.013 C 
HETATM   15  C12 UNL     1     -29.045 153.662  58.242  1.00  0.00     0.005 C 
HETATM   16  C13 UNL     1     -30.531 153.887  58.171  1.00  0.00     0.000 C 
HETATM   17  C14 UNL     1     -31.344 152.760  57.665  1.00  0.00     0.000 C 
HETATM   18  C15 UNL     1     -30.596 151.560  57.200  1.00  0.00     0.000 C 
HETATM   19  C16 UNL     1     -29.451 152.049  56.361  1.00  0.00     0.005 C 
ENDBRANCH  13  14
ENDBRANCH   1  13
TORSDOF 6
ENDMDL
MODEL 3
REMARK VINA RESULT: -7.068696506      1.071      1.461
REMARK  6 active torsions:
REMARK  status: ('A' for Active; 'I' for Inactive)
REMARK    1  A    between atoms: C2_2  and  C4_4 
REMARK    2  A    between atoms: C4_4  and  C5_5 
REMARK    3  A    between atoms: C5_5  and  N1_6 
REMARK       I    between atoms: N1_6  and  C6_8 
REMARK    4  A    between atoms: C6_8  and  C7_10 
REMARK    5  A    between atoms: C7_10  and  C10_13 
REMARK    6  A    between atoms: C10_13  and  C11_14 
ROOT
HETATM    1  C7  UNL     1     -26.455 152.817  57.928  1.00  0.00     0.034 C 
HETATM    2  C8  UNL     1     -26.261 154.259  57.589  1.00  0.00     0.025 C 
HETATM    3  C9  UNL     1     -26.055 152.621  59.375  1.00  0.00     0.025 C 
ENDROOT
BRANCH   1   4
HETATM    4  C6  UNL     1     -25.432 152.038  57.156  1.00  0.00     0.225 C 
HETATM    5  N1  UNL     1     -25.810 150.853  56.511  1.00  0.00    -0.360 N 
ATOM      6  H1  UNL     1     -26.772 150.518  56.566  1.00  0.00     0.162 HD
HETATM    7  O1  UNL     1     -24.276 152.462  57.104  1.00  0.00    -0.273 OA
BRANCH   5   8
HETATM    8  C5  UNL     1     -24.800 150.100  55.755  1.00  0.00     0.123 C 
BRANCH   8   9
HETATM    9  C4  UNL     1     -24.980 150.306  54.276  1.00  0.00     0.023 C 
BRANCH   9  10
HETATM   10  C2  UNL     1     -23.997 151.389  53.854  1.00  0.00    -0.021 C 
HETATM   11  C1  UNL     1     -24.038 151.510  52.347  1.00  0.00     0.009 C 
HETATM   12  C3  UNL     1     -22.617 150.957  54.333  1.00  0.00     0.009 C 
ENDBRANCH   9  10
ENDBRANCH   8   9
ENDBRANCH   5   8
ENDBRANCH   1   4
BRANCH   1  13
HETATM   13  C10 UNL     1     -27.785 152.254  57.653  1.00  0.00     0.023 C 
BRANCH  13  14
HETATM   14  C11 UNL     1     -28.935 153.086  57.300  1.00  0.00    -0.013 C 
HETATM   15  C12 UNL     1     -29.560 153.875  58.359  1.00  0.00     0.005 C 
HETATM   16  C13 UNL     1     -31.055 154.033  58.289  1.00  0.00     0.000 C 
HETATM   17  C14 UNL     1     -31.819 152.865  57.800  1.00  0.00     0.000 C 
HETATM   18  C15 UNL     1     -31.019 151.693  57.349  1.00  0.00     0.000 C 
HETATM   19  C16 UNL     1     -29.899 152.221  56.500  1.00  0.00     0.005 C 
ENDBRANCH  13  14
ENDBRANCH   1  13
TORSDOF 6
ENDMDL
MODEL 4
REMARK VINA RESULT: -6.805335664      1.500      6.382
REMARK  6 active torsions:
REMARK  status: ('A' for Active; 'I' for Inactive)
REMARK    1  A    between atoms: C2_2  and  C4_4 
REMARK    2  A    between atoms: C4_4  and  C5_5 
REMARK    3  A    between atoms: C5_5  and  N1_6 
REMARK       I    between atoms: N1_6  and  C6_8 
REMARK    4  A    between atoms: C6_8  and  C7_10 
REMARK    5  A    between atoms: C7_10  and  C10_13 
REMARK    6  A    between atoms: C10_13  and  C11_14 
ROOT
HETATM    1  C7  UNL     1     -25.774 152.930  58.168  1.00  0.00     0.034 C 
HETATM    2  C8  UNL     1     -25.350 152.048  59.297  1.00  0.00     0.025 C 
HETATM    3  C9  UNL     1     -25.875 154.346  58.695  1.00  0.00     0.025 C 
ENDROOT
BRANCH   1   4
HETATM    4  C6  UNL     1     -27.187 152.565  57.825  1.00  0.00     0.225 C 
HETATM    5  N1  UNL     1     -28.148 153.575  57.694  1.00  0.00    -0.360 N 
ATOM      6  H1  UNL     1     -27.893 154.553  57.832  1.00  0.00     0.162 HD
HETATM    7  O1  UNL     1     -27.472 151.376  57.662  1.00  0.00    -0.273 OA
BRANCH   5   8
HETATM    8  C5  UNL     1     -29.529 153.205  57.353  1.00  0.00     0.123 C 
BRANCH   8   9
HETATM    9  C4  UNL     1     -30.508 153.968  58.204  1.00  0.00     0.023 C 
BRANCH   9  10
HETATM   10  C2  UNL     1     -31.767 153.116  58.305  1.00  0.00    -0.021 C 
HETATM   11  C1  UNL     1     -31.624 151.939  57.366  1.00  0.00     0.009 C 
HETATM   12  C3  UNL     1     -32.942 153.999  57.902  1.00  0.00     0.009 C 
ENDBRANCH   9  10
ENDBRANCH   8   9
ENDBRANCH   5   8
ENDBRANCH   1   4
BRANCH   1  13
HETATM   13  C10 UNL     1     -24.959 152.866  56.947  1.00  0.00     0.023 C 
BRANCH  13  14
HETATM   14  C11 UNL     1     -24.053 151.753  56.662  1.00  0.00    -0.013 C 
HETATM   15  C12 UNL     1     -22.792 152.052  55.986  1.00  0.00     0.005 C 
HETATM   16  C13 UNL     1     -22.291 151.025  55.007  1.00  0.00     0.000 C 
HETATM   17  C14 UNL     1     -23.317 150.324  54.205  1.00  0.00     0.000 C 
HETATM   18  C15 UNL     1     -24.737 150.648  54.516  1.00  0.00     0.000 C 
HETATM   19  C16 UNL     1     -24.874 150.648  56.012  1.00  0.00     0.005 C 
ENDBRANCH  13  14
ENDBRANCH   1  13
TORSDOF 6
ENDMDL
MODEL 5
REMARK VINA RESULT: -6.723664059      1.520      5.806
REMARK  6 active torsions:
REMARK  status: ('A' for Active; 'I' for Inactive)
REMARK    1  A    between atoms: C2_2  and  C4_4 
REMARK    2  A    between atoms: C4_4  and  C5_5 
REMARK    3  A    between atoms: C5_5  and  N1_6 
REMARK       I    between atoms: N1_6  and  C6_8 
REMARK    4  A    between atoms: C6_8  and  C7_10 
REMARK    5  A    between atoms: C7_10  and  C10_13 
REMARK    6  A    between atoms: C10_13  and  C11_14 
ROOT
HETATM    1  C7  UNL     1     -25.829 153.166  58.261  1.00  0.00     0.034 C 
HETATM    2  C8  UNL     1     -25.646 152.103  59.293  1.00  0.00     0.025 C 
HETATM    3  C9  UNL     1     -25.462 154.494  58.889  1.00  0.00     0.025 C 
ENDROOT
BRANCH   1   4
HETATM    4  C6  UNL     1     -27.301 153.279  57.996  1.00  0.00     0.225 C 
HETATM    5  N1  UNL     1     -28.029 152.135  57.645  1.00  0.00    -0.360 N 
ATOM      6  H1  UNL     1     -27.565 151.231  57.568  1.00  0.00     0.162 HD
HETATM    7  O1  UNL     1     -27.839 154.384  58.095  1.00  0.00    -0.273 OA
BRANCH   5   8
HETATM    8  C5  UNL     1     -29.471 152.259  57.391  1.00  0.00     0.123 C 
BRANCH   8   9
HETATM    9  C4  UNL     1     -29.832 151.641  56.068  1.00  0.00     0.023 C 
BRANCH   9  10
HETATM   10  C2  UNL     1     -31.298 151.237  56.151  1.00  0.00    -0.021 C 
HETATM   11  C1  UNL     1     -31.891 151.846  57.402  1.00  0.00     0.009 C 
HETATM   12  C3  UNL     1     -31.344 149.716  56.206  1.00  0.00     0.009 C 
ENDBRANCH   9  10
ENDBRANCH   8   9
ENDBRANCH   5   8
ENDBRANCH   1   4
BRANCH   1  13
HETATM   13  C10 UNL     1     -25.132 152.963  56.983  1.00  0.00     0.023 C 
BRANCH  13  14
HETATM   14  C11 UNL     1     -24.283 151.800  56.724  1.00  0.00    -0.013 C 
HETATM   15  C12 UNL     1     -23.038 152.012  55.988  1.00  0.00     0.005 C 
HETATM   16  C13 UNL     1     -22.616 150.916  55.048  1.00  0.00     0.000 C 
HETATM   17  C14 UNL     1     -23.699 150.218  54.322  1.00  0.00     0.000 C 
HETATM   18  C15 UNL     1     -25.092 150.616  54.666  1.00  0.00     0.000 C 
HETATM   19  C16 UNL     1     -25.171 150.698  56.164  1.00  0.00     0.005 C 
ENDBRANCH  13  14
ENDBRANCH   1  13
TORSDOF 6
ENDMDL
