MODEL 1
REMARK VINA RESULT: -6.290836970      0.000      0.000
REMARK  6 active torsions:
REMARK  status: ('A' for Active; 'I' for Inactive)
REMARK    1  A    between atoms: C2_2  and  C3_3 
REMARK    2  A    between atoms: C3_3  and  C4_4 
REMARK    3  A    between atoms: C4_4  and  C6_6 
REMARK    4  A    between atoms: C6_6  and  C8_8 
REMARK    5  A    between atoms: C16_16  and  C17_17 
REMARK    6  A    between atoms: C17_17  and  N1_18 
ROOT
HETATM    1  C8  UNL     1     -25.421 151.071  57.013  1.00  0.00    -0.004 C 
HETATM    2  C9  UNL     1     -25.969 151.492  58.388  1.00  0.00     0.011 C 
HETATM    3  C10 UNL     1     -25.206 152.692  58.862  1.00  0.00    -0.005 C 
HETATM    4  C11 UNL     1     -26.136 153.807  59.268  1.00  0.00    -0.006 A 
HETATM    5  C12 UNL     1     -25.776 155.221  59.264  1.00  0.00     0.010 A 
HETATM    6  C13 UNL     1     -26.363 154.620  58.042  1.00  0.00    -0.009 A 
HETATM    7  C14 UNL     1     -25.353 154.158  56.998  1.00  0.00     0.010 C 
HETATM    8  C15 UNL     1     -24.494 153.188  57.667  1.00  0.00    -0.004 C 
HETATM    9  C16 UNL     1     -24.238 151.871  56.909  1.00  0.00     0.020 C 
ENDROOT
BRANCH   1  10
HETATM   10  C6  UNL     1     -26.504 150.982  56.016  1.00  0.00    -0.010 C 
HETATM   11  C7  UNL     1     -26.402 149.783  55.131  1.00  0.00     0.011 C 
BRANCH  10  12
HETATM   12  C4  UNL     1     -27.880 150.953  56.688  1.00  0.00    -0.011 C 
HETATM   13  C5  UNL     1     -28.646 149.705  56.450  1.00  0.00     0.010 C 
BRANCH  12  14
HETATM   14  C3  UNL     1     -28.618 152.205  56.322  1.00  0.00     0.031 C 
BRANCH  14  15
HETATM   15  C2  UNL     1     -29.703 152.488  57.333  1.00  0.00    -0.037 C 
HETATM   16  C1  UNL     1     -29.755 153.645  57.954  1.00  0.00     0.007 C 
ENDBRANCH  14  15
ENDBRANCH  12  14
ENDBRANCH  10  12
ENDBRANCH   1  10
BRANCH   9  17
HETATM   17  C17 UNL     1     -23.361 152.029  55.760  1.00  0.00     0.234 C 
BRANCH  17  18
HETATM   18  N1  UNL     1     -23.086 150.745  55.093  1.00  0.00    -0.079 N 
ATOM     19  H13 UNL     1     -22.149 150.409  55.311  1.00  0.00     0.274 HD
ATOM     20  H12 UNL     1     -23.629 149.989  55.509  1.00  0.00     0.274 HD
ATOM     21  H11 UNL     1     -23.235 150.797  54.085  1.00  0.00     0.274 HD
ENDBRANCH  17  18
ENDBRANCH   9  17
TORSDOF 6
ENDMDL
MODEL 2
REMARK VINA RESULT: -5.213677793      1.825      4.113
REMARK  6 active torsions:
REMARK  status: ('A' for Active; 'I' for Inactive)
REMARK    1  A    between atoms: C2_2  and  C3_3 
REMARK    2  A    between atoms: C3_3  and  C4_4 
REMARK    3  A    between atoms: C4_4  and  C6_6 
REMARK    4  A    between atoms: C6_6  and  C8_8 
REMARK    5  A    between atoms: C16_16  and  C17_17 
REMARK    6  A    between atoms: C17_17  and  N1_18 
ROOT
HETATM    1  C8  UNL     1     -26.866 151.042  57.083  1.00  0.00    -0.004 C 
HETATM    2  C9  UNL     1     -25.437 151.385  57.540  1.00  0.00     0.011 C 
HETATM    3  C10 UNL     1     -24.469 150.552  56.755  1.00  0.00    -0.005 C 
HETATM    4  C11 UNL     1     -23.397 151.407  56.126  1.00  0.00    -0.006 A 
HETATM    5  C12 UNL     1     -22.651 151.041  54.927  1.00  0.00     0.010 A 
HETATM    6  C13 UNL     1     -23.917 151.801  54.789  1.00  0.00    -0.009 A 
HETATM    7  C14 UNL     1     -25.154 150.954  54.515  1.00  0.00     0.010 C 
HETATM    8  C15 UNL     1     -25.256 150.015  55.626  1.00  0.00    -0.004 C 
HETATM    9  C16 UNL     1     -26.647 149.880  56.275  1.00  0.00     0.020 C 
ENDROOT
BRANCH   1  10
HETATM   10  C6  UNL     1     -27.599 152.257  56.683  1.00  0.00    -0.010 C 
HETATM   11  C7  UNL     1     -28.959 151.977  56.132  1.00  0.00     0.011 C 
BRANCH  10  12
HETATM   12  C4  UNL     1     -27.759 153.225  57.858  1.00  0.00    -0.011 C 
HETATM   13  C5  UNL     1     -29.147 153.707  58.065  1.00  0.00     0.010 C 
BRANCH  12  14
HETATM   14  C3  UNL     1     -26.745 154.320  57.716  1.00  0.00     0.031 C 
BRANCH  14  15
HETATM   15  C2  UNL     1     -25.796 154.311  58.892  1.00  0.00    -0.037 C 
HETATM   16  C1  UNL     1     -25.798 155.296  59.761  1.00  0.00     0.007 C 
ENDBRANCH  14  15
ENDBRANCH  12  14
ENDBRANCH  10  12
ENDBRANCH   1  10
BRANCH   9  17
HETATM   17  C17 UNL     1     -27.606 149.175  55.440  1.00  0.00     0.234 C 
BRANCH  17  18
HETATM   18  N1  UNL     1     -28.536 148.356  56.236  1.00  0.00    -0.079 N 
ATOM     19  H13 UNL     1     -28.032 147.740  56.874  1.00  0.00     0.274 HD
ATOM     20  H12 UNL     1     -29.035 148.922  56.921  1.00  0.00     0.274 HD
ATOM     21  H11 UNL     1     -29.183 147.830  55.648  1.00  0.00     0.274 HD
ENDBRANCH  17  18
ENDBRANCH   9  17
TORSDOF 6
ENDMDL
MODEL 3
REMARK VINA RESULT: -4.618964429      2.312      4.778
REMARK  6 active torsions:
REMARK  status: ('A' for Active; 'I' for Inactive)
REMARK    1  A    between atoms: C2_2  and  C3_3 
REMARK    2  A    between atoms: C3_3  and  C4_4 
REMARK    3  A    between atoms: C4_4  and  C6_6 
REMARK    4  A    between atoms: C6_6  and  C8_8 
REMARK    5  A    between atoms: C16_16  and  C17_17 
REMARK    6  A    between atoms: C17_17  and  N1_18 
ROOT
HETATM    1  C8  UNL     1     -25.675 150.838  56.665  1.00  0.00    -0.004 C 
HETATM    2  C9  UNL     1     -26.913 150.065  56.179  1.00  0.00     0.011 C 
HETATM    3  C10 UNL     1     -28.088 150.461  57.021  1.00  0.00    -0.005 C 
HETATM    4  C11 UNL     1     -29.257 150.883  56.166  1.00  0.00    -0.006 A 
HETATM    5  C12 UNL     1     -30.312 151.790  56.604  1.00  0.00     0.010 A 
HETATM    6  C13 UNL     1     -29.103 152.347  55.952  1.00  0.00    -0.009 A 
HETATM    7  C14 UNL     1     -28.018 152.834  56.906  1.00  0.00     0.010 C 
HETATM    8  C15 UNL     1     -27.656 151.685  57.727  1.00  0.00    -0.004 C 
HETATM    9  C16 UNL     1     -26.147 151.414  57.888  1.00  0.00     0.020 C 
ENDROOT
BRANCH   1  10
HETATM   10  C6  UNL     1     -25.031 151.560  55.553  1.00  0.00    -0.010 C 
HETATM   11  C7  UNL     1     -24.082 152.622  56.002  1.00  0.00     0.011 C 
BRANCH  10  12
HETATM   12  C4  UNL     1     -24.265 150.604  54.635  1.00  0.00    -0.011 C 
HETATM   13  C5  UNL     1     -22.795 150.809  54.633  1.00  0.00     0.010 C 
BRANCH  12  14
HETATM   14  C3  UNL     1     -24.891 150.643  53.273  1.00  0.00     0.031 C 
BRANCH  14  15
HETATM   15  C2  UNL     1     -24.187 151.655  52.401  1.00  0.00    -0.037 C 
HETATM   16  C1  UNL     1     -24.753 152.104  51.305  1.00  0.00     0.007 C 
ENDBRANCH  14  15
ENDBRANCH  12  14
ENDBRANCH  10  12
ENDBRANCH   1  10
BRANCH   9  17
HETATM   17  C17 UNL     1     -25.476 152.382  58.741  1.00  0.00     0.234 C 
BRANCH  17  18
HETATM   18  N1  UNL     1     -26.432 153.203  59.504  1.00  0.00    -0.079 N 
ATOM     19  H13 UNL     1     -26.440 152.942  60.489  1.00  0.00     0.274 HD
ATOM     20  H12 UNL     1     -26.105 154.164  59.594  1.00  0.00     0.274 HD
ATOM     21  H11 UNL     1     -27.371 153.168  59.105  1.00  0.00     0.274 HD
ENDBRANCH  17  18
ENDBRANCH   9  17
TORSDOF 6
ENDMDL
MODEL 4
REMARK VINA RESULT: -4.599844093      2.030      3.746
REMARK  6 active torsions:
REMARK  status: ('A' for Active; 'I' for Inactive)
REMARK    1  A    between atoms: C2_2  and  C3_3 
REMARK    2  A    between atoms: C3_3  and  C4_4 
REMARK    3  A    between atoms: C4_4  and  C6_6 
REMARK    4  A    between atoms: C6_6  and  C8_8 
REMARK    5  A    between atoms: C16_16  and  C17_17 
REMARK    6  A    between atoms: C17_17  and  N1_18 
ROOT
HETATM    1  C8  UNL     1     -27.339 151.093  56.982  1.00  0.00    -0.004 C 
HETATM    2  C9  UNL     1     -26.036 151.632  57.598  1.00  0.00     0.011 C 
HETATM    3  C10 UNL     1     -24.890 150.811  57.091  1.00  0.00    -0.005 C 
HETATM    4  C11 UNL     1     -23.801 151.685  56.520  1.00  0.00    -0.006 A 
HETATM    5  C12 UNL     1     -22.842 151.251  55.509  1.00  0.00     0.010 A 
HETATM    6  C13 UNL     1     -24.125 151.857  55.078  1.00  0.00    -0.009 A 
HETATM    7  C14 UNL     1     -25.230 150.862  54.739  1.00  0.00     0.010 C 
HETATM    8  C15 UNL     1     -25.436 150.062  55.941  1.00  0.00    -0.004 C 
HETATM    9  C16 UNL     1     -26.899 149.868  56.385  1.00  0.00     0.020 C 
ENDROOT
BRANCH   1  10
HETATM   10  C6  UNL     1     -28.092 152.169  56.312  1.00  0.00    -0.010 C 
HETATM   11  C7  UNL     1     -29.316 151.688  55.604  1.00  0.00     0.011 C 
BRANCH  10  12
HETATM   12  C4  UNL     1     -28.521 153.253  57.305  1.00  0.00    -0.011 C 
HETATM   13  C5  UNL     1     -27.481 153.612  58.301  1.00  0.00     0.010 C 
BRANCH  12  14
HETATM   14  C3  UNL     1     -29.836 152.856  57.907  1.00  0.00     0.031 C 
BRANCH  14  15
HETATM   15  C2  UNL     1     -30.662 154.083  58.215  1.00  0.00    -0.037 C 
HETATM   16  C1  UNL     1     -31.972 154.008  58.283  1.00  0.00     0.007 C 
ENDBRANCH  14  15
ENDBRANCH  12  14
ENDBRANCH  10  12
ENDBRANCH   1  10
BRANCH   9  17
HETATM   17  C17 UNL     1     -27.650 148.973  55.519  1.00  0.00     0.234 C 
BRANCH  17  18
HETATM   18  N1  UNL     1     -28.678 148.222  56.259  1.00  0.00    -0.079 N 
ATOM     19  H13 UNL     1     -29.600 148.641  56.138  1.00  0.00     0.274 HD
ATOM     20  H12 UNL     1     -28.856 147.315  55.828  1.00  0.00     0.274 HD
ATOM     21  H11 UNL     1     -28.444 148.123  57.246  1.00  0.00     0.274 HD
ENDBRANCH  17  18
ENDBRANCH   9  17
TORSDOF 6
ENDMDL
MODEL 5
REMARK VINA RESULT: -4.210413612      2.154      4.854
REMARK  6 active torsions:
REMARK  status: ('A' for Active; 'I' for Inactive)
REMARK    1  A    between atoms: C2_2  and  C3_3 
REMARK    2  A    between atoms: C3_3  and  C4_4 
REMARK    3  A    between atoms: C4_4  and  C6_6 
REMARK    4  A    between atoms: C6_6  and  C8_8 
REMARK    5  A    between atoms: C16_16  and  C17_17 
REMARK    6  A    between atoms: C17_17  and  N1_18 
ROOT
HETATM    1  C8  UNL     1     -26.034 152.037  57.564  1.00  0.00    -0.004 C 
HETATM    2  C9  UNL     1     -26.918 150.802  57.320  1.00  0.00     0.011 C 
HETATM    3  C10 UNL     1     -28.338 151.157  57.645  1.00  0.00    -0.005 C 
HETATM    4  C11 UNL     1     -29.265 150.800  56.509  1.00  0.00    -0.006 A 
HETATM    5  C12 UNL     1     -30.547 151.450  56.259  1.00  0.00     0.010 A 
HETATM    6  C13 UNL     1     -29.321 152.000  55.631  1.00  0.00    -0.009 A 
HETATM    7  C14 UNL     1     -28.664 153.148  56.390  1.00  0.00     0.010 C 
HETATM    8  C15 UNL     1     -28.356 152.632  57.718  1.00  0.00    -0.004 C 
HETATM    9  C16 UNL     1     -26.936 152.917  58.245  1.00  0.00     0.020 C 
ENDROOT
BRANCH   1  10
HETATM   10  C6  UNL     1     -25.236 152.361  56.368  1.00  0.00    -0.010 C 
HETATM   11  C7  UNL     1     -24.376 153.571  56.535  1.00  0.00     0.011 C 
BRANCH  10  12
HETATM   12  C4  UNL     1     -24.330 151.193  55.968  1.00  0.00    -0.011 C 
HETATM   13  C5  UNL     1     -22.879 151.499  56.033  1.00  0.00     0.010 C 
BRANCH  12  14
HETATM   14  C3  UNL     1     -24.787 150.666  54.641  1.00  0.00     0.031 C 
BRANCH  14  15
HETATM   15  C2  UNL     1     -23.854 151.126  53.545  1.00  0.00    -0.037 C 
HETATM   16  C1  UNL     1     -24.329 151.639  52.433  1.00  0.00     0.007 C 
ENDBRANCH  14  15
ENDBRANCH  12  14
ENDBRANCH  10  12
ENDBRANCH   1  10
BRANCH   9  17
HETATM   17  C17 UNL     1     -26.726 154.309  58.610  1.00  0.00     0.234 C 
BRANCH  17  18
HETATM   18  N1  UNL     1     -25.735 154.454  59.689  1.00  0.00    -0.079 N 
ATOM     19  H13 UNL     1     -25.185 155.305  59.574  1.00  0.00     0.274 HD
ATOM     20  H12 UNL     1     -26.185 154.673  60.578  1.00  0.00     0.274 HD
ATOM     21  H11 UNL     1     -25.135 153.633  59.771  1.00  0.00     0.274 HD
ENDBRANCH  17  18
ENDBRANCH   9  17
TORSDOF 6
ENDMDL
