MODEL 1
REMARK VINA RESULT: -7.028735589      0.000      0.000
REMARK  6 active torsions:
REMARK  status: ('A' for Active; 'I' for Inactive)
REMARK    1  A    between atoms: C2_2  and  C4_4 
REMARK    2  A    between atoms: C4_4  and  C5_5 
REMARK    3  A    between atoms: C5_5  and  C6_6 
REMARK    4  A    between atoms: C6_6  and  C7_7 
REMARK    5  A    between atoms: C6_6  and  C14_17 
REMARK       I    between atoms: C7_7  and  N1_9 
REMARK    6  A    between atoms: N1_9  and  C8_11 
ROOT
HETATM    1  C7  UNL     1     -26.560 152.110  57.557  1.00  0.00     0.222 C 
HETATM    2  O1  UNL     1     -26.563 151.610  58.710  1.00  0.00    -0.273 OA
HETATM    3  N1  UNL     1     -27.831 152.208  56.904  1.00  0.00    -0.356 N 
ATOM      4  H1  UNL     1     -27.868 152.609  55.966  1.00  0.00     0.162 HD
ENDROOT
BRANCH   1   5
HETATM    5  C6  UNL     1     -25.303 152.545  56.969  1.00  0.00     0.081 C 
BRANCH   5   6
HETATM    6  C5  UNL     1     -24.261 151.459  56.877  1.00  0.00     0.015 C 
BRANCH   6   7
HETATM    7  C4  UNL     1     -24.589 150.425  55.834  1.00  0.00     0.005 C 
BRANCH   7   8
HETATM    8  C2  UNL     1     -23.650 150.457  54.659  1.00  0.00    -0.023 C 
HETATM    9  C1  UNL     1     -22.436 151.285  55.100  1.00  0.00     0.009 C 
HETATM   10  C3  UNL     1     -24.215 151.117  53.447  1.00  0.00     0.009 C 
ENDBRANCH   7   8
ENDBRANCH   6   7
ENDBRANCH   5   6
BRANCH   5  11
HETATM   11  C14 UNL     1     -24.681 153.753  57.609  1.00  0.00    -0.010 C 
HETATM   12  C15 UNL     1     -23.952 154.619  56.603  1.00  0.00     0.010 C 
HETATM   13  C16 UNL     1     -25.624 154.625  58.365  1.00  0.00     0.010 C 
ENDBRANCH   5  11
ENDBRANCH   1   5
BRANCH   3  14
HETATM   14  C8  UNL     1     -29.057 151.766  57.515  1.00  0.00     0.084 C 
HETATM   15  C9  UNL     1     -30.031 152.935  57.533  1.00  0.00     0.025 C 
HETATM   16  C10 UNL     1     -31.439 152.477  57.855  1.00  0.00     0.002 C 
HETATM   17  C11 UNL     1     -31.996 151.639  56.746  1.00  0.00     0.000 C 
HETATM   18  C12 UNL     1     -30.852 151.135  55.886  1.00  0.00     0.002 C 
HETATM   19  C13 UNL     1     -29.711 150.636  56.783  1.00  0.00     0.025 C 
ENDBRANCH   3  14
TORSDOF 6
ENDMDL
MODEL 2
REMARK VINA RESULT: -6.911760635      1.284      5.917
REMARK  6 active torsions:
REMARK  status: ('A' for Active; 'I' for Inactive)
REMARK    1  A    between atoms: C2_2  and  C4_4 
REMARK    2  A    between atoms: C4_4  and  C5_5 
REMARK    3  A    between atoms: C5_5  and  C6_6 
REMARK    4  A    between atoms: C6_6  and  C7_7 
REMARK    5  A    between atoms: C6_6  and  C14_17 
REMARK       I    between atoms: C7_7  and  N1_9 
REMARK    6  A    between atoms: N1_9  and  C8_11 
ROOT
HETATM    1  C7  UNL     1     -27.994 151.435  56.846  1.00  0.00     0.222 C 
HETATM    2  O1  UNL     1     -28.123 150.300  57.368  1.00  0.00    -0.273 OA
HETATM    3  N1  UNL     1     -26.787 151.663  56.110  1.00  0.00    -0.356 N 
ATOM      4  H1  UNL     1     -26.646 152.573  55.672  1.00  0.00     0.162 HD
ENDROOT
BRANCH   1   5
HETATM    5  C6  UNL     1     -29.046 152.425  57.016  1.00  0.00     0.081 C 
BRANCH   5   6
HETATM    6  C5  UNL     1     -28.683 153.550  57.953  1.00  0.00     0.015 C 
BRANCH   6   7
HETATM    7  C4  UNL     1     -27.310 153.392  58.547  1.00  0.00     0.005 C 
BRANCH   7   8
HETATM    8  C2  UNL     1     -26.472 154.637  58.433  1.00  0.00    -0.023 C 
HETATM    9  C1  UNL     1     -25.264 154.264  57.563  1.00  0.00     0.009 C 
HETATM   10  C3  UNL     1     -25.939 155.132  59.734  1.00  0.00     0.009 C 
ENDBRANCH   7   8
ENDBRANCH   6   7
ENDBRANCH   5   6
BRANCH   5  11
HETATM   11  C14 UNL     1     -30.382 151.876  57.422  1.00  0.00    -0.010 C 
HETATM   12  C15 UNL     1     -31.277 152.940  58.024  1.00  0.00     0.010 C 
HETATM   13  C16 UNL     1     -31.146 151.198  56.336  1.00  0.00     0.010 C 
ENDBRANCH   5  11
ENDBRANCH   1   5
BRANCH   3  14
HETATM   14  C8  UNL     1     -25.764 150.660  55.962  1.00  0.00     0.084 C 
HETATM   15  C9  UNL     1     -25.330 150.631  54.504  1.00  0.00     0.025 C 
HETATM   16  C10 UNL     1     -24.045 149.847  54.325  1.00  0.00     0.002 C 
HETATM   17  C11 UNL     1     -22.893 150.553  54.969  1.00  0.00     0.000 C 
HETATM   18  C12 UNL     1     -23.427 151.562  55.969  1.00  0.00     0.002 C 
HETATM   19  C13 UNL     1     -24.550 150.923  56.797  1.00  0.00     0.025 C 
ENDBRANCH   3  14
TORSDOF 6
ENDMDL
MODEL 3
REMARK VINA RESULT: -6.229662350      2.508      6.082
REMARK  6 active torsions:
REMARK  status: ('A' for Active; 'I' for Inactive)
REMARK    1  A    between atoms: C2_2  and  C4_4 
REMARK    2  A    between atoms: C4_4  and  C5_5 
REMARK    3  A    between atoms: C5_5  and  C6_6 
REMARK    4  A    between atoms: C6_6  and  C7_7 
REMARK    5  A    between atoms: C6_6  and  C14_17 
REMARK       I    between atoms: C7_7  and  N1_9 
REMARK    6  A    between atoms: N1_9  and  C8_11 
ROOT
HETATM    1  C7  UNL     1     -24.706 150.495  54.879  1.00  0.00     0.222 C 
HETATM    2  O1  UNL     1     -23.487 150.207  54.786  1.00  0.00    -0.273 OA
HETATM    3  N1  UNL     1     -25.393 150.760  53.650  1.00  0.00    -0.356 N 
ATOM      4  H1  UNL     1     -26.384 150.997  53.686  1.00  0.00     0.162 HD
ENDROOT
BRANCH   1   5
HETATM    5  C6  UNL     1     -25.333 150.541  56.191  1.00  0.00     0.081 C 
BRANCH   5   6
HETATM    6  C5  UNL     1     -26.838 150.451  56.154  1.00  0.00     0.015 C 
BRANCH   6   7
HETATM    7  C4  UNL     1     -27.499 151.341  57.172  1.00  0.00     0.005 C 
BRANCH   7   8
HETATM    8  C2  UNL     1     -28.679 152.093  56.619  1.00  0.00    -0.023 C 
HETATM    9  C1  UNL     1     -28.930 153.264  57.579  1.00  0.00     0.009 C 
HETATM   10  C3  UNL     1     -29.937 151.295  56.562  1.00  0.00     0.009 C 
ENDBRANCH   7   8
ENDBRANCH   6   7
ENDBRANCH   5   6
BRANCH   5  11
HETATM   11  C14 UNL     1     -24.944 151.713  57.045  1.00  0.00    -0.010 C 
HETATM   12  C15 UNL     1     -24.185 151.288  58.285  1.00  0.00     0.010 C 
HETATM   13  C16 UNL     1     -24.141 152.761  56.355  1.00  0.00     0.010 C 
ENDBRANCH   5  11
ENDBRANCH   1   5
BRANCH   3  14
HETATM   14  C8  UNL     1     -24.741 150.706  52.367  1.00  0.00     0.084 C 
HETATM   15  C9  UNL     1     -25.754 150.226  51.337  1.00  0.00     0.025 C 
HETATM   16  C10 UNL     1     -25.253 150.451  49.925  1.00  0.00     0.002 C 
HETATM   17  C11 UNL     1     -25.173 151.913  49.611  1.00  0.00     0.000 C 
HETATM   18  C12 UNL     1     -25.169 152.698  50.909  1.00  0.00     0.002 C 
HETATM   19  C13 UNL     1     -24.217 152.032  51.912  1.00  0.00     0.025 C 
ENDBRANCH   3  14
TORSDOF 6
ENDMDL
MODEL 4
REMARK VINA RESULT: -6.218022680      1.686      6.522
REMARK  6 active torsions:
REMARK  status: ('A' for Active; 'I' for Inactive)
REMARK    1  A    between atoms: C2_2  and  C4_4 
REMARK    2  A    between atoms: C4_4  and  C5_5 
REMARK    3  A    between atoms: C5_5  and  C6_6 
REMARK    4  A    between atoms: C6_6  and  C7_7 
REMARK    5  A    between atoms: C6_6  and  C14_17 
REMARK       I    between atoms: C7_7  and  N1_9 
REMARK    6  A    between atoms: N1_9  and  C8_11 
ROOT
HETATM    1  C7  UNL     1     -27.930 151.069  56.844  1.00  0.00     0.222 C 
HETATM    2  O1  UNL     1     -28.112 149.831  56.738  1.00  0.00    -0.273 OA
HETATM    3  N1  UNL     1     -26.591 151.534  56.639  1.00  0.00    -0.356 N 
ATOM      4  H1  UNL     1     -26.403 152.534  56.717  1.00  0.00     0.162 HD
ENDROOT
BRANCH   1   5
HETATM    5  C6  UNL     1     -29.055 151.934  57.160  1.00  0.00     0.081 C 
BRANCH   5   6
HETATM    6  C5  UNL     1     -30.151 151.917  56.123  1.00  0.00     0.015 C 
BRANCH   6   7
HETATM    7  C4  UNL     1     -31.347 151.113  56.556  1.00  0.00     0.005 C 
BRANCH   7   8
HETATM    8  C2  UNL     1     -31.952 151.603  57.844  1.00  0.00    -0.023 C 
HETATM    9  C1  UNL     1     -32.718 150.414  58.438  1.00  0.00     0.009 C 
HETATM   10  C3  UNL     1     -32.931 152.713  57.671  1.00  0.00     0.009 C 
ENDBRANCH   7   8
ENDBRANCH   6   7
ENDBRANCH   5   6
BRANCH   5  11
HETATM   11  C14 UNL     1     -28.701 153.363  57.457  1.00  0.00    -0.010 C 
HETATM   12  C15 UNL     1     -29.912 154.177  57.866  1.00  0.00     0.010 C 
HETATM   13  C16 UNL     1     -27.651 153.552  58.498  1.00  0.00     0.010 C 
ENDBRANCH   5  11
ENDBRANCH   1   5
BRANCH   3  14
HETATM   14  C8  UNL     1     -25.498 150.650  56.329  1.00  0.00     0.084 C 
HETATM   15  C9  UNL     1     -25.259 150.694  54.826  1.00  0.00     0.025 C 
HETATM   16  C10 UNL     1     -23.935 150.055  54.458  1.00  0.00     0.002 C 
HETATM   17  C11 UNL     1     -22.787 150.868  54.970  1.00  0.00     0.000 C 
HETATM   18  C12 UNL     1     -23.286 151.796  56.062  1.00  0.00     0.002 C 
HETATM   19  C13 UNL     1     -24.218 151.026  57.008  1.00  0.00     0.025 C 
ENDBRANCH   3  14
TORSDOF 6
ENDMDL
MODEL 5
REMARK VINA RESULT: -6.152108953      1.305      3.612
REMARK  6 active torsions:
REMARK  status: ('A' for Active; 'I' for Inactive)
REMARK    1  A    between atoms: C2_2  and  C4_4 
REMARK    2  A    between atoms: C4_4  and  C5_5 
REMARK    3  A    between atoms: C5_5  and  C6_6 
REMARK    4  A    between atoms: C6_6  and  C7_7 
REMARK    5  A    between atoms: C6_6  and  C14_17 
REMARK       I    between atoms: C7_7  and  N1_9 
REMARK    6  A    between atoms: N1_9  and  C8_11 
ROOT
HETATM    1  C7  UNL     1     -27.511 151.238  57.022  1.00  0.00     0.222 C 
HETATM    2  O1  UNL     1     -28.305 150.426  57.558  1.00  0.00    -0.273 OA
HETATM    3  N1  UNL     1     -28.102 152.301  56.266  1.00  0.00    -0.356 N 
ATOM      4  H1  UNL     1     -27.489 152.980  55.816  1.00  0.00     0.162 HD
ENDROOT
BRANCH   1   5
HETATM    5  C6  UNL     1     -26.078 151.058  57.195  1.00  0.00     0.081 C 
BRANCH   5   6
HETATM    6  C5  UNL     1     -25.455 152.017  58.179  1.00  0.00     0.015 C 
BRANCH   6   7
HETATM    7  C4  UNL     1     -26.457 152.963  58.783  1.00  0.00     0.005 C 
BRANCH   7   8
HETATM    8  C2  UNL     1     -26.144 154.408  58.505  1.00  0.00    -0.023 C 
HETATM    9  C1  UNL     1     -24.936 154.412  57.560  1.00  0.00     0.009 C 
HETATM   10  C3  UNL     1     -25.757 155.190  59.714  1.00  0.00     0.009 C 
ENDBRANCH   7   8
ENDBRANCH   6   7
ENDBRANCH   5   6
BRANCH   5  11
HETATM   11  C14 UNL     1     -25.272 151.082  55.928  1.00  0.00    -0.010 C 
HETATM   12  C15 UNL     1     -23.783 151.124  56.201  1.00  0.00     0.010 C 
HETATM   13  C16 UNL     1     -25.533 149.953  54.990  1.00  0.00     0.010 C 
ENDBRANCH   5  11
ENDBRANCH   1   5
BRANCH   3  14
HETATM   14  C8  UNL     1     -29.527 152.449  56.113  1.00  0.00     0.084 C 
HETATM   15  C9  UNL     1     -30.190 151.142  56.522  1.00  0.00     0.025 C 
HETATM   16  C10 UNL     1     -31.685 151.315  56.704  1.00  0.00     0.002 C 
HETATM   17  C11 UNL     1     -31.984 152.186  57.883  1.00  0.00     0.000 C 
HETATM   18  C12 UNL     1     -30.741 152.982  58.238  1.00  0.00     0.002 C 
HETATM   19  C13 UNL     1     -30.103 153.541  56.960  1.00  0.00     0.025 C 
ENDBRANCH   3  14
TORSDOF 6
ENDMDL
