MODEL 1
REMARK VINA RESULT: -7.542441085      0.000      0.000
REMARK  11 active torsions:
REMARK  status: ('A' for Active; 'I' for Inactive)
REMARK    1  A    between atoms: C2_2  and  C3_3 
REMARK    2  A    between atoms: C3_3  and  C4_4 
REMARK    3  A    between atoms: C4_4  and  C5_5 
REMARK    4  A    between atoms: C5_5  and  C6_6 
REMARK    5  A    between atoms: C6_6  and  C7_7 
REMARK    6  A    between atoms: C7_7  and  C9_9 
REMARK    7  A    between atoms: C9_9  and  C10_10 
REMARK    8  A    between atoms: C10_10  and  C11_11 
REMARK    9  A    between atoms: C11_11  and  N1_12 
REMARK   10  A    between atoms: C17_18  and  C18_19 
REMARK       I    between atoms: N3_26  and  C23_27 
REMARK   11  A    between atoms: C23_27  and  C24_29 
ROOT
HETATM    1  N1  UNL     1       5.146   5.932  15.434  1.00  0.00    -0.061 N 
HETATM    2  C12 UNL     1       4.886   7.283  14.921  1.00  0.00     0.243 C 
HETATM    3  C13 UNL     1       3.411   7.383  15.203  1.00  0.00     0.021 C 
HETATM    4  C14 UNL     1       2.960   6.058  14.560  1.00  0.00     0.040 C 
HETATM    5  C15 UNL     1       3.816   5.487  15.707  1.00  0.00     0.196 C 
HETATM    6  C16 UNL     1       3.249   6.643  16.489  1.00  0.00     0.036 C 
HETATM    7  C17 UNL     1       4.021   7.071  17.676  1.00  0.00     0.093 C 
HETATM    8  C19 UNL     1       5.434   6.655  17.782  1.00  0.00     0.012 C 
HETATM    9  C20 UNL     1       5.673   5.706  18.959  1.00  0.00     0.015 C 
HETATM   10  C21 UNL     1       7.155   5.527  19.206  1.00  0.00     0.021 C 
HETATM   11  C22 UNL     1       7.844   6.812  19.545  1.00  0.00     0.126 C 
HETATM   12  N3  UNL     1       6.884   7.876  19.337  1.00  0.00    -0.347 N 
HETATM   13  C23 UNL     1       6.563   8.818  20.371  1.00  0.00     0.256 C 
HETATM   14  O2  UNL     1       5.725   9.740  20.175  1.00  0.00    -0.267 OA
HETATM   15  C31 UNL     1       6.267   7.929  18.027  1.00  0.00     0.138 C 
HETATM   16  C32 UNL     1       6.010   5.973  16.573  1.00  0.00     0.249 C 
ENDROOT
BRANCH   7  17
HETATM   17  C18 UNL     1       3.214   6.649  18.880  1.00  0.00     0.236 C 
HETATM   18  N2  UNL     1       2.361   5.518  18.819  1.00  0.00    -0.062 NA
HETATM   19  O1  UNL     1       3.255   7.261  19.973  1.00  0.00    -0.276 OA
ENDBRANCH   7  17
BRANCH   1  20
HETATM   20  C11 UNL     1       5.718   5.051  14.441  1.00  0.00     0.238 C 
BRANCH  20  21
HETATM   21  C10 UNL     1       6.691   4.070  14.994  1.00  0.00     0.028 C 
BRANCH  21  22
HETATM   22  C9  UNL     1       6.181   2.660  14.844  1.00  0.00     0.006 C 
BRANCH  22  23
HETATM   23  C7  UNL     1       6.547   1.858  16.042  1.00  0.00    -0.019 C 
HETATM   24  C8  UNL     1       5.960   0.472  15.905  1.00  0.00     0.010 C 
BRANCH  23  25
HETATM   25  C6  UNL     1       5.991   2.446  17.328  1.00  0.00     0.004 C 
BRANCH  25  26
HETATM   26  C5  UNL     1       6.155   1.506  18.507  1.00  0.00     0.000 C 
BRANCH  26  27
HETATM   27  C4  UNL     1       7.448   1.581  19.200  1.00  0.00     0.000 C 
BRANCH  27  28
HETATM   28  C3  UNL     1       8.635   0.886  18.703  1.00  0.00    -0.000 C 
BRANCH  28  29
HETATM   29  C2  UNL     1       9.682   1.595  17.953  1.00  0.00    -0.005 C 
HETATM   30  C1  UNL     1       9.560   3.080  17.953  1.00  0.00     0.005 C 
ENDBRANCH  28  29
ENDBRANCH  27  28
ENDBRANCH  26  27
ENDBRANCH  25  26
ENDBRANCH  23  25
ENDBRANCH  22  23
ENDBRANCH  21  22
ENDBRANCH  20  21
ENDBRANCH   1  20
BRANCH  13  31
HETATM   31  C24 UNL     1       7.176   8.767  21.681  1.00  0.00     0.060 A 
HETATM   32  C25 UNL     1       8.260   9.553  21.969  1.00  0.00     0.109 A 
HETATM   33  N4  UNL     1       8.862   9.530  23.192  1.00  0.00    -0.331 N 
HETATM   34  C26 UNL     1       8.371   8.700  24.158  1.00  0.00     0.273 A 
ATOM     35  H4  UNL     1       9.669  10.125  23.383  1.00  0.00     0.168 HD
HETATM   36  O3  UNL     1       8.943   8.693  25.285  1.00  0.00    -0.266 OA
HETATM   37  C27 UNL     1       7.287   7.889  23.927  1.00  0.00     0.112 A 
HETATM   38  N5  UNL     1       6.642   7.012  24.703  1.00  0.00    -0.361 N 
HETATM   39  C30 UNL     1       6.690   7.933  22.664  1.00  0.00     0.015 A 
HETATM   40  C28 UNL     1       5.617   6.455  23.998  1.00  0.00     0.089 A 
ATOM     41  H5  UNL     1       6.880   6.793  25.670  1.00  0.00     0.165 HD
HETATM   42  C29 UNL     1       5.654   7.028  22.743  1.00  0.00     0.032 A 
ENDBRANCH  13  31
TORSDOF 11
ENDMDL
MODEL 2
REMARK VINA RESULT: -7.472097838      0.621      1.189
REMARK  11 active torsions:
REMARK  status: ('A' for Active; 'I' for Inactive)
REMARK    1  A    between atoms: C2_2  and  C3_3 
REMARK    2  A    between atoms: C3_3  and  C4_4 
REMARK    3  A    between atoms: C4_4  and  C5_5 
REMARK    4  A    between atoms: C5_5  and  C6_6 
REMARK    5  A    between atoms: C6_6  and  C7_7 
REMARK    6  A    between atoms: C7_7  and  C9_9 
REMARK    7  A    between atoms: C9_9  and  C10_10 
REMARK    8  A    between atoms: C10_10  and  C11_11 
REMARK    9  A    between atoms: C11_11  and  N1_12 
REMARK   10  A    between atoms: C17_18  and  C18_19 
REMARK       I    between atoms: N3_26  and  C23_27 
REMARK   11  A    between atoms: C23_27  and  C24_29 
ROOT
HETATM    1  N1  UNL     1       4.737   6.283  15.432  1.00  0.00    -0.061 N 
HETATM    2  C12 UNL     1       4.501   7.675  15.028  1.00  0.00     0.243 C 
HETATM    3  C13 UNL     1       3.060   7.819  15.435  1.00  0.00     0.021 C 
HETATM    4  C14 UNL     1       2.497   6.560  14.749  1.00  0.00     0.040 C 
HETATM    5  C15 UNL     1       3.412   5.878  15.783  1.00  0.00     0.196 C 
HETATM    6  C16 UNL     1       2.963   7.002  16.681  1.00  0.00     0.036 C 
HETATM    7  C17 UNL     1       3.846   7.316  17.826  1.00  0.00     0.093 C 
HETATM    8  C19 UNL     1       5.241   6.835  17.790  1.00  0.00     0.012 C 
HETATM    9  C20 UNL     1       5.526   5.799  18.881  1.00  0.00     0.015 C 
HETATM   10  C21 UNL     1       7.013   5.542  18.995  1.00  0.00     0.021 C 
HETATM   11  C22 UNL     1       7.787   6.771  19.358  1.00  0.00     0.126 C 
HETATM   12  N3  UNL     1       6.864   7.886  19.296  1.00  0.00    -0.347 N 
HETATM   13  C23 UNL     1       6.670   8.770  20.411  1.00  0.00     0.256 C 
HETATM   14  O2  UNL     1       5.864   9.737  20.343  1.00  0.00    -0.267 OA
HETATM   15  C31 UNL     1       6.151   8.053  18.047  1.00  0.00     0.138 C 
HETATM   16  C32 UNL     1       5.688   6.212  16.497  1.00  0.00     0.249 C 
ENDROOT
BRANCH   7  17
HETATM   17  C18 UNL     1       3.116   6.849  19.062  1.00  0.00     0.236 C 
HETATM   18  N2  UNL     1       2.202   5.766  18.998  1.00  0.00    -0.062 NA
HETATM   19  O1  UNL     1       3.277   7.379  20.186  1.00  0.00    -0.276 OA
ENDBRANCH   7  17
BRANCH   1  20
HETATM   20  C11 UNL     1       5.187   5.448  14.342  1.00  0.00     0.238 C 
BRANCH  20  21
HETATM   21  C10 UNL     1       6.371   4.610  14.674  1.00  0.00     0.028 C 
BRANCH  21  22
HETATM   22  C9  UNL     1       6.063   3.146  14.500  1.00  0.00     0.006 C 
BRANCH  22  23
HETATM   23  C7  UNL     1       7.139   2.323  15.115  1.00  0.00    -0.019 C 
HETATM   24  C8  UNL     1       6.537   1.046  15.652  1.00  0.00     0.010 C 
BRANCH  23  25
HETATM   25  C6  UNL     1       7.808   3.022  16.287  1.00  0.00     0.004 C 
BRANCH  25  26
HETATM   26  C5  UNL     1       9.049   2.291  16.759  1.00  0.00     0.000 C 
BRANCH  26  27
HETATM   27  C4  UNL     1       9.130   2.053  18.207  1.00  0.00     0.000 C 
BRANCH  27  28
HETATM   28  C3  UNL     1       8.155   1.221  18.910  1.00  0.00    -0.000 C 
BRANCH  28  29
HETATM   29  C2  UNL     1       7.138   1.810  19.795  1.00  0.00    -0.005 C 
HETATM   30  C1  UNL     1       5.771   1.900  19.209  1.00  0.00     0.005 C 
ENDBRANCH  28  29
ENDBRANCH  27  28
ENDBRANCH  26  27
ENDBRANCH  25  26
ENDBRANCH  23  25
ENDBRANCH  22  23
ENDBRANCH  21  22
ENDBRANCH  20  21
ENDBRANCH   1  20
BRANCH  13  31
HETATM   31  C24 UNL     1       7.381   8.605  21.662  1.00  0.00     0.060 A 
HETATM   32  C25 UNL     1       8.591   9.217  21.855  1.00  0.00     0.109 A 
HETATM   33  N4  UNL     1       9.288   9.083  23.019  1.00  0.00    -0.331 N 
HETATM   34  C26 UNL     1       8.764   8.318  24.021  1.00  0.00     0.273 A 
ATOM     35  H4  UNL     1      10.188   9.548  23.140  1.00  0.00     0.168 HD
HETATM   36  O3  UNL     1       9.425   8.206  25.093  1.00  0.00    -0.266 OA
HETATM   37  C27 UNL     1       7.556   7.680  23.884  1.00  0.00     0.112 A 
HETATM   38  N5  UNL     1       6.857   6.895  24.711  1.00  0.00    -0.361 N 
HETATM   39  C30 UNL     1       6.863   7.835  22.680  1.00  0.00     0.015 A 
HETATM   40  C28 UNL     1       5.703   6.509  24.097  1.00  0.00     0.089 A 
ATOM     41  H5  UNL     1       7.143   6.626  25.652  1.00  0.00     0.165 HD
HETATM   42  C29 UNL     1       5.715   7.093  22.846  1.00  0.00     0.032 A 
ENDBRANCH  13  31
TORSDOF 11
ENDMDL
MODEL 3
REMARK VINA RESULT: -7.452434215      3.541      5.342
REMARK  11 active torsions:
REMARK  status: ('A' for Active; 'I' for Inactive)
REMARK    1  A    between atoms: C2_2  and  C3_3 
REMARK    2  A    between atoms: C3_3  and  C4_4 
REMARK    3  A    between atoms: C4_4  and  C5_5 
REMARK    4  A    between atoms: C5_5  and  C6_6 
REMARK    5  A    between atoms: C6_6  and  C7_7 
REMARK    6  A    between atoms: C7_7  and  C9_9 
REMARK    7  A    between atoms: C9_9  and  C10_10 
REMARK    8  A    between atoms: C10_10  and  C11_11 
REMARK    9  A    between atoms: C11_11  and  N1_12 
REMARK   10  A    between atoms: C17_18  and  C18_19 
REMARK       I    between atoms: N3_26  and  C23_27 
REMARK   11  A    between atoms: C23_27  and  C24_29 
ROOT
HETATM    1  N1  UNL     1       4.324   2.640  20.083  1.00  0.00    -0.061 N 
HETATM    2  C12 UNL     1       4.674   1.896  21.299  1.00  0.00     0.243 C 
HETATM    3  C13 UNL     1       6.158   2.141  21.330  1.00  0.00     0.021 C 
HETATM    4  C14 UNL     1       6.493   1.736  19.882  1.00  0.00     0.040 C 
HETATM    5  C15 UNL     1       5.623   2.974  19.588  1.00  0.00     0.196 C 
HETATM    6  C16 UNL     1       6.295   3.536  20.814  1.00  0.00     0.036 C 
HETATM    7  C17 UNL     1       5.586   4.637  21.502  1.00  0.00     0.093 C 
HETATM    8  C19 UNL     1       4.148   4.828  21.224  1.00  0.00     0.012 C 
HETATM    9  C20 UNL     1       3.865   6.156  20.516  1.00  0.00     0.015 C 
HETATM   10  C21 UNL     1       2.379   6.445  20.501  1.00  0.00     0.021 C 
HETATM   11  C22 UNL     1       1.799   6.560  21.876  1.00  0.00     0.126 C 
HETATM   12  N3  UNL     1       2.832   6.159  22.807  1.00  0.00    -0.347 N 
HETATM   13  C23 UNL     1       3.249   7.009  23.887  1.00  0.00     0.256 C 
HETATM   14  O2  UNL     1       4.150   6.647  24.691  1.00  0.00    -0.267 OA
HETATM   15  C31 UNL     1       3.420   4.855  22.584  1.00  0.00     0.138 C 
HETATM   16  C32 UNL     1       3.493   3.763  20.390  1.00  0.00     0.249 C 
ENDROOT
BRANCH   7  17
HETATM   17  C18 UNL     1       6.386   5.888  21.233  1.00  0.00     0.236 C 
HETATM   18  N2  UNL     1       7.159   6.013  20.050  1.00  0.00    -0.062 NA
HETATM   19  O1  UNL     1       6.409   6.861  22.022  1.00  0.00    -0.276 OA
ENDBRANCH   7  17
BRANCH   1  20
HETATM   20  C11 UNL     1       3.663   1.823  19.091  1.00  0.00     0.238 C 
BRANCH  20  21
HETATM   21  C10 UNL     1       3.956   2.222  17.688  1.00  0.00     0.028 C 
BRANCH  21  22
HETATM   22  C9  UNL     1       4.361   1.029  16.861  1.00  0.00     0.006 C 
BRANCH  22  23
HETATM   23  C7  UNL     1       5.454   1.407  15.925  1.00  0.00    -0.019 C 
HETATM   24  C8  UNL     1       6.643   0.507  16.168  1.00  0.00     0.010 C 
BRANCH  23  25
HETATM   25  C6  UNL     1       5.932   2.834  16.136  1.00  0.00     0.004 C 
BRANCH  25  26
HETATM   26  C5  UNL     1       7.444   2.937  16.149  1.00  0.00     0.000 C 
BRANCH  26  27
HETATM   27  C4  UNL     1       8.015   3.730  17.246  1.00  0.00     0.000 C 
BRANCH  27  28
HETATM   28  C3  UNL     1       9.122   3.235  18.064  1.00  0.00    -0.000 C 
BRANCH  28  29
HETATM   29  C2  UNL     1       9.937   2.087  17.641  1.00  0.00    -0.005 C 
HETATM   30  C1  UNL     1       9.563   0.786  18.262  1.00  0.00     0.005 C 
ENDBRANCH  28  29
ENDBRANCH  27  28
ENDBRANCH  26  27
ENDBRANCH  25  26
ENDBRANCH  23  25
ENDBRANCH  22  23
ENDBRANCH  21  22
ENDBRANCH  20  21
ENDBRANCH   1  20
BRANCH  13  31
HETATM   31  C24 UNL     1       2.665   8.314  24.113  1.00  0.00     0.060 A 
HETATM   32  C25 UNL     1       3.244   9.433  23.574  1.00  0.00     0.109 A 
HETATM   33  N4  UNL     1       2.721  10.678  23.767  1.00  0.00    -0.331 N 
HETATM   34  C26 UNL     1       1.589  10.813  24.517  1.00  0.00     0.273 A 
ATOM     35  H4  UNL     1       3.170  11.497  23.356  1.00  0.00     0.168 HD
HETATM   36  O3  UNL     1       1.120  11.975  24.684  1.00  0.00    -0.266 OA
HETATM   37  C27 UNL     1       0.966   9.728  25.083  1.00  0.00     0.112 A 
HETATM   38  N5  UNL     1      -0.130   9.617  25.840  1.00  0.00    -0.361 N 
HETATM   39  C30 UNL     1       1.523   8.464  24.869  1.00  0.00     0.015 A 
HETATM   40  C28 UNL     1      -0.334   8.306  26.150  1.00  0.00     0.089 A 
ATOM     41  H5  UNL     1      -0.721  10.392  26.140  1.00  0.00     0.165 HD
HETATM   42  C29 UNL     1       0.690   7.602  25.547  1.00  0.00     0.032 A 
ENDBRANCH  13  31
TORSDOF 11
ENDMDL
MODEL 4
REMARK VINA RESULT: -7.327049581      3.294      5.212
REMARK  11 active torsions:
REMARK  status: ('A' for Active; 'I' for Inactive)
REMARK    1  A    between atoms: C2_2  and  C3_3 
REMARK    2  A    between atoms: C3_3  and  C4_4 
REMARK    3  A    between atoms: C4_4  and  C5_5 
REMARK    4  A    between atoms: C5_5  and  C6_6 
REMARK    5  A    between atoms: C6_6  and  C7_7 
REMARK    6  A    between atoms: C7_7  and  C9_9 
REMARK    7  A    between atoms: C9_9  and  C10_10 
REMARK    8  A    between atoms: C10_10  and  C11_11 
REMARK    9  A    between atoms: C11_11  and  N1_12 
REMARK   10  A    between atoms: C17_18  and  C18_19 
REMARK       I    between atoms: N3_26  and  C23_27 
REMARK   11  A    between atoms: C23_27  and  C24_29 
ROOT
HETATM    1  N1  UNL     1       5.833   5.756  18.729  1.00  0.00    -0.061 N 
HETATM    2  C12 UNL     1       6.035   4.371  19.173  1.00  0.00     0.243 C 
HETATM    3  C13 UNL     1       7.342   4.524  19.902  1.00  0.00     0.021 C 
HETATM    4  C14 UNL     1       8.137   5.257  18.804  1.00  0.00     0.040 C 
HETATM    5  C15 UNL     1       7.083   6.342  19.100  1.00  0.00     0.196 C 
HETATM    6  C16 UNL     1       7.241   5.877  20.525  1.00  0.00     0.036 C 
HETATM    7  C17 UNL     1       6.116   6.174  21.438  1.00  0.00     0.093 C 
HETATM    8  C19 UNL     1       4.802   6.505  20.850  1.00  0.00     0.012 C 
HETATM    9  C20 UNL     1       4.379   7.946  21.147  1.00  0.00     0.015 C 
HETATM   10  C21 UNL     1       2.927   8.162  20.779  1.00  0.00     0.021 C 
HETATM   11  C22 UNL     1       1.998   7.274  21.547  1.00  0.00     0.126 C 
HETATM   12  N3  UNL     1       2.819   6.334  22.281  1.00  0.00    -0.347 N 
HETATM   13  C23 UNL     1       2.703   6.176  23.703  1.00  0.00     0.256 C 
HETATM   14  O2  UNL     1       3.425   5.353  24.328  1.00  0.00    -0.267 OA
HETATM   15  C31 UNL     1       3.763   5.566  21.495  1.00  0.00     0.138 C 
HETATM   16  C32 UNL     1       4.689   6.336  19.361  1.00  0.00     0.249 C 
ENDROOT
BRANCH   7  17
HETATM   17  C18 UNL     1       6.604   7.252  22.375  1.00  0.00     0.236 C 
HETATM   18  N2  UNL     1       6.258   7.227  23.751  1.00  0.00    -0.062 NA
HETATM   19  O1  UNL     1       7.326   8.203  21.997  1.00  0.00    -0.276 OA
ENDBRANCH   7  17
BRANCH   1  20
HETATM   20  C11 UNL     1       5.691   5.875  17.296  1.00  0.00     0.238 C 
BRANCH  20  21
HETATM   21  C10 UNL     1       5.454   4.579  16.604  1.00  0.00     0.028 C 
BRANCH  21  22
HETATM   22  C9  UNL     1       6.515   4.317  15.568  1.00  0.00     0.006 C 
BRANCH  22  23
HETATM   23  C7  UNL     1       6.699   2.852  15.387  1.00  0.00    -0.019 C 
HETATM   24  C8  UNL     1       6.344   2.483  13.966  1.00  0.00     0.010 C 
BRANCH  23  25
HETATM   25  C6  UNL     1       5.792   2.036  16.294  1.00  0.00     0.004 C 
BRANCH  25  26
HETATM   26  C5  UNL     1       6.546   0.945  17.027  1.00  0.00     0.000 C 
BRANCH  26  27
HETATM   27  C4  UNL     1       6.827   1.213  18.444  1.00  0.00     0.000 C 
BRANCH  27  28
HETATM   28  C3  UNL     1       8.180   1.142  18.993  1.00  0.00    -0.000 C 
BRANCH  28  29
HETATM   29  C2  UNL     1       9.354   0.979  18.122  1.00  0.00    -0.005 C 
HETATM   30  C1  UNL     1       9.977   2.252  17.662  1.00  0.00     0.005 C 
ENDBRANCH  28  29
ENDBRANCH  27  28
ENDBRANCH  26  27
ENDBRANCH  25  26
ENDBRANCH  23  25
ENDBRANCH  22  23
ENDBRANCH  21  22
ENDBRANCH  20  21
ENDBRANCH   1  20
BRANCH  13  31
HETATM   31  C24 UNL     1       1.762   6.943  24.491  1.00  0.00     0.060 A 
HETATM   32  C25 UNL     1       0.675   6.332  25.058  1.00  0.00     0.109 A 
HETATM   33  N4  UNL     1      -0.232   7.023  25.806  1.00  0.00    -0.331 N 
HETATM   34  C26 UNL     1      -0.051   8.363  25.996  1.00  0.00     0.273 A 
ATOM     35  H4  UNL     1      -1.034   6.546  26.219  1.00  0.00     0.168 HD
HETATM   36  O3  UNL     1      -0.902   8.986  26.692  1.00  0.00    -0.266 OA
HETATM   37  C27 UNL     1       1.019   9.030  25.452  1.00  0.00     0.112 A 
HETATM   38  N5  UNL     1       1.396  10.311  25.500  1.00  0.00    -0.361 N 
HETATM   39  C30 UNL     1       1.933   8.296  24.689  1.00  0.00     0.015 A 
HETATM   40  C28 UNL     1       2.547  10.470  24.787  1.00  0.00     0.089 A 
ATOM     41  H5  UNL     1       0.900  11.054  25.993  1.00  0.00     0.165 HD
HETATM   42  C29 UNL     1       2.870   9.223  24.291  1.00  0.00     0.032 A 
ENDBRANCH  13  31
TORSDOF 11
ENDMDL
MODEL 5
REMARK VINA RESULT: -7.302541778      1.407      1.787
REMARK  11 active torsions:
REMARK  status: ('A' for Active; 'I' for Inactive)
REMARK    1  A    between atoms: C2_2  and  C3_3 
REMARK    2  A    between atoms: C3_3  and  C4_4 
REMARK    3  A    between atoms: C4_4  and  C5_5 
REMARK    4  A    between atoms: C5_5  and  C6_6 
REMARK    5  A    between atoms: C6_6  and  C7_7 
REMARK    6  A    between atoms: C7_7  and  C9_9 
REMARK    7  A    between atoms: C9_9  and  C10_10 
REMARK    8  A    between atoms: C10_10  and  C11_11 
REMARK    9  A    between atoms: C11_11  and  N1_12 
REMARK   10  A    between atoms: C17_18  and  C18_19 
REMARK       I    between atoms: N3_26  and  C23_27 
REMARK   11  A    between atoms: C23_27  and  C24_29 
ROOT
HETATM    1  N1  UNL     1       4.754   7.282  15.875  1.00  0.00    -0.061 N 
HETATM    2  C12 UNL     1       5.282   8.507  15.261  1.00  0.00     0.243 C 
HETATM    3  C13 UNL     1       4.101   9.419  15.455  1.00  0.00     0.021 C 
HETATM    4  C14 UNL     1       3.003   8.506  14.877  1.00  0.00     0.040 C 
HETATM    5  C15 UNL     1       3.395   7.660  16.103  1.00  0.00     0.196 C 
HETATM    6  C16 UNL     1       3.546   9.000  16.776  1.00  0.00     0.036 C 
HETATM    7  C17 UNL     1       4.415   9.036  17.973  1.00  0.00     0.093 C 
HETATM    8  C19 UNL     1       5.368   7.927  18.183  1.00  0.00     0.012 C 
HETATM    9  C20 UNL     1       5.035   7.105  19.431  1.00  0.00     0.015 C 
HETATM   10  C21 UNL     1       6.175   6.168  19.770  1.00  0.00     0.021 C 
HETATM   11  C22 UNL     1       7.452   6.893  20.062  1.00  0.00     0.126 C 
HETATM   12  N3  UNL     1       7.233   8.286  19.732  1.00  0.00    -0.347 N 
HETATM   13  C23 UNL     1       7.471   9.335  20.684  1.00  0.00     0.256 C 
HETATM   14  O2  UNL     1       7.277  10.544  20.382  1.00  0.00    -0.267 OA
HETATM   15  C31 UNL     1       6.760   8.556  18.390  1.00  0.00     0.138 C 
HETATM   16  C32 UNL     1       5.488   6.942  17.055  1.00  0.00     0.249 C 
ENDROOT
BRANCH   7  17
HETATM   17  C18 UNL     1       3.496   9.226  19.156  1.00  0.00     0.236 C 
HETATM   18  N2  UNL     1       2.167   8.731  19.128  1.00  0.00    -0.062 NA
HETATM   19  O1  UNL     1       3.851   9.816  20.203  1.00  0.00    -0.276 OA
ENDBRANCH   7  17
BRANCH   1  20
HETATM   20  C11 UNL     1       4.760   6.152  14.975  1.00  0.00     0.238 C 
BRANCH  20  21
HETATM   21  C10 UNL     1       5.274   4.897  15.587  1.00  0.00     0.028 C 
BRANCH  21  22
HETATM   22  C9  UNL     1       6.322   4.259  14.712  1.00  0.00     0.006 C 
BRANCH  22  23
HETATM   23  C7  UNL     1       7.160   3.330  15.518  1.00  0.00    -0.019 C 
HETATM   24  C8  UNL     1       6.789   1.907  15.172  1.00  0.00     0.010 C 
BRANCH  23  25
HETATM   25  C6  UNL     1       6.936   3.493  17.012  1.00  0.00     0.004 C 
BRANCH  25  26
HETATM   26  C5  UNL     1       8.151   4.065  17.715  1.00  0.00     0.000 C 
BRANCH  26  27
HETATM   27  C4  UNL     1       8.979   3.092  18.440  1.00  0.00     0.000 C 
BRANCH  27  28
HETATM   28  C3  UNL     1       9.816   2.116  17.744  1.00  0.00    -0.000 C 
BRANCH  28  29
HETATM   29  C2  UNL     1       9.766   0.685  18.076  1.00  0.00    -0.005 C 
HETATM   30  C1  UNL     1       9.318  -0.203  16.967  1.00  0.00     0.005 C 
ENDBRANCH  28  29
ENDBRANCH  27  28
ENDBRANCH  26  27
ENDBRANCH  25  26
ENDBRANCH  23  25
ENDBRANCH  22  23
ENDBRANCH  21  22
ENDBRANCH  20  21
ENDBRANCH   1  20
BRANCH  13  31
HETATM   31  C24 UNL     1       7.942   9.069  22.026  1.00  0.00     0.060 A 
HETATM   32  C25 UNL     1       9.269   9.213  22.334  1.00  0.00     0.109 A 
HETATM   33  N4  UNL     1       9.748   8.971  23.588  1.00  0.00    -0.331 N 
HETATM   34  C26 UNL     1       8.880   8.573  24.564  1.00  0.00     0.273 A 
ATOM     35  H4  UNL     1      10.740   9.085  23.794  1.00  0.00     0.168 HD
HETATM   36  O3  UNL     1       9.342   8.354  25.719  1.00  0.00    -0.266 OA
HETATM   37  C27 UNL     1       7.540   8.411  24.313  1.00  0.00     0.112 A 
HETATM   38  N5  UNL     1       6.520   8.038  25.094  1.00  0.00    -0.361 N 
HETATM   39  C30 UNL     1       7.077   8.666  23.019  1.00  0.00     0.015 A 
HETATM   40  C28 UNL     1       5.370   8.032  24.361  1.00  0.00     0.089 A 
ATOM     41  H5  UNL     1       6.591   7.795  26.082  1.00  0.00     0.165 HD
HETATM   42  C29 UNL     1       5.723   8.421  23.084  1.00  0.00     0.032 A 
ENDBRANCH  13  31
TORSDOF 11
ENDMDL
