MODEL 1
REMARK VINA RESULT: -4.324421252      0.000      0.000
REMARK  1 active torsions:
REMARK  status: ('A' for Active; 'I' for Inactive)
REMARK    1  A    between atoms: N1_2  and  C2_4 
ROOT
HETATM    1  C2  UNL     1       3.289  61.132  57.838  1.00  0.00     0.029 C 
HETATM    2  C3  UNL     1       2.403  60.959  59.051  1.00  0.00     0.035 C 
HETATM    3  C4  UNL     1       2.452  59.520  59.514  1.00  0.00    -0.012 C 
HETATM    4  C5  UNL     1       1.844  58.688  58.411  1.00  0.00     0.009 C 
HETATM    5  C6  UNL     1       2.694  58.851  57.181  1.00  0.00    -0.012 C 
HETATM    6  C7  UNL     1       4.105  58.370  57.476  1.00  0.00     0.010 C 
HETATM    7  C8  UNL     1       4.686  59.220  58.558  1.00  0.00    -0.008 C 
HETATM    8  C9  UNL     1       3.833  59.034  59.808  1.00  0.00     0.010 C 
HETATM    9  C10 UNL     1       4.666  60.698  58.252  1.00  0.00     0.013 C 
HETATM   10  C11 UNL     1       5.753  61.103  57.290  1.00  0.00     0.012 C 
HETATM   11  C12 UNL     1       2.812  60.265  56.699  1.00  0.00     0.035 C 
ENDROOT
BRANCH   1  12
HETATM   12  N1  UNL     1       3.317  62.531  57.487  1.00  0.00    -0.416 N 
HETATM   13  C1  UNL     1       3.004  63.444  58.532  1.00  0.00     0.140 C 
ATOM     14  H1  UNL     1       3.547  62.846  56.545  1.00  0.00     0.153 HD
ENDBRANCH   1  12
TORSDOF 1
ENDMDL
MODEL 2
REMARK VINA RESULT: -4.210076415      1.260      2.485
REMARK  1 active torsions:
REMARK  status: ('A' for Active; 'I' for Inactive)
REMARK    1  A    between atoms: N1_2  and  C2_4 
ROOT
HETATM    1  C2  UNL     1       2.754  60.603  58.561  1.00  0.00     0.029 C 
HETATM    2  C3  UNL     1       3.608  59.631  59.343  1.00  0.00     0.035 C 
HETATM    3  C4  UNL     1       4.805  59.224  58.512  1.00  0.00    -0.012 C 
HETATM    4  C5  UNL     1       4.267  58.468  57.320  1.00  0.00     0.009 C 
HETATM    5  C6  UNL     1       3.396  59.403  56.528  1.00  0.00    -0.012 C 
HETATM    6  C7  UNL     1       4.226  60.587  56.059  1.00  0.00     0.010 C 
HETATM    7  C8  UNL     1       4.729  61.325  57.257  1.00  0.00    -0.008 C 
HETATM    8  C9  UNL     1       5.629  60.378  58.045  1.00  0.00     0.010 C 
HETATM    9  C10 UNL     1       3.642  61.762  58.208  1.00  0.00     0.013 C 
HETATM   10  C11 UNL     1       2.900  62.977  57.718  1.00  0.00     0.012 C 
HETATM   11  C12 UNL     1       2.239  59.963  57.296  1.00  0.00     0.035 C 
ENDROOT
BRANCH   1  12
HETATM   12  N1  UNL     1       1.687  61.064  59.415  1.00  0.00    -0.416 N 
HETATM   13  C1  UNL     1       1.482  60.326  60.614  1.00  0.00     0.140 C 
ATOM     14  H1  UNL     1       1.114  61.873  59.174  1.00  0.00     0.153 HD
ENDBRANCH   1  12
TORSDOF 1
ENDMDL
MODEL 3
REMARK VINA RESULT: -4.174501118      1.702      3.464
REMARK  1 active torsions:
REMARK  status: ('A' for Active; 'I' for Inactive)
REMARK    1  A    between atoms: N1_2  and  C2_4 
ROOT
HETATM    1  C2  UNL     1       3.447  59.166  58.627  1.00  0.00     0.029 C 
HETATM    2  C3  UNL     1       2.670  60.414  58.981  1.00  0.00     0.035 C 
HETATM    3  C4  UNL     1       3.009  61.518  58.004  1.00  0.00    -0.012 C 
HETATM    4  C5  UNL     1       4.470  61.843  58.207  1.00  0.00     0.009 C 
HETATM    5  C6  UNL     1       5.272  60.614  57.878  1.00  0.00    -0.012 C 
HETATM    6  C7  UNL     1       5.024  60.224  56.431  1.00  0.00     0.010 C 
HETATM    7  C8  UNL     1       3.577  59.892  56.263  1.00  0.00    -0.008 C 
HETATM    8  C9  UNL     1       2.770  61.148  56.578  1.00  0.00     0.010 C 
HETATM    9  C10 UNL     1       3.080  58.826  57.210  1.00  0.00     0.013 C 
HETATM   10  C11 UNL     1       3.492  57.440  56.785  1.00  0.00     0.012 C 
HETATM   11  C12 UNL     1       4.932  59.417  58.713  1.00  0.00     0.035 C 
ENDROOT
BRANCH   1  12
HETATM   12  N1  UNL     1       3.020  58.098  59.497  1.00  0.00    -0.416 N 
HETATM   13  C1  UNL     1       2.686  58.473  60.829  1.00  0.00     0.140 C 
ATOM     14  H1  UNL     1       2.962  57.131  59.177  1.00  0.00     0.153 HD
ENDBRANCH   1  12
TORSDOF 1
ENDMDL
MODEL 4
REMARK VINA RESULT: -4.168584149      1.231      2.701
REMARK  1 active torsions:
REMARK  status: ('A' for Active; 'I' for Inactive)
REMARK    1  A    between atoms: N1_2  and  C2_4 
ROOT
HETATM    1  C2  UNL     1       2.855  60.538  58.348  1.00  0.00     0.029 C 
HETATM    2  C3  UNL     1       2.153  60.469  57.011  1.00  0.00     0.035 C 
HETATM    3  C4  UNL     1       2.987  59.660  56.042  1.00  0.00    -0.012 C 
HETATM    4  C5  UNL     1       4.266  60.431  55.822  1.00  0.00     0.009 C 
HETATM    5  C6  UNL     1       4.982  60.534  57.140  1.00  0.00    -0.012 C 
HETATM    6  C7  UNL     1       5.300  59.138  57.650  1.00  0.00     0.010 C 
HETATM    7  C8  UNL     1       4.017  58.405  57.875  1.00  0.00    -0.008 C 
HETATM    8  C9  UNL     1       3.306  58.286  56.531  1.00  0.00     0.010 C 
HETATM    9  C10 UNL     1       3.058  59.119  58.796  1.00  0.00     0.013 C 
HETATM   10  C11 UNL     1       3.440  58.981  60.247  1.00  0.00     0.012 C 
HETATM   11  C12 UNL     1       4.195  61.218  58.215  1.00  0.00     0.035 C 
ENDROOT
BRANCH   1  12
HETATM   12  N1  UNL     1       1.989  61.213  59.285  1.00  0.00    -0.416 N 
HETATM   13  C1  UNL     1       1.758  62.595  59.039  1.00  0.00     0.140 C 
ATOM     14  H1  UNL     1       1.568  60.727  60.076  1.00  0.00     0.153 HD
ENDBRANCH   1  12
TORSDOF 1
ENDMDL
MODEL 5
REMARK VINA RESULT: -4.038326383      0.986      2.650
REMARK  1 active torsions:
REMARK  status: ('A' for Active; 'I' for Inactive)
REMARK    1  A    between atoms: N1_2  and  C2_4 
ROOT
HETATM    1  C2  UNL     1       3.075  60.861  57.588  1.00  0.00     0.029 C 
HETATM    2  C3  UNL     1       3.166  59.871  56.449  1.00  0.00     0.035 C 
HETATM    3  C4  UNL     1       3.630  58.531  56.977  1.00  0.00    -0.012 C 
HETATM    4  C5  UNL     1       5.035  58.731  57.491  1.00  0.00     0.009 C 
HETATM    5  C6  UNL     1       4.984  59.727  58.617  1.00  0.00    -0.012 C 
HETATM    6  C7  UNL     1       4.098  59.186  59.727  1.00  0.00     0.010 C 
HETATM    7  C8  UNL     1       2.712  59.014  59.195  1.00  0.00    -0.008 C 
HETATM    8  C9  UNL     1       2.768  57.988  58.068  1.00  0.00     0.010 C 
HETATM    9  C10 UNL     1       2.128  60.269  58.592  1.00  0.00     0.013 C 
HETATM   10  C11 UNL     1       1.653  61.244  59.638  1.00  0.00     0.012 C 
HETATM   11  C12 UNL     1       4.425  61.062  58.231  1.00  0.00     0.035 C 
ENDROOT
BRANCH   1  12
HETATM   12  N1  UNL     1       2.521  62.092  57.081  1.00  0.00    -0.416 N 
HETATM   13  C1  UNL     1       3.461  63.094  56.708  1.00  0.00     0.140 C 
ATOM     14  H1  UNL     1       1.515  62.236  56.995  1.00  0.00     0.153 HD
ENDBRANCH   1  12
TORSDOF 1
ENDMDL
