MODEL 1
REMARK VINA RESULT: -8.046790158      0.000      0.000
REMARK  7 active torsions:
REMARK  status: ('A' for Active; 'I' for Inactive)
REMARK    1  A    between atoms: C4_5  and  N2_6 
REMARK    2  A    between atoms: N3_8  and  N4_10 
REMARK    3  A    between atoms: C5_12  and  C6_13 
REMARK    4  A    between atoms: C5_12  and  C7_22 
REMARK    5  A    between atoms: C6_13  and  N6_17 
REMARK    6  A    between atoms: N6_17  and  N7_19 
REMARK    7  A    between atoms: C8_27  and  N9_28 
ROOT
HETATM    1  N1  UNL     1      40.989  65.188 165.580  1.00  0.00    -0.190 NA
HETATM    2  C1  UNL     1      41.612  64.803 166.485  1.00  0.00     0.118 C 
HETATM    3  C2  UNL     1      42.373  64.306 167.596  1.00  0.00     0.133 A 
HETATM    4  C3  UNL     1      41.914  63.268 168.404  1.00  0.00     0.092 A 
HETATM    5  C4  UNL     1      42.649  62.798 169.466  1.00  0.00     0.139 A 
HETATM    6  N8  UNL     1      43.843  63.357 169.729  1.00  0.00    -0.175 N 
ATOM      7  H8  UNL     1      44.406  63.024 170.512  1.00  0.00     0.186 HD
HETATM    8  C8  UNL     1      44.291  64.366 168.945  1.00  0.00     0.678 A 
HETATM    9  N10 UNL     1      43.575  64.836 167.897  1.00  0.00    -0.182 N 
ATOM     10  H10 UNL     1      43.949  65.597 167.331  1.00  0.00     0.185 HD
ENDROOT
BRANCH   5  11
HETATM   11  N2  UNL     1      42.095  61.735 170.232  1.00  0.00    -0.270 N 
HETATM   12  N3  UNL     1      42.817  60.965 170.955  1.00  0.00    -0.240 N 
ATOM     13  H3  UNL     1      43.828  61.096 171.003  1.00  0.00     0.208 HD
ATOM     14  H2  UNL     1      41.087  61.581 170.203  1.00  0.00     0.190 HD
BRANCH  12  15
HETATM   15  N4  UNL     1      42.206  59.960 171.665  1.00  0.00    -0.277 N 
HETATM   16  C5  UNL     1      42.831  59.232 172.537  1.00  0.00     0.171 C 
ATOM     17  H4  UNL     1      41.217  59.778 171.499  1.00  0.00     0.189 HD
BRANCH  16  18
HETATM   18  C6  UNL     1      42.139  58.170 173.271  1.00  0.00     0.154 C 
HETATM   19  N5  UNL     1      41.192  58.508 174.065  1.00  0.00    -0.382 N 
ATOM     20  H52 UNL     1      40.930  59.487 174.180  1.00  0.00     0.157 HD
ATOM     21  H51 UNL     1      40.710  57.769 174.576  1.00  0.00     0.157 HD
BRANCH  18  22
HETATM   22  N6  UNL     1      42.503  56.809 173.111  1.00  0.00    -0.224 N 
ATOM     23  H6  UNL     1      42.280  56.343 172.232  1.00  0.00     0.195 HD
BRANCH  22  24
HETATM   24  N7  UNL     1      43.153  56.084 174.103  1.00  0.00    -0.037 N 
HETATM   25  O1  UNL     1      44.299  55.656 173.868  1.00  0.00    -0.516 OA
HETATM   26  O2  UNL     1      42.514  55.866 175.298  1.00  0.00    -0.516 OA
ENDBRANCH  22  24
ENDBRANCH  18  22
ENDBRANCH  16  18
BRANCH  16  27
HETATM   27  C7  UNL     1      44.239  59.447 172.813  1.00  0.00     0.232 C 
HETATM   28  O3  UNL     1      44.597  60.106 173.809  1.00  0.00    -0.643 OA
HETATM   29  O4  UNL     1      45.187  58.918 171.963  1.00  0.00    -0.643 OA
ENDBRANCH  16  27
ENDBRANCH  12  15
ENDBRANCH   5  11
BRANCH   8  30
HETATM   30  N9  UNL     1      45.453  64.856 169.262  1.00  0.00    -0.234 N 
ATOM     31  H92 UNL     1      46.173  64.293 169.715  1.00  0.00     0.174 HD
ATOM     32  H91 UNL     1      45.600  65.839 169.029  1.00  0.00     0.174 HD
ENDBRANCH   8  30
TORSDOF 7
ENDMDL
MODEL 2
REMARK VINA RESULT: -7.712707632      3.420      8.094
REMARK  7 active torsions:
REMARK  status: ('A' for Active; 'I' for Inactive)
REMARK    1  A    between atoms: C4_5  and  N2_6 
REMARK    2  A    between atoms: N3_8  and  N4_10 
REMARK    3  A    between atoms: C5_12  and  C6_13 
REMARK    4  A    between atoms: C5_12  and  C7_22 
REMARK    5  A    between atoms: C6_13  and  N6_17 
REMARK    6  A    between atoms: N6_17  and  N7_19 
REMARK    7  A    between atoms: C8_27  and  N9_28 
ROOT
HETATM    1  N1  UNL     1      43.721  55.572 173.868  1.00  0.00    -0.190 NA
HETATM    2  C1  UNL     1      43.149  56.583 173.946  1.00  0.00     0.118 C 
HETATM    3  C2  UNL     1      42.441  57.830 174.017  1.00  0.00     0.133 A 
HETATM    4  C3  UNL     1      42.553  58.804 173.027  1.00  0.00     0.092 A 
HETATM    5  C4  UNL     1      41.871  59.996 173.103  1.00  0.00     0.139 A 
HETATM    6  N8  UNL     1      41.075  60.223 174.162  1.00  0.00    -0.175 N 
ATOM      7  H8  UNL     1      40.559  61.100 174.240  1.00  0.00     0.186 HD
HETATM    8  C8  UNL     1      40.965  59.277 175.125  1.00  0.00     0.678 A 
HETATM    9  N10 UNL     1      41.631  58.101 175.059  1.00  0.00    -0.182 N 
ATOM     10  H10 UNL     1      41.520  57.415 175.805  1.00  0.00     0.185 HD
ENDROOT
BRANCH   5  11
HETATM   11  N2  UNL     1      42.052  60.927 172.043  1.00  0.00    -0.270 N 
HETATM   12  N3  UNL     1      42.470  60.572 170.887  1.00  0.00    -0.240 N 
ATOM     13  H3  UNL     1      42.688  59.595 170.691  1.00  0.00     0.208 HD
ATOM     14  H2  UNL     1      41.842  61.910 172.210  1.00  0.00     0.190 HD
BRANCH  12  15
HETATM   15  N4  UNL     1      42.620  61.531 169.915  1.00  0.00    -0.277 N 
HETATM   16  C5  UNL     1      41.679  61.842 169.079  1.00  0.00     0.171 C 
ATOM     17  H4  UNL     1      43.511  62.021 169.848  1.00  0.00     0.189 HD
BRANCH  16  18
HETATM   18  C6  UNL     1      41.884  62.871 168.058  1.00  0.00     0.154 C 
HETATM   19  N5  UNL     1      40.876  63.227 167.352  1.00  0.00    -0.382 N 
ATOM     20  H52 UNL     1      39.959  62.805 167.500  1.00  0.00     0.157 HD
ATOM     21  H51 UNL     1      41.018  63.944 166.641  1.00  0.00     0.157 HD
BRANCH  18  22
HETATM   22  N6  UNL     1      43.159  63.458 167.853  1.00  0.00    -0.224 N 
ATOM     23  H6  UNL     1      43.747  63.100 167.101  1.00  0.00     0.195 HD
BRANCH  22  24
HETATM   24  N7  UNL     1      43.639  64.503 168.635  1.00  0.00    -0.037 N 
HETATM   25  O1  UNL     1      42.902  65.488 168.822  1.00  0.00    -0.516 OA
HETATM   26  O2  UNL     1      44.901  64.412 169.168  1.00  0.00    -0.516 OA
ENDBRANCH  22  24
ENDBRANCH  18  22
ENDBRANCH  16  18
BRANCH  16  27
HETATM   27  C7  UNL     1      40.391  61.176 169.129  1.00  0.00     0.232 C 
HETATM   28  O3  UNL     1      40.030  60.423 168.203  1.00  0.00    -0.643 OA
HETATM   29  O4  UNL     1      39.562  61.381 170.211  1.00  0.00    -0.643 OA
ENDBRANCH  16  27
ENDBRANCH  12  15
ENDBRANCH   5  11
BRANCH   8  30
HETATM   30  N9  UNL     1      40.176  59.569 176.118  1.00  0.00    -0.234 N 
ATOM     31  H92 UNL     1      39.185  59.770 175.981  1.00  0.00     0.174 HD
ATOM     32  H91 UNL     1      40.610  59.584 177.041  1.00  0.00     0.174 HD
ENDBRANCH   8  30
TORSDOF 7
ENDMDL
MODEL 3
REMARK VINA RESULT: -7.640236754      3.501      8.139
REMARK  7 active torsions:
REMARK  status: ('A' for Active; 'I' for Inactive)
REMARK    1  A    between atoms: C4_5  and  N2_6 
REMARK    2  A    between atoms: N3_8  and  N4_10 
REMARK    3  A    between atoms: C5_12  and  C6_13 
REMARK    4  A    between atoms: C5_12  and  C7_22 
REMARK    5  A    between atoms: C6_13  and  N6_17 
REMARK    6  A    between atoms: N6_17  and  N7_19 
REMARK    7  A    between atoms: C8_27  and  N9_28 
ROOT
HETATM    1  N1  UNL     1      39.882  58.888 176.591  1.00  0.00    -0.190 NA
HETATM    2  C1  UNL     1      40.651  58.633 175.754  1.00  0.00     0.118 C 
HETATM    3  C2  UNL     1      41.605  58.343 174.722  1.00  0.00     0.133 A 
HETATM    4  C3  UNL     1      41.895  59.249 173.704  1.00  0.00     0.092 A 
HETATM    5  C4  UNL     1      42.811  58.963 172.719  1.00  0.00     0.139 A 
HETATM    6  N8  UNL     1      43.442  57.777 172.743  1.00  0.00    -0.175 N 
ATOM      7  H8  UNL     1      44.126  57.543 172.023  1.00  0.00     0.186 HD
HETATM    8  C8  UNL     1      43.162  56.895 173.732  1.00  0.00     0.678 A 
HETATM    9  N10 UNL     1      42.262  57.167 174.705  1.00  0.00    -0.182 N 
ATOM     10  H10 UNL     1      42.080  56.476 175.433  1.00  0.00     0.185 HD
ENDROOT
BRANCH   5  11
HETATM   11  N2  UNL     1      43.038  59.953 171.723  1.00  0.00    -0.270 N 
HETATM   12  N3  UNL     1      42.108  60.368 170.949  1.00  0.00    -0.240 N 
ATOM     13  H3  UNL     1      41.162  59.993 171.027  1.00  0.00     0.208 HD
ATOM     14  H2  UNL     1      43.974  60.345 171.623  1.00  0.00     0.190 HD
BRANCH  12  15
HETATM   15  N4  UNL     1      42.406  61.326 170.011  1.00  0.00    -0.277 N 
HETATM   16  C5  UNL     1      41.547  61.750 169.137  1.00  0.00     0.171 C 
ATOM     17  H4  UNL     1      43.345  61.722 170.001  1.00  0.00     0.189 HD
BRANCH  16  18
HETATM   18  C6  UNL     1      41.910  62.774 168.155  1.00  0.00     0.154 C 
HETATM   19  N5  UNL     1      40.994  63.204 167.369  1.00  0.00    -0.382 N 
ATOM     20  H52 UNL     1      40.043  62.842 167.428  1.00  0.00     0.157 HD
ATOM     21  H51 UNL     1      41.247  63.917 166.685  1.00  0.00     0.157 HD
BRANCH  18  22
HETATM   22  N6  UNL     1      43.234  63.276 168.073  1.00  0.00    -0.224 N 
ATOM     23  H6  UNL     1      43.909  62.782 167.490  1.00  0.00     0.195 HD
BRANCH  22  24
HETATM   24  N7  UNL     1      43.649  64.414 168.754  1.00  0.00    -0.037 N 
HETATM   25  O1  UNL     1      42.853  65.367 168.854  1.00  0.00    -0.516 OA
HETATM   26  O2  UNL     1      44.913  64.449 169.289  1.00  0.00    -0.516 OA
ENDBRANCH  22  24
ENDBRANCH  18  22
ENDBRANCH  16  18
BRANCH  16  27
HETATM   27  C7  UNL     1      40.197  61.220 169.105  1.00  0.00     0.232 C 
HETATM   28  O3  UNL     1      39.906  60.273 168.349  1.00  0.00    -0.643 OA
HETATM   29  O4  UNL     1      39.231  61.772 169.918  1.00  0.00    -0.643 OA
ENDBRANCH  16  27
ENDBRANCH  12  15
ENDBRANCH   5  11
BRANCH   8  30
HETATM   30  N9  UNL     1      43.812  55.769 173.688  1.00  0.00    -0.234 N 
ATOM     31  H92 UNL     1      44.826  55.733 173.582  1.00  0.00     0.174 HD
ATOM     32  H91 UNL     1      43.244  54.925 173.765  1.00  0.00     0.174 HD
ENDBRANCH   8  30
TORSDOF 7
ENDMDL
MODEL 4
REMARK VINA RESULT: -7.546368180      1.345      1.979
REMARK  7 active torsions:
REMARK  status: ('A' for Active; 'I' for Inactive)
REMARK    1  A    between atoms: C4_5  and  N2_6 
REMARK    2  A    between atoms: N3_8  and  N4_10 
REMARK    3  A    between atoms: C5_12  and  C6_13 
REMARK    4  A    between atoms: C5_12  and  C7_22 
REMARK    5  A    between atoms: C6_13  and  N6_17 
REMARK    6  A    between atoms: N6_17  and  N7_19 
REMARK    7  A    between atoms: C8_27  and  N9_28 
ROOT
HETATM    1  N1  UNL     1      40.984  65.145 165.616  1.00  0.00    -0.190 NA
HETATM    2  C1  UNL     1      41.610  64.760 166.519  1.00  0.00     0.118 C 
HETATM    3  C2  UNL     1      42.375  64.263 167.627  1.00  0.00     0.133 A 
HETATM    4  C3  UNL     1      41.945  63.188 168.401  1.00  0.00     0.092 A 
HETATM    5  C4  UNL     1      42.684  62.718 169.462  1.00  0.00     0.139 A 
HETATM    6  N8  UNL     1      43.852  63.315 169.755  1.00  0.00    -0.175 N 
ATOM      7  H8  UNL     1      44.418  62.983 170.537  1.00  0.00     0.186 HD
HETATM    8  C8  UNL     1      44.271  64.360 169.003  1.00  0.00     0.678 A 
HETATM    9  N10 UNL     1      43.552  64.830 167.958  1.00  0.00    -0.182 N 
ATOM     10  H10 UNL     1      43.903  65.619 167.417  1.00  0.00     0.185 HD
ENDROOT
BRANCH   5  11
HETATM   11  N2  UNL     1      42.161  61.615 170.192  1.00  0.00    -0.270 N 
HETATM   12  N3  UNL     1      42.859  60.970 171.048  1.00  0.00    -0.240 N 
ATOM     13  H3  UNL     1      43.827  61.234 171.234  1.00  0.00     0.208 HD
ATOM     14  H2  UNL     1      41.197  61.328 170.027  1.00  0.00     0.190 HD
BRANCH  12  15
HETATM   15  N4  UNL     1      42.282  59.915 171.713  1.00  0.00    -0.277 N 
HETATM   16  C5  UNL     1      42.931  59.167 172.549  1.00  0.00     0.171 C 
ATOM     17  H4  UNL     1      41.298  59.711 171.541  1.00  0.00     0.189 HD
BRANCH  16  18
HETATM   18  C6  UNL     1      42.274  58.053 173.234  1.00  0.00     0.154 C 
HETATM   19  N5  UNL     1      42.389  56.882 172.725  1.00  0.00    -0.382 N 
ATOM     20  H52 UNL     1      42.923  56.735 171.869  1.00  0.00     0.157 HD
ATOM     21  H51 UNL     1      41.932  56.106 173.202  1.00  0.00     0.157 HD
BRANCH  18  22
HETATM   22  N6  UNL     1      41.532  58.258 174.425  1.00  0.00    -0.224 N 
ATOM     23  H6  UNL     1      41.496  57.508 175.115  1.00  0.00     0.195 HD
BRANCH  22  24
HETATM   24  N7  UNL     1      40.850  59.440 174.691  1.00  0.00    -0.037 N 
HETATM   25  O1  UNL     1      41.067  60.017 175.773  1.00  0.00    -0.516 OA
HETATM   26  O2  UNL     1      39.968  59.926 173.758  1.00  0.00    -0.516 OA
ENDBRANCH  22  24
ENDBRANCH  18  22
ENDBRANCH  16  18
BRANCH  16  27
HETATM   27  C7  UNL     1      44.333  59.412 172.830  1.00  0.00     0.232 C 
HETATM   28  O3  UNL     1      44.674  60.056 173.842  1.00  0.00    -0.643 OA
HETATM   29  O4  UNL     1      45.294  58.927 171.970  1.00  0.00    -0.643 OA
ENDBRANCH  16  27
ENDBRANCH  12  15
ENDBRANCH   5  11
BRANCH   8  30
HETATM   30  N9  UNL     1      45.411  64.885 169.348  1.00  0.00    -0.234 N 
ATOM     31  H92 UNL     1      45.773  65.731 168.907  1.00  0.00     0.174 HD
ATOM     32  H91 UNL     1      45.919  64.398 170.087  1.00  0.00     0.174 HD
ENDBRANCH   8  30
TORSDOF 7
ENDMDL
MODEL 5
REMARK VINA RESULT: -7.350814677      4.132      5.355
REMARK  7 active torsions:
REMARK  status: ('A' for Active; 'I' for Inactive)
REMARK    1  A    between atoms: C4_5  and  N2_6 
REMARK    2  A    between atoms: N3_8  and  N4_10 
REMARK    3  A    between atoms: C5_12  and  C6_13 
REMARK    4  A    between atoms: C5_12  and  C7_22 
REMARK    5  A    between atoms: C6_13  and  N6_17 
REMARK    6  A    between atoms: N6_17  and  N7_19 
REMARK    7  A    between atoms: C8_27  and  N9_28 
ROOT
HETATM    1  N1  UNL     1      35.635  61.469 167.780  1.00  0.00    -0.190 NA
HETATM    2  C1  UNL     1      36.028  61.351 168.870  1.00  0.00     0.118 C 
HETATM    3  C2  UNL     1      36.535  61.207 170.205  1.00  0.00     0.133 A 
HETATM    4  C3  UNL     1      37.674  60.456 170.488  1.00  0.00     0.092 A 
HETATM    5  C4  UNL     1      38.153  60.323 171.770  1.00  0.00     0.139 A 
HETATM    6  N8  UNL     1      37.502  60.935 172.774  1.00  0.00    -0.175 N 
ATOM      7  H8  UNL     1      37.840  60.851 173.733  1.00  0.00     0.186 HD
HETATM    8  C8  UNL     1      36.395  61.666 172.500  1.00  0.00     0.678 A 
HETATM    9  N10 UNL     1      35.916  61.803 171.242  1.00  0.00    -0.182 N 
ATOM     10  H10 UNL     1      35.080  62.363 171.079  1.00  0.00     0.185 HD
ENDROOT
BRANCH   5  11
HETATM   11  N2  UNL     1      39.322  59.535 171.957  1.00  0.00    -0.270 N 
HETATM   12  N3  UNL     1      40.490  59.967 171.667  1.00  0.00    -0.240 N 
ATOM     13  H3  UNL     1      40.617  60.906 171.287  1.00  0.00     0.208 HD
ATOM     14  H2  UNL     1      39.226  58.593 172.336  1.00  0.00     0.190 HD
BRANCH  12  15
HETATM   15  N4  UNL     1      41.571  59.145 171.877  1.00  0.00    -0.277 N 
HETATM   16  C5  UNL     1      42.747  59.591 172.193  1.00  0.00     0.171 C 
ATOM     17  H4  UNL     1      41.443  58.138 171.778  1.00  0.00     0.189 HD
BRANCH  16  18
HETATM   18  C6  UNL     1      43.871  58.677 172.406  1.00  0.00     0.154 C 
HETATM   19  N5  UNL     1      44.829  58.695 171.556  1.00  0.00    -0.382 N 
ATOM     20  H52 UNL     1      44.807  59.329 170.757  1.00  0.00     0.157 HD
ATOM     21  H51 UNL     1      45.612  58.058 171.704  1.00  0.00     0.157 HD
BRANCH  18  22
HETATM   22  N6  UNL     1      43.900  57.796 173.517  1.00  0.00    -0.224 N 
ATOM     23  H6  UNL     1      44.337  58.114 174.381  1.00  0.00     0.195 HD
BRANCH  22  24
HETATM   24  N7  UNL     1      43.358  56.516 173.475  1.00  0.00    -0.037 N 
HETATM   25  O1  UNL     1      43.939  55.608 174.097  1.00  0.00    -0.516 OA
HETATM   26  O2  UNL     1      42.210  56.300 172.754  1.00  0.00    -0.516 OA
ENDBRANCH  22  24
ENDBRANCH  18  22
ENDBRANCH  16  18
BRANCH  16  27
HETATM   27  C7  UNL     1      42.985  61.014 172.344  1.00  0.00     0.232 C 
HETATM   28  O3  UNL     1      43.601  61.651 171.467  1.00  0.00    -0.643 OA
HETATM   29  O4  UNL     1      42.527  61.664 173.470  1.00  0.00    -0.643 OA
ENDBRANCH  16  27
ENDBRANCH  12  15
ENDBRANCH   5  11
BRANCH   8  30
HETATM   30  N9  UNL     1      35.821  62.228 173.523  1.00  0.00    -0.234 N 
ATOM     31  H92 UNL     1      36.352  62.553 174.331  1.00  0.00     0.174 HD
ATOM     32  H91 UNL     1      34.807  62.324 173.466  1.00  0.00     0.174 HD
ENDBRANCH   8  30
TORSDOF 7
ENDMDL
