MODEL 1
REMARK VINA RESULT: -10.205289452      0.000      0.000
REMARK  8 active torsions:
REMARK  status: ('A' for Active; 'I' for Inactive)
REMARK    1  A    between atoms: N1_1  and  C1_4 
REMARK    2  A    between atoms: C3_9  and  N4_10 
REMARK       I    between atoms: N4_10  and  C4_12 
REMARK    3  A    between atoms: C4_12  and  C5_14 
REMARK    4  A    between atoms: C5_14  and  C6_15 
REMARK       I    between atoms: C6_15  and  N5_17 
REMARK    5  A    between atoms: N5_17  and  C7_19 
REMARK    6  A    between atoms: C10_22  and  N6_23 
REMARK    7  A    between atoms: C11_26  and  N7_27 
REMARK    8  A    between atoms: C13_31  and  N8_32 
ROOT
HETATM    1  N4  UNL     1      18.219  50.155  16.975  1.00  0.00    -0.321 N 
ATOM      2  H4  UNL     1      18.039  50.837  16.238  1.00  0.00     0.169 HD
HETATM    3  C4  UNL     1      17.233  49.954  17.992  1.00  0.00     0.231 C 
HETATM    4  O1  UNL     1      17.487  49.101  18.886  1.00  0.00    -0.273 OA
ENDROOT
BRANCH   3   5
HETATM    5  C5  UNL     1      15.996  50.735  17.951  1.00  0.00     0.206 C 
BRANCH   5   6
HETATM    6  C6  UNL     1      15.801  51.564  19.158  1.00  0.00     0.231 C 
HETATM    7  O2  UNL     1      15.149  52.615  19.025  1.00  0.00    -0.273 OA
HETATM    8  N5  UNL     1      16.331  51.170  20.379  1.00  0.00    -0.327 N 
ATOM      9  H5  UNL     1      16.840  50.287  20.361  1.00  0.00     0.169 HD
BRANCH   8  10
HETATM   10  C7  UNL     1      16.276  51.799  21.640  1.00  0.00     0.037 A 
HETATM   11  C8  UNL     1      17.324  52.548  22.088  1.00  0.00     0.032 A 
HETATM   12  C9  UNL     1      17.217  53.163  23.307  1.00  0.00     0.041 A 
HETATM   13  C10 UNL     1      16.044  53.033  24.101  1.00  0.00     0.136 A 
HETATM   14  C11 UNL     1      15.007  52.294  23.668  1.00  0.00     0.138 A 
HETATM   15  C12 UNL     1      15.120  51.667  22.421  1.00  0.00     0.068 A 
BRANCH  13  16
HETATM   16  N6  UNL     1      16.053  53.731  25.321  1.00  0.00    -0.113 N 
HETATM   17  O3  UNL     1      16.456  53.131  26.351  1.00  0.00    -0.532 OA
HETATM   18  O4  UNL     1      15.655  55.004  25.470  1.00  0.00    -0.532 OA
ENDBRANCH  13  16
BRANCH  14  19
HETATM   19  N7  UNL     1      13.798  52.069  24.366  1.00  0.00    -0.113 N 
HETATM   20  O5  UNL     1      13.548  50.877  24.783  1.00  0.00    -0.532 OA
HETATM   21  O6  UNL     1      12.840  52.966  24.657  1.00  0.00    -0.532 OA
ENDBRANCH  14  19
ENDBRANCH   8  10
ENDBRANCH   5   6
ENDBRANCH   3   5
BRANCH   1  22
HETATM   22  C3  UNL     1      19.443  49.431  16.963  1.00  0.00     0.121 A 
HETATM   23  C2  UNL     1      19.589  48.373  16.066  1.00  0.00     0.162 A 
HETATM   24  N2  UNL     1      20.736  47.677  16.043  1.00  0.00    -0.177 N 
HETATM   25  N3  UNL     1      18.526  48.045  15.193  1.00  0.00    -0.080 NA
HETATM   26  C1  UNL     1      21.712  48.029  16.892  1.00  0.00     0.678 A 
ATOM     27  H2  UNL     1      20.862  46.899  15.396  1.00  0.00     0.185 HD
HETATM   28  N9  UNL     1      21.581  49.057  17.768  1.00  0.00    -0.175 N 
HETATM   29  C13 UNL     1      20.450  49.784  17.829  1.00  0.00     0.145 A 
ATOM     30  H9  UNL     1      22.355  49.284  18.391  1.00  0.00     0.186 HD
BRANCH  26  31
HETATM   31  N1  UNL     1      22.843  47.386  16.910  1.00  0.00    -0.234 N 
ATOM     32  H12 UNL     1      22.804  46.382  16.733  1.00  0.00     0.174 HD
ATOM     33  H11 UNL     1      23.719  47.875  17.092  1.00  0.00     0.174 HD
ENDBRANCH  26  31
BRANCH  29  34
HETATM   34  N8  UNL     1      20.354  50.752  18.667  1.00  0.00    -0.383 N 
ATOM     35  H82 UNL     1      19.657  51.483  18.524  1.00  0.00     0.157 HD
ATOM     36  H81 UNL     1      20.946  50.841  19.493  1.00  0.00     0.157 HD
ENDBRANCH  29  34
ENDBRANCH   1  22
TORSDOF 8
ENDMDL
MODEL 2
REMARK VINA RESULT: -10.059402750      0.199      1.571
REMARK  8 active torsions:
REMARK  status: ('A' for Active; 'I' for Inactive)
REMARK    1  A    between atoms: N1_1  and  C1_4 
REMARK    2  A    between atoms: C3_9  and  N4_10 
REMARK       I    between atoms: N4_10  and  C4_12 
REMARK    3  A    between atoms: C4_12  and  C5_14 
REMARK    4  A    between atoms: C5_14  and  C6_15 
REMARK       I    between atoms: C6_15  and  N5_17 
REMARK    5  A    between atoms: N5_17  and  C7_19 
REMARK    6  A    between atoms: C10_22  and  N6_23 
REMARK    7  A    between atoms: C11_26  and  N7_27 
REMARK    8  A    between atoms: C13_31  and  N8_32 
ROOT
HETATM    1  N4  UNL     1      18.159  50.105  16.860  1.00  0.00    -0.321 N 
ATOM      2  H4  UNL     1      18.003  50.792  16.124  1.00  0.00     0.169 HD
HETATM    3  C4  UNL     1      17.173  49.946  17.884  1.00  0.00     0.231 C 
HETATM    4  O1  UNL     1      17.398  49.084  18.778  1.00  0.00    -0.273 OA
ENDROOT
BRANCH   3   5
HETATM    5  C5  UNL     1      15.969  50.777  17.851  1.00  0.00     0.206 C 
BRANCH   5   6
HETATM    6  C6  UNL     1      15.805  51.598  19.066  1.00  0.00     0.231 C 
HETATM    7  O2  UNL     1      15.187  52.671  18.947  1.00  0.00    -0.273 OA
HETATM    8  N5  UNL     1      16.324  51.173  20.282  1.00  0.00    -0.327 N 
ATOM      9  H5  UNL     1      16.803  50.274  20.253  1.00  0.00     0.169 HD
BRANCH   8  10
HETATM   10  C7  UNL     1      16.293  51.790  21.549  1.00  0.00     0.037 A 
HETATM   11  C8  UNL     1      17.392  52.437  22.034  1.00  0.00     0.032 A 
HETATM   12  C9  UNL     1      17.309  53.045  23.258  1.00  0.00     0.041 A 
HETATM   13  C10 UNL     1      16.109  53.010  24.022  1.00  0.00     0.136 A 
HETATM   14  C11 UNL     1      15.023  52.370  23.554  1.00  0.00     0.138 A 
HETATM   15  C12 UNL     1      15.111  51.751  22.301  1.00  0.00     0.068 A 
BRANCH  13  16
HETATM   16  N6  UNL     1      16.149  53.689  25.252  1.00  0.00    -0.113 N 
HETATM   17  O3  UNL     1      16.463  53.041  26.284  1.00  0.00    -0.532 OA
HETATM   18  O4  UNL     1      15.872  54.993  25.407  1.00  0.00    -0.532 OA
ENDBRANCH  13  16
BRANCH  14  19
HETATM   19  N7  UNL     1      13.781  52.245  24.220  1.00  0.00    -0.113 N 
HETATM   20  O5  UNL     1      13.308  51.063  24.406  1.00  0.00    -0.532 OA
HETATM   21  O6  UNL     1      13.003  53.232  24.694  1.00  0.00    -0.532 OA
ENDBRANCH  14  19
ENDBRANCH   8  10
ENDBRANCH   5   6
ENDBRANCH   3   5
BRANCH   1  22
HETATM   22  C3  UNL     1      19.352  49.330  16.842  1.00  0.00     0.121 A 
HETATM   23  C2  UNL     1      20.426  49.732  17.635  1.00  0.00     0.162 A 
HETATM   24  N2  UNL     1      21.560  49.014  17.628  1.00  0.00    -0.177 N 
HETATM   25  N3  UNL     1      20.309  50.891  18.436  1.00  0.00    -0.080 NA
HETATM   26  C1  UNL     1      21.619  47.923  16.851  1.00  0.00     0.678 A 
ATOM     27  H2  UNL     1      22.358  49.291  18.200  1.00  0.00     0.185 HD
HETATM   28  N9  UNL     1      20.579  47.523  16.077  1.00  0.00    -0.175 N 
HETATM   29  C13 UNL     1      19.422  48.210  16.049  1.00  0.00     0.145 A 
ATOM     30  H9  UNL     1      20.676  46.685  15.504  1.00  0.00     0.186 HD
BRANCH  26  31
HETATM   31  N1  UNL     1      22.696  47.193  16.808  1.00  0.00    -0.234 N 
ATOM     32  H12 UNL     1      23.453  47.527  16.213  1.00  0.00     0.174 HD
ATOM     33  H11 UNL     1      22.764  46.332  17.350  1.00  0.00     0.174 HD
ENDBRANCH  26  31
BRANCH  29  34
HETATM   34  N8  UNL     1      18.454  47.807  15.307  1.00  0.00    -0.383 N 
ATOM     35  H82 UNL     1      18.336  48.191  14.370  1.00  0.00     0.157 HD
ATOM     36  H81 UNL     1      17.775  47.105  15.602  1.00  0.00     0.157 HD
ENDBRANCH  29  34
ENDBRANCH   1  22
TORSDOF 8
ENDMDL
MODEL 3
REMARK VINA RESULT: -9.695245048      1.494      2.504
REMARK  8 active torsions:
REMARK  status: ('A' for Active; 'I' for Inactive)
REMARK    1  A    between atoms: N1_1  and  C1_4 
REMARK    2  A    between atoms: C3_9  and  N4_10 
REMARK       I    between atoms: N4_10  and  C4_12 
REMARK    3  A    between atoms: C4_12  and  C5_14 
REMARK    4  A    between atoms: C5_14  and  C6_15 
REMARK       I    between atoms: C6_15  and  N5_17 
REMARK    5  A    between atoms: N5_17  and  C7_19 
REMARK    6  A    between atoms: C10_22  and  N6_23 
REMARK    7  A    between atoms: C11_26  and  N7_27 
REMARK    8  A    between atoms: C13_31  and  N8_32 
ROOT
HETATM    1  N4  UNL     1      18.818  49.008  17.414  1.00  0.00    -0.321 N 
ATOM      2  H4  UNL     1      18.229  48.390  17.971  1.00  0.00     0.169 HD
HETATM    3  C4  UNL     1      18.245  50.191  16.850  1.00  0.00     0.231 C 
HETATM    4  O1  UNL     1      19.003  50.936  16.169  1.00  0.00    -0.273 OA
ENDROOT
BRANCH   3   5
HETATM    5  C5  UNL     1      16.829  50.480  17.083  1.00  0.00     0.206 C 
BRANCH   5   6
HETATM    6  C6  UNL     1      16.470  50.473  18.515  1.00  0.00     0.231 C 
HETATM    7  O2  UNL     1      16.476  49.373  19.096  1.00  0.00    -0.273 OA
HETATM    8  N5  UNL     1      16.144  51.654  19.168  1.00  0.00    -0.327 N 
ATOM      9  H5  UNL     1      16.182  52.490  18.587  1.00  0.00     0.169 HD
BRANCH   8  10
HETATM   10  C7  UNL     1      15.769  51.878  20.509  1.00  0.00     0.037 A 
HETATM   11  C8  UNL     1      14.631  51.321  21.014  1.00  0.00     0.032 A 
HETATM   12  C9  UNL     1      14.319  51.544  22.328  1.00  0.00     0.041 A 
HETATM   13  C10 UNL     1      15.153  52.338  23.163  1.00  0.00     0.136 A 
HETATM   14  C11 UNL     1      16.274  52.895  22.672  1.00  0.00     0.138 A 
HETATM   15  C12 UNL     1      16.591  52.663  21.328  1.00  0.00     0.068 A 
BRANCH  13  16
HETATM   16  N6  UNL     1      14.731  52.472  24.497  1.00  0.00    -0.113 N 
HETATM   17  O3  UNL     1      13.495  52.500  24.734  1.00  0.00    -0.532 OA
HETATM   18  O4  UNL     1      15.559  52.575  25.548  1.00  0.00    -0.532 OA
ENDBRANCH  13  16
BRANCH  14  19
HETATM   19  N7  UNL     1      17.175  53.718  23.387  1.00  0.00    -0.113 N 
HETATM   20  O5  UNL     1      16.926  54.979  23.452  1.00  0.00    -0.532 OA
HETATM   21  O6  UNL     1      18.297  53.344  24.025  1.00  0.00    -0.532 OA
ENDBRANCH  14  19
ENDBRANCH   8  10
ENDBRANCH   5   6
ENDBRANCH   3   5
BRANCH   1  22
HETATM   22  C3  UNL     1      20.185  48.671  17.218  1.00  0.00     0.121 A 
HETATM   23  C2  UNL     1      20.503  47.631  16.345  1.00  0.00     0.162 A 
HETATM   24  N2  UNL     1      21.789  47.298  16.150  1.00  0.00    -0.177 N 
HETATM   25  N3  UNL     1      19.467  46.938  15.678  1.00  0.00    -0.080 NA
HETATM   26  C1  UNL     1      22.732  47.987  16.808  1.00  0.00     0.678 A 
ATOM     27  H2  UNL     1      22.042  46.539  15.517  1.00  0.00     0.185 HD
HETATM   28  N9  UNL     1      22.434  49.002  17.658  1.00  0.00    -0.175 N 
HETATM   29  C13 UNL     1      21.161  49.372  17.887  1.00  0.00     0.145 A 
ATOM     30  H9  UNL     1      23.190  49.494  18.132  1.00  0.00     0.186 HD
BRANCH  26  31
HETATM   31  N1  UNL     1      23.993  47.703  16.654  1.00  0.00    -0.234 N 
ATOM     32  H12 UNL     1      24.653  48.473  16.759  1.00  0.00     0.174 HD
ATOM     33  H11 UNL     1      24.290  46.752  16.439  1.00  0.00     0.174 HD
ENDBRANCH  26  31
BRANCH  29  34
HETATM   34  N8  UNL     1      20.908  50.337  18.696  1.00  0.00    -0.383 N 
ATOM     35  H82 UNL     1      19.947  50.646  18.837  1.00  0.00     0.157 HD
ATOM     36  H81 UNL     1      21.628  50.830  19.224  1.00  0.00     0.157 HD
ENDBRANCH  29  34
ENDBRANCH   1  22
TORSDOF 8
ENDMDL
MODEL 4
REMARK VINA RESULT: -9.511474618      1.037      2.700
REMARK  8 active torsions:
REMARK  status: ('A' for Active; 'I' for Inactive)
REMARK    1  A    between atoms: N1_1  and  C1_4 
REMARK    2  A    between atoms: C3_9  and  N4_10 
REMARK       I    between atoms: N4_10  and  C4_12 
REMARK    3  A    between atoms: C4_12  and  C5_14 
REMARK    4  A    between atoms: C5_14  and  C6_15 
REMARK       I    between atoms: C6_15  and  N5_17 
REMARK    5  A    between atoms: N5_17  and  C7_19 
REMARK    6  A    between atoms: C10_22  and  N6_23 
REMARK    7  A    between atoms: C11_26  and  N7_27 
REMARK    8  A    between atoms: C13_31  and  N8_32 
ROOT
HETATM    1  N4  UNL     1      18.275  50.221  16.819  1.00  0.00    -0.321 N 
ATOM      2  H4  UNL     1      18.191  50.941  16.103  1.00  0.00     0.169 HD
HETATM    3  C4  UNL     1      17.249  50.102  17.809  1.00  0.00     0.231 C 
HETATM    4  O1  UNL     1      17.384  49.198  18.679  1.00  0.00    -0.273 OA
ENDROOT
BRANCH   3   5
HETATM    5  C5  UNL     1      16.110  51.020  17.770  1.00  0.00     0.206 C 
BRANCH   5   6
HETATM    6  C6  UNL     1      15.579  51.332  19.112  1.00  0.00     0.231 C 
HETATM    7  O2  UNL     1      14.359  51.170  19.292  1.00  0.00    -0.273 OA
HETATM    8  N5  UNL     1      16.422  51.786  20.117  1.00  0.00    -0.327 N 
ATOM      9  H5  UNL     1      17.402  51.872  19.850  1.00  0.00     0.169 HD
BRANCH   8  10
HETATM   10  C7  UNL     1      16.136  52.148  21.450  1.00  0.00     0.037 A 
HETATM   11  C8  UNL     1      15.055  51.622  22.096  1.00  0.00     0.032 A 
HETATM   12  C9  UNL     1      14.831  51.981  23.398  1.00  0.00     0.041 A 
HETATM   13  C10 UNL     1      15.697  52.881  24.077  1.00  0.00     0.136 A 
HETATM   14  C11 UNL     1      16.763  53.407  23.448  1.00  0.00     0.138 A 
HETATM   15  C12 UNL     1      16.990  53.037  22.116  1.00  0.00     0.068 A 
BRANCH  13  16
HETATM   16  N6  UNL     1      15.368  53.151  25.417  1.00  0.00    -0.113 N 
HETATM   17  O3  UNL     1      14.544  54.072  25.657  1.00  0.00    -0.532 OA
HETATM   18  O4  UNL     1      15.875  52.492  26.470  1.00  0.00    -0.532 OA
ENDBRANCH  13  16
BRANCH  14  19
HETATM   19  N7  UNL     1      17.686  54.324  24.001  1.00  0.00    -0.113 N 
HETATM   20  O5  UNL     1      17.478  55.582  23.819  1.00  0.00    -0.532 OA
HETATM   21  O6  UNL     1      18.792  54.046  24.711  1.00  0.00    -0.532 OA
ENDBRANCH  14  19
ENDBRANCH   8  10
ENDBRANCH   5   6
ENDBRANCH   3   5
BRANCH   1  22
HETATM   22  C3  UNL     1      19.409  49.362  16.808  1.00  0.00     0.121 A 
HETATM   23  C2  UNL     1      20.511  49.693  17.596  1.00  0.00     0.162 A 
HETATM   24  N2  UNL     1      21.590  48.894  17.595  1.00  0.00    -0.177 N 
HETATM   25  N3  UNL     1      20.479  50.866  18.384  1.00  0.00    -0.080 NA
HETATM   26  C1  UNL     1      21.567  47.794  16.830  1.00  0.00     0.678 A 
ATOM     27  H2  UNL     1      22.406  49.119  18.163  1.00  0.00     0.185 HD
HETATM   28  N9  UNL     1      20.500  47.462  16.061  1.00  0.00    -0.175 N 
HETATM   29  C13 UNL     1      19.396  48.230  16.027  1.00  0.00     0.145 A 
ATOM     30  H9  UNL     1      20.535  46.613  15.498  1.00  0.00     0.186 HD
BRANCH  26  31
HETATM   31  N1  UNL     1      22.589  46.988  16.794  1.00  0.00    -0.234 N 
ATOM     32  H12 UNL     1      22.530  46.200  16.149  1.00  0.00     0.174 HD
ATOM     33  H11 UNL     1      23.402  47.149  17.388  1.00  0.00     0.174 HD
ENDBRANCH  26  31
BRANCH  29  34
HETATM   34  N8  UNL     1      18.400  47.891  15.291  1.00  0.00    -0.383 N 
ATOM     35  H82 UNL     1      17.460  47.866  15.685  1.00  0.00     0.157 HD
ATOM     36  H81 UNL     1      18.490  47.638  14.307  1.00  0.00     0.157 HD
ENDBRANCH  29  34
ENDBRANCH   1  22
TORSDOF 8
ENDMDL
MODEL 5
REMARK VINA RESULT: -9.499063348      1.030      2.125
REMARK  8 active torsions:
REMARK  status: ('A' for Active; 'I' for Inactive)
REMARK    1  A    between atoms: N1_1  and  C1_4 
REMARK    2  A    between atoms: C3_9  and  N4_10 
REMARK       I    between atoms: N4_10  and  C4_12 
REMARK    3  A    between atoms: C4_12  and  C5_14 
REMARK    4  A    between atoms: C5_14  and  C6_15 
REMARK       I    between atoms: C6_15  and  N5_17 
REMARK    5  A    between atoms: N5_17  and  C7_19 
REMARK    6  A    between atoms: C10_22  and  N6_23 
REMARK    7  A    between atoms: C11_26  and  N7_27 
REMARK    8  A    between atoms: C13_31  and  N8_32 
ROOT
HETATM    1  N4  UNL     1      18.340  50.123  16.846  1.00  0.00    -0.321 N 
ATOM      2  H4  UNL     1      18.168  50.769  16.077  1.00  0.00     0.169 HD
HETATM    3  C4  UNL     1      17.370  50.014  17.892  1.00  0.00     0.231 C 
HETATM    4  O1  UNL     1      17.613  49.202  18.827  1.00  0.00    -0.273 OA
ENDROOT
BRANCH   3   5
HETATM    5  C5  UNL     1      16.161  50.836  17.833  1.00  0.00     0.206 C 
BRANCH   5   6
HETATM    6  C6  UNL     1      15.616  51.153  19.168  1.00  0.00     0.231 C 
HETATM    7  O2  UNL     1      14.422  50.872  19.376  1.00  0.00    -0.273 OA
HETATM    8  N5  UNL     1      16.419  51.739  20.137  1.00  0.00    -0.327 N 
ATOM      9  H5  UNL     1      17.381  51.914  19.849  1.00  0.00     0.169 HD
BRANCH   8  10
HETATM   10  C7  UNL     1      16.113  52.130  21.457  1.00  0.00     0.037 A 
HETATM   11  C8  UNL     1      15.010  51.636  22.090  1.00  0.00     0.032 A 
HETATM   12  C9  UNL     1      14.766  52.023  23.381  1.00  0.00     0.041 A 
HETATM   13  C10 UNL     1      15.636  52.919  24.061  1.00  0.00     0.136 A 
HETATM   14  C11 UNL     1      16.723  53.414  23.444  1.00  0.00     0.138 A 
HETATM   15  C12 UNL     1      16.970  53.015  22.124  1.00  0.00     0.068 A 
BRANCH  13  16
HETATM   16  N6  UNL     1      15.285  53.219  25.389  1.00  0.00    -0.113 N 
HETATM   17  O3  UNL     1      15.735  52.486  26.308  1.00  0.00    -0.532 OA
HETATM   18  O4  UNL     1      14.494  54.241  25.752  1.00  0.00    -0.532 OA
ENDBRANCH  13  16
BRANCH  14  19
HETATM   19  N7  UNL     1      17.653  54.324  24.000  1.00  0.00    -0.113 N 
HETATM   20  O5  UNL     1      17.448  55.583  23.828  1.00  0.00    -0.532 OA
HETATM   21  O6  UNL     1      18.761  54.037  24.703  1.00  0.00    -0.532 OA
ENDBRANCH  14  19
ENDBRANCH   8  10
ENDBRANCH   5   6
ENDBRANCH   3   5
BRANCH   1  22
HETATM   22  C3  UNL     1      19.536  49.354  16.851  1.00  0.00     0.121 A 
HETATM   23  C2  UNL     1      19.638  48.263  15.988  1.00  0.00     0.162 A 
HETATM   24  N2  UNL     1      20.759  47.526  15.980  1.00  0.00    -0.177 N 
HETATM   25  N3  UNL     1      18.558  47.947  15.132  1.00  0.00    -0.080 NA
HETATM   26  C1  UNL     1      21.753  47.870  16.812  1.00  0.00     0.678 A 
ATOM     27  H2  UNL     1      20.852  46.723  15.358  1.00  0.00     0.185 HD
HETATM   28  N9  UNL     1      21.665  48.930  17.654  1.00  0.00    -0.175 N 
HETATM   29  C13 UNL     1      20.562  49.698  17.699  1.00  0.00     0.145 A 
ATOM     30  H9  UNL     1      22.451  49.148  18.265  1.00  0.00     0.186 HD
BRANCH  26  31
HETATM   31  N1  UNL     1      22.860  47.186  16.843  1.00  0.00    -0.234 N 
ATOM     32  H12 UNL     1      23.021  46.536  16.074  1.00  0.00     0.174 HD
ATOM     33  H11 UNL     1      23.526  47.307  17.606  1.00  0.00     0.174 HD
ENDBRANCH  26  31
BRANCH  29  34
HETATM   34  N8  UNL     1      20.507  50.696  18.505  1.00  0.00    -0.383 N 
ATOM     35  H82 UNL     1      20.032  51.553  18.224  1.00  0.00     0.157 HD
ATOM     36  H81 UNL     1      20.919  50.687  19.438  1.00  0.00     0.157 HD
ENDBRANCH  29  34
ENDBRANCH   1  22
TORSDOF 8
ENDMDL
