MODEL 1
REMARK VINA RESULT: -8.764830621      0.000      0.000
REMARK  7 active torsions:
REMARK  status: ('A' for Active; 'I' for Inactive)
REMARK    1  A    between atoms: N1_2  and  C2_4 
REMARK    2  A    between atoms: C5_8  and  N3_9 
REMARK    3  A    between atoms: N3_9  and  N4_11 
REMARK    4  A    between atoms: N4_11  and  C6_13 
REMARK    5  A    between atoms: C8_15  and  C9_16 
REMARK    6  A    between atoms: C10_19  and  N5_20 
REMARK    7  A    between atoms: C12_27  and  N8_28 
ROOT
HETATM    1  N3  UNL     1      16.868  49.712  17.990  1.00  0.00    -0.283 N 
ATOM      2  H3  UNL     1      16.300  48.891  18.198  1.00  0.00     0.188 HD
ENDROOT
BRANCH   1   3
HETATM    3  C5  UNL     1      16.363  50.810  17.215  1.00  0.00     0.159 A 
HETATM    4  N2  UNL     1      16.639  50.824  15.897  1.00  0.00    -0.342 N 
HETATM    5  C3  UNL     1      16.197  51.817  15.077  1.00  0.00     0.125 A 
HETATM    6  C4  UNL     1      17.433  49.739  15.341  1.00  0.00     0.157 C 
HETATM    7  C2  UNL     1      15.437  52.871  15.546  1.00  0.00     0.097 A 
HETATM    8  C13 UNL     1      15.147  52.869  16.889  1.00  0.00     0.236 A 
HETATM    9  C12 UNL     1      15.613  51.843  17.698  1.00  0.00     0.200 A 
HETATM   10  O5  UNL     1      14.459  53.815  17.345  1.00  0.00    -0.283 OA
BRANCH   7  11
HETATM   11  N1  UNL     1      14.992  53.885  14.669  1.00  0.00    -0.390 N 
HETATM   12  C1  UNL     1      14.315  53.634  13.429  1.00  0.00     0.146 C 
ATOM     13  H1  UNL     1      15.163  54.855  14.933  1.00  0.00     0.159 HD
ENDBRANCH   7  11
BRANCH   9  14
HETATM   14  N8  UNL     1      15.301  51.895  19.076  1.00  0.00    -0.107 N 
HETATM   15  O3  UNL     1      16.224  51.929  19.945  1.00  0.00    -0.531 OA
HETATM   16  O4  UNL     1      14.013  51.929  19.533  1.00  0.00    -0.531 OA
ENDBRANCH   9  14
ENDBRANCH   1   3
BRANCH   1  17
HETATM   17  N4  UNL     1      18.171  49.835  18.434  1.00  0.00    -0.296 N 
ATOM     18  H4  UNL     1      18.301  50.504  19.193  1.00  0.00     0.187 HD
BRANCH  17  19
HETATM   19  C6  UNL     1      19.343  49.194  18.016  1.00  0.00     0.090 A 
HETATM   20  C7  UNL     1      19.308  47.909  17.464  1.00  0.00     0.056 A 
HETATM   21  C8  UNL     1      20.453  47.240  17.035  1.00  0.00     0.086 A 
HETATM   22  C10 UNL     1      21.685  47.837  17.142  1.00  0.00     0.117 A 
HETATM   23  N6  UNL     1      21.702  49.094  17.682  1.00  0.00    -0.329 N 
HETATM   24  C11 UNL     1      20.595  49.738  18.097  1.00  0.00     0.146 A 
ATOM     25  H6  UNL     1      22.601  49.567  17.776  1.00  0.00     0.168 HD
HETATM   26  N7  UNL     1      20.784  51.049  18.645  1.00  0.00    -0.080 NA
BRANCH  21  27
HETATM   27  C9  UNL     1      20.295  45.906  16.475  1.00  0.00     0.213 C 
HETATM   28  O1  UNL     1      19.648  45.620  15.469  1.00  0.00    -0.644 OA
HETATM   29  O2  UNL     1      20.928  44.830  17.118  1.00  0.00    -0.644 OA
ENDBRANCH  21  27
BRANCH  22  30
HETATM   30  N5  UNL     1      22.798  47.322  16.782  1.00  0.00    -0.385 N 
ATOM     31  H52 UNL     1      22.807  46.732  15.949  1.00  0.00     0.157 HD
ATOM     32  H51 UNL     1      23.693  47.444  17.256  1.00  0.00     0.157 HD
ENDBRANCH  22  30
ENDBRANCH  17  19
ENDBRANCH   1  17
TORSDOF 7
ENDMDL
MODEL 2
REMARK VINA RESULT: -8.257106479      2.078      2.700
REMARK  7 active torsions:
REMARK  status: ('A' for Active; 'I' for Inactive)
REMARK    1  A    between atoms: N1_2  and  C2_4 
REMARK    2  A    between atoms: C5_8  and  N3_9 
REMARK    3  A    between atoms: N3_9  and  N4_11 
REMARK    4  A    between atoms: N4_11  and  C6_13 
REMARK    5  A    between atoms: C8_15  and  C9_16 
REMARK    6  A    between atoms: C10_19  and  N5_20 
REMARK    7  A    between atoms: C12_27  and  N8_28 
ROOT
HETATM    1  N3  UNL     1      17.018  49.754  17.973  1.00  0.00    -0.283 N 
ATOM      2  H3  UNL     1      16.401  49.010  18.297  1.00  0.00     0.188 HD
ENDROOT
BRANCH   1   3
HETATM    3  C5  UNL     1      16.586  50.744  17.028  1.00  0.00     0.159 A 
HETATM    4  N2  UNL     1      15.695  51.662  17.450  1.00  0.00    -0.342 N 
HETATM    5  C3  UNL     1      15.231  52.646  16.632  1.00  0.00     0.125 A 
HETATM    6  C4  UNL     1      15.223  51.593  18.824  1.00  0.00     0.157 C 
HETATM    7  C2  UNL     1      15.646  52.765  15.319  1.00  0.00     0.097 A 
HETATM    8  C13 UNL     1      16.554  51.835  14.876  1.00  0.00     0.236 A 
HETATM    9  C12 UNL     1      17.007  50.843  15.734  1.00  0.00     0.200 A 
HETATM   10  O5  UNL     1      16.949  51.915  13.687  1.00  0.00    -0.283 OA
BRANCH   7  11
HETATM   11  N1  UNL     1      15.147  53.799  14.496  1.00  0.00    -0.390 N 
HETATM   12  C1  UNL     1      14.147  53.608  13.485  1.00  0.00     0.146 C 
ATOM     13  H1  UNL     1      15.520  54.739  14.629  1.00  0.00     0.159 HD
ENDBRANCH   7  11
BRANCH   9  14
HETATM   14  N8  UNL     1      17.929  49.900  15.226  1.00  0.00    -0.107 N 
HETATM   15  O3  UNL     1      17.574  48.702  15.013  1.00  0.00    -0.531 OA
HETATM   16  O4  UNL     1      19.222  50.230  14.926  1.00  0.00    -0.531 OA
ENDBRANCH   9  14
ENDBRANCH   1   3
BRANCH   1  17
HETATM   17  N4  UNL     1      18.323  49.869  18.416  1.00  0.00    -0.296 N 
ATOM     18  H4  UNL     1      18.462  50.556  19.157  1.00  0.00     0.187 HD
BRANCH  17  19
HETATM   19  C6  UNL     1      19.486  49.200  18.015  1.00  0.00     0.090 A 
HETATM   20  C7  UNL     1      19.432  47.900  17.501  1.00  0.00     0.056 A 
HETATM   21  C8  UNL     1      20.567  47.203  17.091  1.00  0.00     0.086 A 
HETATM   22  C10 UNL     1      21.808  47.786  17.181  1.00  0.00     0.117 A 
HETATM   23  N6  UNL     1      21.843  49.057  17.684  1.00  0.00    -0.329 N 
HETATM   24  C11 UNL     1      20.745  49.729  18.080  1.00  0.00     0.146 A 
ATOM     25  H6  UNL     1      22.748  49.521  17.764  1.00  0.00     0.168 HD
HETATM   26  N7  UNL     1      20.952  51.052  18.590  1.00  0.00    -0.080 NA
BRANCH  21  27
HETATM   27  C9  UNL     1      20.390  45.856  16.570  1.00  0.00     0.213 C 
HETATM   28  O1  UNL     1      20.919  44.838  17.012  1.00  0.00    -0.644 OA
HETATM   29  O2  UNL     1      19.543  45.671  15.464  1.00  0.00    -0.644 OA
ENDBRANCH  21  27
BRANCH  22  30
HETATM   30  N5  UNL     1      22.913  47.245  16.835  1.00  0.00    -0.385 N 
ATOM     31  H52 UNL     1      23.626  47.838  16.411  1.00  0.00     0.157 HD
ATOM     32  H51 UNL     1      23.154  46.260  16.942  1.00  0.00     0.157 HD
ENDBRANCH  22  30
ENDBRANCH  17  19
ENDBRANCH   1  17
TORSDOF 7
ENDMDL
MODEL 3
REMARK VINA RESULT: -7.693966244      2.268      7.584
REMARK  7 active torsions:
REMARK  status: ('A' for Active; 'I' for Inactive)
REMARK    1  A    between atoms: N1_2  and  C2_4 
REMARK    2  A    between atoms: C5_8  and  N3_9 
REMARK    3  A    between atoms: N3_9  and  N4_11 
REMARK    4  A    between atoms: N4_11  and  C6_13 
REMARK    5  A    between atoms: C8_15  and  C9_16 
REMARK    6  A    between atoms: C10_19  and  N5_20 
REMARK    7  A    between atoms: C12_27  and  N8_28 
ROOT
HETATM    1  N3  UNL     1      17.858  49.076  17.693  1.00  0.00    -0.283 N 
ATOM      2  H3  UNL     1      17.389  48.716  18.525  1.00  0.00     0.188 HD
ENDROOT
BRANCH   1   3
HETATM    3  C5  UNL     1      19.266  48.900  17.477  1.00  0.00     0.159 A 
HETATM    4  N2  UNL     1      20.110  49.619  18.242  1.00  0.00    -0.342 N 
HETATM    5  C3  UNL     1      21.461  49.516  18.118  1.00  0.00     0.125 A 
HETATM    6  C4  UNL     1      19.550  50.530  19.229  1.00  0.00     0.157 C 
HETATM    7  C2  UNL     1      22.051  48.667  17.202  1.00  0.00     0.097 A 
HETATM    8  C13 UNL     1      21.202  47.927  16.416  1.00  0.00     0.236 A 
HETATM    9  C12 UNL     1      19.829  48.056  16.565  1.00  0.00     0.200 A 
HETATM   10  O5  UNL     1      21.708  47.147  15.572  1.00  0.00    -0.283 OA
BRANCH   7  11
HETATM   11  N1  UNL     1      23.458  48.581  17.100  1.00  0.00    -0.390 N 
HETATM   12  C1  UNL     1      24.353  48.714  18.213  1.00  0.00     0.146 C 
ATOM     13  H1  UNL     1      23.862  48.416  16.178  1.00  0.00     0.159 HD
ENDBRANCH   7  11
BRANCH   9  14
HETATM   14  N8  UNL     1      18.997  47.285  15.721  1.00  0.00    -0.107 N 
HETATM   15  O3  UNL     1      18.120  47.843  14.995  1.00  0.00    -0.531 OA
HETATM   16  O4  UNL     1      19.107  45.924  15.632  1.00  0.00    -0.531 OA
ENDBRANCH   9  14
ENDBRANCH   1   3
BRANCH   1  17
HETATM   17  N4  UNL     1      17.175  49.764  16.707  1.00  0.00    -0.296 N 
ATOM     18  H4  UNL     1      17.236  49.347  15.778  1.00  0.00     0.187 HD
BRANCH  17  19
HETATM   19  C6  UNL     1      16.415  50.938  16.771  1.00  0.00     0.090 A 
HETATM   20  C7  UNL     1      16.013  51.604  15.608  1.00  0.00     0.056 A 
HETATM   21  C8  UNL     1      15.255  52.773  15.633  1.00  0.00     0.086 A 
HETATM   22  C10 UNL     1      14.868  53.323  16.831  1.00  0.00     0.117 A 
HETATM   23  N6  UNL     1      15.268  52.659  17.958  1.00  0.00    -0.329 N 
HETATM   24  C11 UNL     1      16.001  51.529  17.932  1.00  0.00     0.146 A 
ATOM     25  H6  UNL     1      14.998  53.039  18.865  1.00  0.00     0.168 HD
HETATM   26  N7  UNL     1      16.343  50.958  19.201  1.00  0.00    -0.080 NA
BRANCH  21  27
HETATM   27  C9  UNL     1      14.892  53.379  14.360  1.00  0.00     0.213 C 
HETATM   28  O1  UNL     1      15.675  53.850  13.538  1.00  0.00    -0.644 OA
HETATM   29  O2  UNL     1      13.533  53.442  14.012  1.00  0.00    -0.644 OA
ENDBRANCH  21  27
BRANCH  22  30
HETATM   30  N5  UNL     1      14.173  54.387  16.974  1.00  0.00    -0.385 N 
ATOM     31  H52 UNL     1      13.217  54.388  16.619  1.00  0.00     0.157 HD
ATOM     32  H51 UNL     1      14.490  55.250  17.416  1.00  0.00     0.157 HD
ENDBRANCH  22  30
ENDBRANCH  17  19
ENDBRANCH   1  17
TORSDOF 7
ENDMDL
MODEL 4
REMARK VINA RESULT: -7.542318699      1.599      7.669
REMARK  7 active torsions:
REMARK  status: ('A' for Active; 'I' for Inactive)
REMARK    1  A    between atoms: N1_2  and  C2_4 
REMARK    2  A    between atoms: C5_8  and  N3_9 
REMARK    3  A    between atoms: N3_9  and  N4_11 
REMARK    4  A    between atoms: N4_11  and  C6_13 
REMARK    5  A    between atoms: C8_15  and  C9_16 
REMARK    6  A    between atoms: C10_19  and  N5_20 
REMARK    7  A    between atoms: C12_27  and  N8_28 
ROOT
HETATM    1  N3  UNL     1      18.492  48.911  17.476  1.00  0.00    -0.283 N 
ATOM      2  H3  UNL     1      17.962  48.849  18.346  1.00  0.00     0.188 HD
ENDROOT
BRANCH   1   3
HETATM    3  C5  UNL     1      19.900  48.635  17.423  1.00  0.00     0.159 A 
HETATM    4  N2  UNL     1      20.734  49.538  17.973  1.00  0.00    -0.342 N 
HETATM    5  C3  UNL     1      22.084  49.362  17.980  1.00  0.00     0.125 A 
HETATM    6  C4  UNL     1      20.165  50.732  18.578  1.00  0.00     0.157 C 
HETATM    7  C2  UNL     1      22.681  48.247  17.424  1.00  0.00     0.097 A 
HETATM    8  C13 UNL     1      21.842  47.319  16.860  1.00  0.00     0.236 A 
HETATM    9  C12 UNL     1      20.470  47.527  16.867  1.00  0.00     0.200 A 
HETATM   10  O5  UNL     1      22.355  46.295  16.345  1.00  0.00    -0.283 OA
BRANCH   7  11
HETATM   11  N1  UNL     1      24.086  48.094  17.449  1.00  0.00    -0.390 N 
HETATM   12  C1  UNL     1      24.967  48.906  18.238  1.00  0.00     0.146 C 
ATOM     13  H1  UNL     1      24.498  47.362  16.871  1.00  0.00     0.159 HD
ENDBRANCH   7  11
BRANCH   9  14
HETATM   14  N8  UNL     1      19.650  46.550  16.260  1.00  0.00    -0.107 N 
HETATM   15  O3  UNL     1      19.641  45.357  16.691  1.00  0.00    -0.531 OA
HETATM   16  O4  UNL     1      18.825  46.838  15.208  1.00  0.00    -0.531 OA
ENDBRANCH   9  14
ENDBRANCH   1   3
BRANCH   1  17
HETATM   17  N4  UNL     1      17.899  49.265  16.279  1.00  0.00    -0.296 N 
ATOM     18  H4  UNL     1      17.964  48.559  15.546  1.00  0.00     0.187 HD
BRANCH  17  19
HETATM   19  C6  UNL     1      17.223  50.433  15.905  1.00  0.00     0.090 A 
HETATM   20  C7  UNL     1      16.415  51.124  16.815  1.00  0.00     0.056 A 
HETATM   21  C8  UNL     1      15.728  52.290  16.479  1.00  0.00     0.086 A 
HETATM   22  C10 UNL     1      15.826  52.812  15.212  1.00  0.00     0.117 A 
HETATM   23  N6  UNL     1      16.621  52.124  14.336  1.00  0.00    -0.329 N 
HETATM   24  C11 UNL     1      17.283  50.998  14.661  1.00  0.00     0.146 A 
ATOM     25  H6  UNL     1      16.716  52.484  13.386  1.00  0.00     0.168 HD
HETATM   26  N7  UNL     1      18.070  50.395  13.627  1.00  0.00    -0.080 NA
BRANCH  21  27
HETATM   27  C9  UNL     1      14.919  52.925  17.508  1.00  0.00     0.213 C 
HETATM   28  O1  UNL     1      14.321  53.994  17.396  1.00  0.00    -0.644 OA
HETATM   29  O2  UNL     1      14.790  52.283  18.750  1.00  0.00    -0.644 OA
ENDBRANCH  21  27
BRANCH  22  30
HETATM   30  N5  UNL     1      15.246  53.871  14.794  1.00  0.00    -0.385 N 
ATOM     31  H52 UNL     1      14.819  53.851  13.868  1.00  0.00     0.157 HD
ATOM     32  H51 UNL     1      15.169  54.750  15.306  1.00  0.00     0.157 HD
ENDBRANCH  22  30
ENDBRANCH  17  19
ENDBRANCH   1  17
TORSDOF 7
ENDMDL
MODEL 5
REMARK VINA RESULT: -7.351377774      1.995      7.502
REMARK  7 active torsions:
REMARK  status: ('A' for Active; 'I' for Inactive)
REMARK    1  A    between atoms: N1_2  and  C2_4 
REMARK    2  A    between atoms: C5_8  and  N3_9 
REMARK    3  A    between atoms: N3_9  and  N4_11 
REMARK    4  A    between atoms: N4_11  and  C6_13 
REMARK    5  A    between atoms: C8_15  and  C9_16 
REMARK    6  A    between atoms: C10_19  and  N5_20 
REMARK    7  A    between atoms: C12_27  and  N8_28 
ROOT
HETATM    1  N3  UNL     1      19.451  50.462  16.780  1.00  0.00    -0.283 N 
ATOM      2  H3  UNL     1      19.480  50.963  17.668  1.00  0.00     0.188 HD
ENDROOT
BRANCH   1   3
HETATM    3  C5  UNL     1      19.800  49.073  16.679  1.00  0.00     0.159 A 
HETATM    4  N2  UNL     1      20.948  48.673  17.259  1.00  0.00    -0.342 N 
HETATM    5  C3  UNL     1      21.359  47.376  17.225  1.00  0.00     0.125 A 
HETATM    6  C4  UNL     1      21.764  49.665  17.941  1.00  0.00     0.157 C 
HETATM    7  C2  UNL     1      20.625  46.390  16.596  1.00  0.00     0.097 A 
HETATM    8  C13 UNL     1      19.452  46.784  16.000  1.00  0.00     0.236 A 
HETATM    9  C12 UNL     1      19.060  48.114  16.051  1.00  0.00     0.200 A 
HETATM   10  O5  UNL     1      18.763  45.910  15.419  1.00  0.00    -0.283 OA
BRANCH   7  11
HETATM   11  N1  UNL     1      21.079  45.052  16.580  1.00  0.00    -0.390 N 
HETATM   12  C1  UNL     1      21.280  44.259  17.759  1.00  0.00     0.146 C 
ATOM     13  H1  UNL     1      21.277  44.624  15.676  1.00  0.00     0.159 HD
ENDBRANCH   7  11
BRANCH   9  14
HETATM   14  N8  UNL     1      17.852  48.472  15.410  1.00  0.00    -0.107 N 
HETATM   15  O3  UNL     1      16.859  48.876  16.086  1.00  0.00    -0.531 OA
HETATM   16  O4  UNL     1      17.702  48.419  14.052  1.00  0.00    -0.531 OA
ENDBRANCH   9  14
ENDBRANCH   1   3
BRANCH   1  17
HETATM   17  N4  UNL     1      19.075  51.079  15.601  1.00  0.00    -0.296 N 
ATOM     18  H4  UNL     1      19.783  51.062  14.867  1.00  0.00     0.187 HD
BRANCH  17  19
HETATM   19  C6  UNL     1      17.883  51.723  15.248  1.00  0.00     0.090 A 
HETATM   20  C7  UNL     1      17.006  52.210  16.224  1.00  0.00     0.056 A 
HETATM   21  C8  UNL     1      15.813  52.857  15.910  1.00  0.00     0.086 A 
HETATM   22  C10 UNL     1      15.450  53.044  14.598  1.00  0.00     0.117 A 
HETATM   23  N6  UNL     1      16.318  52.563  13.657  1.00  0.00    -0.329 N 
HETATM   24  C11 UNL     1      17.471  51.938  13.962  1.00  0.00     0.146 A 
ATOM     25  H6  UNL     1      16.080  52.685  12.673  1.00  0.00     0.168 HD
HETATM   26  N7  UNL     1      18.268  51.489  12.859  1.00  0.00    -0.080 NA
BRANCH  21  27
HETATM   27  C9  UNL     1      14.980  53.323  17.008  1.00  0.00     0.213 C 
HETATM   28  O1  UNL     1      14.269  54.326  16.997  1.00  0.00    -0.644 OA
HETATM   29  O2  UNL     1      14.965  52.579  18.200  1.00  0.00    -0.644 OA
ENDBRANCH  21  27
BRANCH  22  30
HETATM   30  N5  UNL     1      14.384  53.622  14.194  1.00  0.00    -0.385 N 
ATOM     31  H52 UNL     1      14.034  53.390  13.264  1.00  0.00     0.157 HD
ATOM     32  H51 UNL     1      13.842  54.307  14.720  1.00  0.00     0.157 HD
ENDBRANCH  22  30
ENDBRANCH  17  19
ENDBRANCH   1  17
TORSDOF 7
ENDMDL
