MODEL 1
REMARK VINA RESULT: -4.081284865      0.000      0.000
REMARK  3 active torsions:
REMARK  status: ('A' for Active; 'I' for Inactive)
REMARK    1  A    between atoms: N1_1  and  N2_4 
REMARK    2  A    between atoms: N2_4  and  C1_6 
REMARK    3  A    between atoms: C3_8  and  C4_9 
ROOT
HETATM    1  C1  UNL     1      28.527  70.174  76.550  1.00  0.00     0.136 A 
HETATM    2  C2  UNL     1      29.355  69.984  75.474  1.00  0.00     0.083 A 
HETATM    3  C3  UNL     1      29.291  68.646  75.095  1.00  0.00     0.065 A 
HETATM    4  N5  UNL     1      28.439  68.075  75.941  1.00  0.00    -0.298 N 
ATOM      5  H5  UNL     1      28.174  67.091  75.928  1.00  0.00     0.187 HD
HETATM    6  N6  UNL     1      27.981  68.983  76.811  1.00  0.00    -0.284 N 
ATOM      7  H6  UNL     1      27.315  68.794  77.560  1.00  0.00     0.188 HD
ENDROOT
BRANCH   3   8
HETATM    8  C4  UNL     1      30.031  68.055  73.989  1.00  0.00     0.026 A 
HETATM    9  C5  UNL     1      29.915  68.358  72.649  1.00  0.00     0.122 A 
HETATM   10  N3  UNL     1      30.780  67.583  71.966  1.00  0.00    -0.311 N 
HETATM   11  N4  UNL     1      31.433  66.811  72.810  1.00  0.00    -0.311 N 
ATOM     12  H3  UNL     1      30.910  67.594  70.954  1.00  0.00     0.186 HD
HETATM   13  C6  UNL     1      30.991  67.080  74.063  1.00  0.00     0.122 A 
ATOM     14  H4  UNL     1      32.148  66.126  72.563  1.00  0.00     0.186 HD
ENDBRANCH   3   8
BRANCH   1  15
HETATM   15  N2  UNL     1      28.349  71.428  77.195  1.00  0.00    -0.291 N 
ATOM     16  H2  UNL     1      29.101  71.847  77.742  1.00  0.00     0.188 HD
BRANCH  15  17
HETATM   17  N1  UNL     1      27.132  72.062  77.062  1.00  0.00    -0.344 N 
ATOM     18  H12 UNL     1      26.588  72.300  77.891  1.00  0.00     0.176 HD
ATOM     19  H11 UNL     1      26.803  72.279  76.121  1.00  0.00     0.176 HD
ENDBRANCH  15  17
ENDBRANCH   1  15
TORSDOF 3
ENDMDL
MODEL 2
REMARK VINA RESULT: -4.073858305      0.012      1.043
REMARK  3 active torsions:
REMARK  status: ('A' for Active; 'I' for Inactive)
REMARK    1  A    between atoms: N1_1  and  N2_4 
REMARK    2  A    between atoms: N2_4  and  C1_6 
REMARK    3  A    between atoms: C3_8  and  C4_9 
ROOT
HETATM    1  C1  UNL     1      28.528  70.173  76.549  1.00  0.00     0.136 A 
HETATM    2  C2  UNL     1      29.355  69.985  75.473  1.00  0.00     0.083 A 
HETATM    3  C3  UNL     1      29.287  68.647  75.090  1.00  0.00     0.065 A 
HETATM    4  N5  UNL     1      28.434  68.077  75.934  1.00  0.00    -0.298 N 
ATOM      5  H5  UNL     1      28.166  67.093  75.918  1.00  0.00     0.187 HD
HETATM    6  N6  UNL     1      27.978  68.983  76.807  1.00  0.00    -0.284 N 
ATOM      7  H6  UNL     1      27.312  68.793  77.556  1.00  0.00     0.188 HD
ENDROOT
BRANCH   3   8
HETATM    8  C4  UNL     1      30.026  68.058  73.982  1.00  0.00     0.026 A 
HETATM    9  C5  UNL     1      30.988  67.074  74.048  1.00  0.00     0.122 A 
HETATM   10  N3  UNL     1      31.417  66.819  72.797  1.00  0.00    -0.311 N 
HETATM   11  N4  UNL     1      30.771  67.594  71.949  1.00  0.00    -0.311 N 
ATOM     12  H3  UNL     1      32.129  66.133  72.544  1.00  0.00     0.186 HD
HETATM   13  C6  UNL     1      29.908  68.368  72.652  1.00  0.00     0.122 A 
ATOM     14  H4  UNL     1      30.899  67.610  70.937  1.00  0.00     0.186 HD
ENDBRANCH   3   8
BRANCH   1  15
HETATM   15  N2  UNL     1      28.353  71.426  77.199  1.00  0.00    -0.291 N 
ATOM     16  H2  UNL     1      29.106  71.840  77.749  1.00  0.00     0.188 HD
BRANCH  15  17
HETATM   17  N1  UNL     1      27.139  72.065  77.065  1.00  0.00    -0.344 N 
ATOM     18  H12 UNL     1      26.298  71.648  77.462  1.00  0.00     0.176 HD
ATOM     19  H11 UNL     1      27.115  72.953  76.564  1.00  0.00     0.176 HD
ENDBRANCH  15  17
ENDBRANCH   1  15
TORSDOF 3
ENDMDL
MODEL 3
REMARK VINA RESULT: -2.935877961      2.014      2.437
REMARK  3 active torsions:
REMARK  status: ('A' for Active; 'I' for Inactive)
REMARK    1  A    between atoms: N1_1  and  N2_4 
REMARK    2  A    between atoms: N2_4  and  C1_6 
REMARK    3  A    between atoms: C3_8  and  C4_9 
ROOT
HETATM    1  C1  UNL     1      28.769  70.338  76.366  1.00  0.00     0.136 A 
HETATM    2  C2  UNL     1      28.254  69.077  76.223  1.00  0.00     0.083 A 
HETATM    3  C3  UNL     1      28.992  68.402  75.254  1.00  0.00     0.065 A 
HETATM    4  N5  UNL     1      29.918  69.264  74.846  1.00  0.00    -0.298 N 
ATOM      5  H5  UNL     1      30.622  69.071  74.135  1.00  0.00     0.187 HD
HETATM    6  N6  UNL     1      29.789  70.421  75.506  1.00  0.00    -0.284 N 
ATOM      7  H6  UNL     1      30.380  71.241  75.373  1.00  0.00     0.188 HD
ENDROOT
BRANCH   3   8
HETATM    8  C4  UNL     1      28.748  67.033  74.821  1.00  0.00     0.026 A 
HETATM    9  C5  UNL     1      29.645  66.172  74.227  1.00  0.00     0.122 A 
HETATM   10  N3  UNL     1      29.014  65.005  73.989  1.00  0.00    -0.311 N 
HETATM   11  N4  UNL     1      27.766  65.093  74.404  1.00  0.00    -0.311 N 
ATOM     12  H3  UNL     1      29.435  64.183  73.556  1.00  0.00     0.186 HD
HETATM   13  C6  UNL     1      27.575  66.331  74.921  1.00  0.00     0.122 A 
ATOM     14  H4  UNL     1      27.064  64.355  74.346  1.00  0.00     0.186 HD
ENDBRANCH   3   8
BRANCH   1  15
HETATM   15  N2  UNL     1      28.254  71.302  77.275  1.00  0.00    -0.291 N 
ATOM     16  H2  UNL     1      28.685  71.443  78.189  1.00  0.00     0.188 HD
BRANCH  15  17
HETATM   17  N1  UNL     1      27.157  72.041  76.888  1.00  0.00    -0.344 N 
ATOM     18  H12 UNL     1      26.376  71.585  76.417  1.00  0.00     0.176 HD
ATOM     19  H11 UNL     1      27.156  73.041  77.087  1.00  0.00     0.176 HD
ENDBRANCH  15  17
ENDBRANCH   1  15
TORSDOF 3
ENDMDL
MODEL 4
REMARK VINA RESULT: -1.757717172      1.322      5.303
REMARK  3 active torsions:
REMARK  status: ('A' for Active; 'I' for Inactive)
REMARK    1  A    between atoms: N1_1  and  N2_4 
REMARK    2  A    between atoms: N2_4  and  C1_6 
REMARK    3  A    between atoms: C3_8  and  C4_9 
ROOT
HETATM    1  C1  UNL     1      31.560  67.118  72.819  1.00  0.00     0.136 A 
HETATM    2  C2  UNL     1      31.036  67.245  74.079  1.00  0.00     0.083 A 
HETATM    3  C3  UNL     1      29.823  67.923  73.989  1.00  0.00     0.065 A 
HETATM    4  N5  UNL     1      29.652  68.181  72.697  1.00  0.00    -0.298 N 
ATOM      5  H5  UNL     1      28.851  68.671  72.300  1.00  0.00     0.187 HD
HETATM    6  N6  UNL     1      30.686  67.703  71.994  1.00  0.00    -0.284 N 
ATOM      7  H6  UNL     1      30.791  67.775  70.982  1.00  0.00     0.188 HD
ENDROOT
BRANCH   3   8
HETATM    8  C4  UNL     1      28.964  68.251  75.119  1.00  0.00     0.026 A 
HETATM    9  C5  UNL     1      28.907  69.444  75.807  1.00  0.00     0.122 A 
HETATM   10  N3  UNL     1      27.981  69.325  76.779  1.00  0.00    -0.311 N 
HETATM   11  N4  UNL     1      27.456  68.118  76.735  1.00  0.00    -0.311 N 
ATOM     12  H3  UNL     1      27.727  70.056  77.444  1.00  0.00     0.186 HD
HETATM   13  C6  UNL     1      28.044  67.435  75.722  1.00  0.00     0.122 A 
ATOM     14  H4  UNL     1      26.731  67.758  77.357  1.00  0.00     0.186 HD
ENDBRANCH   3   8
BRANCH   1  15
HETATM   15  N2  UNL     1      32.796  66.474  72.541  1.00  0.00    -0.291 N 
ATOM     16  H2  UNL     1      32.856  65.733  71.842  1.00  0.00     0.188 HD
BRANCH  15  17
HETATM   17  N1  UNL     1      33.913  66.879  73.241  1.00  0.00    -0.344 N 
ATOM     18  H12 UNL     1      33.975  67.835  73.592  1.00  0.00     0.176 HD
ATOM     19  H11 UNL     1      34.659  66.200  73.391  1.00  0.00     0.176 HD
ENDBRANCH  15  17
ENDBRANCH   1  15
TORSDOF 3
ENDMDL
MODEL 5
REMARK VINA RESULT: -1.645854423      2.663      4.246
REMARK  3 active torsions:
REMARK  status: ('A' for Active; 'I' for Inactive)
REMARK    1  A    between atoms: N1_1  and  N2_4 
REMARK    2  A    between atoms: N2_4  and  C1_6 
REMARK    3  A    between atoms: C3_8  and  C4_9 
ROOT
HETATM    1  C1  UNL     1      27.653  65.550  74.931  1.00  0.00     0.136 A 
HETATM    2  C2  UNL     1      28.517  66.128  74.038  1.00  0.00     0.083 A 
HETATM    3  C3  UNL     1      28.581  67.494  74.302  1.00  0.00     0.065 A 
HETATM    4  N5  UNL     1      27.766  67.698  75.331  1.00  0.00    -0.298 N 
ATOM      5  H5  UNL     1      27.590  68.603  75.767  1.00  0.00     0.187 HD
HETATM    6  N6  UNL     1      27.209  66.542  75.710  1.00  0.00    -0.284 N 
ATOM      7  H6  UNL     1      26.546  66.433  76.478  1.00  0.00     0.188 HD
ENDROOT
BRANCH   3   8
HETATM    8  C4  UNL     1      29.395  68.449  73.563  1.00  0.00     0.026 A 
HETATM    9  C5  UNL     1      30.648  68.914  73.898  1.00  0.00     0.122 A 
HETATM   10  N3  UNL     1      31.044  69.782  72.946  1.00  0.00    -0.311 N 
HETATM   11  N4  UNL     1      30.101  69.884  72.032  1.00  0.00    -0.311 N 
ATOM     12  H3  UNL     1      31.934  70.281  72.935  1.00  0.00     0.186 HD
HETATM   13  C6  UNL     1      29.074  69.074  72.387  1.00  0.00     0.122 A 
ATOM     14  H4  UNL     1      30.137  70.473  71.199  1.00  0.00     0.186 HD
ENDBRANCH   3   8
BRANCH   1  15
HETATM   15  N2  UNL     1      27.349  64.162  74.950  1.00  0.00    -0.291 N 
ATOM     16  H2  UNL     1      28.039  63.471  74.653  1.00  0.00     0.188 HD
BRANCH  15  17
HETATM   17  N1  UNL     1      26.098  63.775  75.379  1.00  0.00    -0.344 N 
ATOM     18  H12 UNL     1      25.383  64.478  75.567  1.00  0.00     0.176 HD
ATOM     19  H11 UNL     1      25.917  62.778  75.499  1.00  0.00     0.176 HD
ENDBRANCH  15  17
ENDBRANCH   1  15
TORSDOF 3
ENDMDL
