MODEL 1
REMARK VINA RESULT: -8.224186139      0.000      0.000
REMARK  4 active torsions:
REMARK  status: ('A' for Active; 'I' for Inactive)
REMARK    1  A    between atoms: C2_2  and  C5_5 
REMARK    2  A    between atoms: C6_9  and  C7_10 
REMARK    3  A    between atoms: C12_16  and  O3_17 
REMARK    4  A    between atoms: C13_19  and  O4_21 
ROOT
HETATM    1  C7  UNL     1      23.480   4.256  19.945  1.00  0.00     0.203 C 
HETATM    2  O2  UNL     1      22.872   3.191  19.315  1.00  0.00    -0.369 OA
HETATM    3  C8  UNL     1      23.430   2.036  19.871  1.00  0.00     0.159 C 
HETATM    4  C9  UNL     1      24.670   2.468  20.651  1.00  0.00     0.043 C 
HETATM    5  C10 UNL     1      24.933   3.776  19.890  1.00  0.00     0.028 C 
HETATM    6  C11 UNL     1      25.383   3.403  18.513  1.00  0.00     0.042 C 
HETATM    7  C12 UNL     1      24.608   2.379  17.796  1.00  0.00     0.155 C 
HETATM    8  C13 UNL     1      24.014   1.279  18.667  1.00  0.00     0.106 C 
HETATM    9  C14 UNL     1      25.059   0.293  19.052  1.00  0.00     0.051 C 
ENDROOT
BRANCH   1  10
HETATM   10  C6  UNL     1      23.319   5.560  19.346  1.00  0.00     0.177 A 
HETATM   11  O1  UNL     1      22.770   6.664  19.785  1.00  0.00    -0.220 OA
HETATM   12  N1  UNL     1      22.855   7.606  18.904  1.00  0.00    -0.246 N 
HETATM   13  C5  UNL     1      23.476   7.179  17.818  1.00  0.00     0.111 A 
ATOM     14  H1  UNL     1      22.493   8.551  19.029  1.00  0.00     0.196 HD
HETATM   15  N2  UNL     1      23.770   5.871  18.103  1.00  0.00    -0.324 N 
ATOM     16  H2  UNL     1      24.254   5.227  17.475  1.00  0.00     0.169 HD
BRANCH  13  17
HETATM   17  C2  UNL     1      23.798   7.909  16.584  1.00  0.00     0.009 C 
HETATM   18  C1  UNL     1      24.130   6.967  15.448  1.00  0.00     0.023 C 
HETATM   19  C3  UNL     1      22.685   8.861  16.191  1.00  0.00     0.023 C 
HETATM   20  C4  UNL     1      25.049   8.738  16.816  1.00  0.00     0.023 C 
ENDBRANCH  13  17
ENDBRANCH   1  10
BRANCH   8  21
HETATM   21  O4  UNL     1      23.003   0.676  17.932  1.00  0.00    -0.385 OA
ATOM     22  H4  UNL     1      23.359   0.247  17.163  1.00  0.00     0.210 HD
ENDBRANCH   8  21
BRANCH   7  23
HETATM   23  O3  UNL     1      23.581   2.870  16.978  1.00  0.00    -0.392 OA
ATOM     24  H3  UNL     1      22.723   2.493  17.135  1.00  0.00     0.210 HD
ENDBRANCH   7  23
TORSDOF 4
ENDMDL
MODEL 2
REMARK VINA RESULT: -8.063285192      1.579      1.965
REMARK  4 active torsions:
REMARK  status: ('A' for Active; 'I' for Inactive)
REMARK    1  A    between atoms: C2_2  and  C5_5 
REMARK    2  A    between atoms: C6_9  and  C7_10 
REMARK    3  A    between atoms: C12_16  and  O3_17 
REMARK    4  A    between atoms: C13_19  and  O4_21 
ROOT
HETATM    1  C7  UNL     1      24.023   3.486  18.776  1.00  0.00     0.203 C 
HETATM    2  O2  UNL     1      23.358   2.359  18.339  1.00  0.00    -0.369 OA
HETATM    3  C8  UNL     1      23.487   1.409  19.357  1.00  0.00     0.159 C 
HETATM    4  C9  UNL     1      24.565   1.918  20.312  1.00  0.00     0.043 C 
HETATM    5  C10 UNL     1      25.296   2.828  19.313  1.00  0.00     0.028 C 
HETATM    6  C11 UNL     1      25.969   1.939  18.317  1.00  0.00     0.042 C 
HETATM    7  C12 UNL     1      25.179   0.841  17.738  1.00  0.00     0.155 C 
HETATM    8  C13 UNL     1      24.156   0.207  18.673  1.00  0.00     0.106 C 
HETATM    9  C14 UNL     1      24.824  -0.711  19.634  1.00  0.00     0.051 C 
ENDROOT
BRANCH   1  10
HETATM   10  C6  UNL     1      24.314   4.506  17.796  1.00  0.00     0.177 A 
HETATM   11  O1  UNL     1      25.067   4.501  16.725  1.00  0.00    -0.220 OA
HETATM   12  N1  UNL     1      25.031   5.648  16.130  1.00  0.00    -0.246 N 
HETATM   13  C5  UNL     1      24.241   6.489  16.776  1.00  0.00     0.111 A 
ATOM     14  H1  UNL     1      25.543   5.874  15.277  1.00  0.00     0.196 HD
HETATM   15  N2  UNL     1      23.785   5.756  17.841  1.00  0.00    -0.324 N 
ATOM     16  H2  UNL     1      23.146   6.099  18.559  1.00  0.00     0.169 HD
BRANCH  13  17
HETATM   17  C2  UNL     1      23.904   7.881  16.451  1.00  0.00     0.009 C 
HETATM   18  C1  UNL     1      25.007   8.833  16.858  1.00  0.00     0.023 C 
HETATM   19  C3  UNL     1      23.559   8.047  14.984  1.00  0.00     0.023 C 
HETATM   20  C4  UNL     1      22.684   8.292  17.257  1.00  0.00     0.023 C 
ENDBRANCH  13  17
ENDBRANCH   1  10
BRANCH   8  21
HETATM   21  O4  UNL     1      23.244  -0.475  17.880  1.00  0.00    -0.385 OA
ATOM     22  H4  UNL     1      23.421  -1.408  17.894  1.00  0.00     0.210 HD
ENDBRANCH   8  21
BRANCH   7  23
HETATM   23  O3  UNL     1      24.521   1.146  16.538  1.00  0.00    -0.392 OA
ATOM     24  H3  UNL     1      24.586   0.483  15.861  1.00  0.00     0.210 HD
ENDBRANCH   7  23
TORSDOF 4
ENDMDL
MODEL 3
REMARK VINA RESULT: -8.051368682      1.385      1.702
REMARK  4 active torsions:
REMARK  status: ('A' for Active; 'I' for Inactive)
REMARK    1  A    between atoms: C2_2  and  C5_5 
REMARK    2  A    between atoms: C6_9  and  C7_10 
REMARK    3  A    between atoms: C12_16  and  O3_17 
REMARK    4  A    between atoms: C13_19  and  O4_21 
ROOT
HETATM    1  C7  UNL     1      22.259   5.359  20.646  1.00  0.00     0.203 C 
HETATM    2  O2  UNL     1      22.013   4.145  20.038  1.00  0.00    -0.369 OA
HETATM    3  C8  UNL     1      22.194   3.169  21.022  1.00  0.00     0.159 C 
HETATM    4  C9  UNL     1      22.898   3.844  22.198  1.00  0.00     0.043 C 
HETATM    5  C10 UNL     1      23.537   4.996  21.409  1.00  0.00     0.028 C 
HETATM    6  C11 UNL     1      24.598   4.401  20.539  1.00  0.00     0.042 C 
HETATM    7  C12 UNL     1      24.251   3.198  19.767  1.00  0.00     0.155 C 
HETATM    8  C13 UNL     1      23.276   2.243  20.444  1.00  0.00     0.106 C 
HETATM    9  C14 UNL     1      23.969   1.438  21.486  1.00  0.00     0.051 C 
ENDROOT
BRANCH   1  10
HETATM   10  C6  UNL     1      22.449   6.504  19.788  1.00  0.00     0.177 A 
HETATM   11  O1  UNL     1      22.195   7.777  19.957  1.00  0.00    -0.220 OA
HETATM   12  N1  UNL     1      22.535   8.459  18.913  1.00  0.00    -0.246 N 
HETATM   13  C5  UNL     1      23.043   7.671  17.981  1.00  0.00     0.111 A 
ATOM     14  H1  UNL     1      22.426   9.469  18.821  1.00  0.00     0.196 HD
HETATM   15  N2  UNL     1      22.986   6.422  18.543  1.00  0.00    -0.324 N 
ATOM     16  H2  UNL     1      23.299   5.561  18.093  1.00  0.00     0.169 HD
BRANCH  13  17
HETATM   17  C2  UNL     1      23.562   8.020  16.652  1.00  0.00     0.009 C 
HETATM   18  C1  UNL     1      23.789   6.791  15.801  1.00  0.00     0.023 C 
HETATM   19  C3  UNL     1      22.662   9.012  15.942  1.00  0.00     0.023 C 
HETATM   20  C4  UNL     1      24.925   8.672  16.813  1.00  0.00     0.023 C 
ENDBRANCH  13  17
ENDBRANCH   1  10
BRANCH   8  21
HETATM   21  O4  UNL     1      22.745   1.429  19.454  1.00  0.00    -0.385 OA
ATOM     22  H4  UNL     1      23.243   1.513  18.649  1.00  0.00     0.210 HD
ENDBRANCH   8  21
BRANCH   7  23
HETATM   23  O3  UNL     1      23.775   3.436  18.470  1.00  0.00    -0.392 OA
ATOM     24  H3  UNL     1      23.981   2.762  17.833  1.00  0.00     0.210 HD
ENDBRANCH   7  23
TORSDOF 4
ENDMDL
MODEL 4
REMARK VINA RESULT: -7.827354973      1.776      2.657
REMARK  4 active torsions:
REMARK  status: ('A' for Active; 'I' for Inactive)
REMARK    1  A    between atoms: C2_2  and  C5_5 
REMARK    2  A    between atoms: C6_9  and  C7_10 
REMARK    3  A    between atoms: C12_16  and  O3_17 
REMARK    4  A    between atoms: C13_19  and  O4_21 
ROOT
HETATM    1  C7  UNL     1      25.447   3.838  17.860  1.00  0.00     0.203 C 
HETATM    2  O2  UNL     1      25.193   3.942  19.212  1.00  0.00    -0.369 OA
HETATM    3  C8  UNL     1      25.425   2.674  19.752  1.00  0.00     0.159 C 
HETATM    4  C9  UNL     1      25.517   1.697  18.582  1.00  0.00     0.043 C 
HETATM    5  C10 UNL     1      24.710   2.527  17.572  1.00  0.00     0.028 C 
HETATM    6  C11 UNL     1      23.289   2.531  18.037  1.00  0.00     0.042 C 
HETATM    7  C12 UNL     1      23.038   2.813  19.458  1.00  0.00     0.155 C 
HETATM    8  C13 UNL     1      24.096   2.299  20.426  1.00  0.00     0.106 C 
HETATM    9  C14 UNL     1      23.945   0.833  20.637  1.00  0.00     0.051 C 
ENDROOT
BRANCH   1  10
HETATM   10  C6  UNL     1      24.985   4.914  17.014  1.00  0.00     0.177 A 
HETATM   11  O1  UNL     1      25.057   5.105  15.721  1.00  0.00    -0.220 OA
HETATM   12  N1  UNL     1      24.499   6.222  15.386  1.00  0.00    -0.246 N 
HETATM   13  C5  UNL     1      24.015   6.843  16.448  1.00  0.00     0.111 A 
ATOM     14  H1  UNL     1      24.440   6.576  14.432  1.00  0.00     0.196 HD
HETATM   15  N2  UNL     1      24.329   6.005  17.488  1.00  0.00    -0.324 N 
ATOM     16  H2  UNL     1      24.103   6.176  18.468  1.00  0.00     0.169 HD
BRANCH  13  17
HETATM   17  C2  UNL     1      23.300   8.123  16.530  1.00  0.00     0.009 C 
HETATM   18  C1  UNL     1      22.793   8.566  15.175  1.00  0.00     0.023 C 
HETATM   19  C3  UNL     1      22.171   8.070  17.540  1.00  0.00     0.023 C 
HETATM   20  C4  UNL     1      24.270   9.200  16.983  1.00  0.00     0.023 C 
ENDBRANCH  13  17
ENDBRANCH   1  10
BRANCH   8  21
HETATM   21  O4  UNL     1      23.937   2.995  21.616  1.00  0.00    -0.385 OA
ATOM     22  H4  UNL     1      23.102   3.448  21.629  1.00  0.00     0.210 HD
ENDBRANCH   8  21
BRANCH   7  23
HETATM   23  O3  UNL     1      22.804   4.161  19.768  1.00  0.00    -0.392 OA
ATOM     24  H3  UNL     1      22.292   4.313  20.554  1.00  0.00     0.210 HD
ENDBRANCH   7  23
TORSDOF 4
ENDMDL
MODEL 5
REMARK VINA RESULT: -7.774394199      1.537      2.371
REMARK  4 active torsions:
REMARK  status: ('A' for Active; 'I' for Inactive)
REMARK    1  A    between atoms: C2_2  and  C5_5 
REMARK    2  A    between atoms: C6_9  and  C7_10 
REMARK    3  A    between atoms: C12_16  and  O3_17 
REMARK    4  A    between atoms: C13_19  and  O4_21 
ROOT
HETATM    1  C7  UNL     1      24.445   3.539  18.724  1.00  0.00     0.203 C 
HETATM    2  O2  UNL     1      24.954   3.162  19.950  1.00  0.00    -0.369 OA
HETATM    3  C8  UNL     1      24.964   1.765  19.958  1.00  0.00     0.159 C 
HETATM    4  C9  UNL     1      24.111   1.303  18.778  1.00  0.00     0.043 C 
HETATM    5  C10 UNL     1      23.258   2.574  18.645  1.00  0.00     0.028 C 
HETATM    6  C11 UNL     1      22.364   2.634  19.843  1.00  0.00     0.042 C 
HETATM    7  C12 UNL     1      22.972   2.394  21.160  1.00  0.00     0.155 C 
HETATM    8  C13 UNL     1      24.114   1.385  21.181  1.00  0.00     0.106 C 
HETATM    9  C14 UNL     1      23.587  -0.005  21.113  1.00  0.00     0.051 C 
ENDROOT
BRANCH   1  10
HETATM   10  C6  UNL     1      24.033   4.915  18.572  1.00  0.00     0.177 A 
HETATM   11  O1  UNL     1      23.443   5.748  19.390  1.00  0.00    -0.220 OA
HETATM   12  N1  UNL     1      23.267   6.900  18.830  1.00  0.00    -0.246 N 
HETATM   13  C5  UNL     1      23.738   6.899  17.595  1.00  0.00     0.111 A 
ATOM     14  H1  UNL     1      22.824   7.701  19.281  1.00  0.00     0.196 HD
HETATM   15  N2  UNL     1      24.226   5.629  17.433  1.00  0.00    -0.324 N 
ATOM     16  H2  UNL     1      24.667   5.273  16.584  1.00  0.00     0.169 HD
BRANCH  13  17
HETATM   17  C2  UNL     1      23.757   7.987  16.609  1.00  0.00     0.009 C 
HETATM   18  C1  UNL     1      23.865   7.458  15.196  1.00  0.00     0.023 C 
HETATM   19  C3  UNL     1      22.554   8.898  16.755  1.00  0.00     0.023 C 
HETATM   20  C4  UNL     1      25.000   8.831  16.832  1.00  0.00     0.023 C 
ENDBRANCH  13  17
ENDBRANCH   1  10
BRANCH   8  21
HETATM   21  O4  UNL     1      24.825   1.594  22.354  1.00  0.00    -0.385 OA
ATOM     22  H4  UNL     1      25.506   2.244  22.220  1.00  0.00     0.210 HD
ENDBRANCH   8  21
BRANCH   7  23
HETATM   23  O3  UNL     1      23.412   3.542  21.834  1.00  0.00    -0.392 OA
ATOM     24  H3  UNL     1      24.084   4.042  21.385  1.00  0.00     0.210 HD
ENDBRANCH   7  23
TORSDOF 4
ENDMDL
