MODEL 1
REMARK VINA RESULT: -6.849909501      0.000      0.000
REMARK  3 active torsions:
REMARK  status: ('A' for Active; 'I' for Inactive)
REMARK    1  A    between atoms: C5_7  and  C6_8 
REMARK    2  A    between atoms: N4_15  and  N5_16 
REMARK    3  A    between atoms: C8_19  and  C9_20 
ROOT
HETATM    1  C1  UNL     1      25.107   8.057  14.926  1.00  0.00     0.089 C 
HETATM    2  C2  UNL     1      25.044   7.159  16.136  1.00  0.00     0.077 A 
HETATM    3  N1  UNL     1      24.587   7.613  17.312  1.00  0.00    -0.349 N 
ATOM      4  H1  UNL     1      24.282   8.585  17.368  1.00  0.00     0.167 HD
HETATM    5  C3  UNL     1      24.508   6.861  18.415  1.00  0.00     0.022 A 
HETATM    6  C4  UNL     1      24.008   7.350  19.712  1.00  0.00     0.069 C 
HETATM    7  C5  UNL     1      24.936   5.521  18.309  1.00  0.00     0.057 A 
HETATM    8  C8  UNL     1      25.406   5.022  17.141  1.00  0.00     0.034 A 
HETATM    9  N6  UNL     1      25.442   5.886  16.070  1.00  0.00    -0.348 N 
ATOM     10  H6  UNL     1      25.793   5.535  15.178  1.00  0.00     0.167 HD
ENDROOT
BRANCH   7  11
HETATM   11  C6  UNL     1      24.817   4.730  19.507  1.00  0.00     0.158 A 
HETATM   12  N2  UNL     1      25.599   4.551  20.565  1.00  0.00    -0.281 N 
HETATM   13  N3  UNL     1      25.023   3.753  21.422  1.00  0.00    -0.273 N 
ATOM     14  H2  UNL     1      26.518   4.976  20.690  1.00  0.00     0.188 HD
HETATM   15  C7  UNL     1      23.833   3.386  20.938  1.00  0.00     0.213 A 
ATOM     16  H3  UNL     1      25.417   3.458  22.316  1.00  0.00     0.189 HD
HETATM   17  S1  UNL     1      22.759   2.387  21.679  1.00  0.00    -0.037 SA
HETATM   18  N4  UNL     1      23.699   3.989  19.751  1.00  0.00    -0.217 N 
BRANCH  18  19
HETATM   19  N5  UNL     1      22.544   3.840  18.965  1.00  0.00    -0.335 N 
ATOM     20  H52 UNL     1      22.555   3.983  17.955  1.00  0.00     0.177 HD
ATOM     21  H51 UNL     1      21.602   3.571  19.248  1.00  0.00     0.177 HD
ENDBRANCH  18  19
ENDBRANCH   7  11
BRANCH   8  22
HETATM   22  C9  UNL     1      25.908   3.646  16.999  1.00  0.00    -0.008 C 
HETATM   23  C10 UNL     1      26.778   3.634  15.705  1.00  0.00     0.021 C 
HETATM   24  C11 UNL     1      24.903   2.579  16.806  1.00  0.00     0.021 C 
HETATM   25  C12 UNL     1      26.916   3.256  18.081  1.00  0.00     0.021 C 
ENDBRANCH   8  22
TORSDOF 3
ENDMDL
MODEL 2
REMARK VINA RESULT: -6.755953073      1.957      3.481
REMARK  3 active torsions:
REMARK  status: ('A' for Active; 'I' for Inactive)
REMARK    1  A    between atoms: C5_7  and  C6_8 
REMARK    2  A    between atoms: N4_15  and  N5_16 
REMARK    3  A    between atoms: C8_19  and  C9_20 
ROOT
HETATM    1  C1  UNL     1      25.536   7.826  14.664  1.00  0.00     0.089 C 
HETATM    2  C2  UNL     1      25.618   6.593  15.528  1.00  0.00     0.077 A 
HETATM    3  N1  UNL     1      26.106   5.441  15.046  1.00  0.00    -0.349 N 
ATOM      4  H1  UNL     1      26.422   5.419  14.076  1.00  0.00     0.167 HD
HETATM    5  C3  UNL     1      26.202   4.318  15.768  1.00  0.00     0.022 A 
HETATM    6  C4  UNL     1      26.737   3.048  15.247  1.00  0.00     0.069 C 
HETATM    7  C5  UNL     1      25.759   4.377  17.105  1.00  0.00     0.057 A 
HETATM    8  C8  UNL     1      25.257   5.520  17.632  1.00  0.00     0.034 A 
HETATM    9  N6  UNL     1      25.205   6.614  16.798  1.00  0.00    -0.348 N 
ATOM     10  H6  UNL     1      24.831   7.487  17.170  1.00  0.00     0.167 HD
ENDROOT
BRANCH   7  11
HETATM   11  C6  UNL     1      25.897   3.159  17.863  1.00  0.00     0.158 A 
HETATM   12  N2  UNL     1      26.774   2.740  18.767  1.00  0.00    -0.281 N 
HETATM   13  N3  UNL     1      26.443   1.556  19.202  1.00  0.00    -0.273 N 
ATOM     14  H2  UNL     1      27.591   3.267  19.076  1.00  0.00     0.188 HD
HETATM   15  C7  UNL     1      25.323   1.167  18.585  1.00  0.00     0.213 A 
ATOM     16  H3  UNL     1      26.954   1.015  19.900  1.00  0.00     0.189 HD
HETATM   17  S1  UNL     1      24.539  -0.259  18.821  1.00  0.00    -0.037 SA
HETATM   18  N4  UNL     1      24.980   2.157  17.754  1.00  0.00    -0.217 N 
BRANCH  18  19
HETATM   19  N5  UNL     1      23.827   2.092  16.953  1.00  0.00    -0.335 N 
ATOM     20  H52 UNL     1      22.936   2.491  17.253  1.00  0.00     0.177 HD
ATOM     21  H51 UNL     1      23.709   1.691  16.024  1.00  0.00     0.177 HD
ENDBRANCH  18  19
ENDBRANCH   7  11
BRANCH   8  22
HETATM   22  C9  UNL     1      24.738   5.611  19.006  1.00  0.00    -0.008 C 
HETATM   23  C10 UNL     1      24.269   7.086  19.195  1.00  0.00     0.021 C 
HETATM   24  C11 UNL     1      25.695   5.360  20.105  1.00  0.00     0.021 C 
HETATM   25  C12 UNL     1      23.446   4.821  19.217  1.00  0.00     0.021 C 
ENDBRANCH   8  22
TORSDOF 3
ENDMDL
MODEL 3
REMARK VINA RESULT: -6.665266258      2.315      3.691
REMARK  3 active torsions:
REMARK  status: ('A' for Active; 'I' for Inactive)
REMARK    1  A    between atoms: C5_7  and  C6_8 
REMARK    2  A    between atoms: N4_15  and  N5_16 
REMARK    3  A    between atoms: C8_19  and  C9_20 
ROOT
HETATM    1  C1  UNL     1      24.414   8.123  16.623  1.00  0.00     0.089 C 
HETATM    2  C2  UNL     1      24.710   6.708  17.051  1.00  0.00     0.077 A 
HETATM    3  N1  UNL     1      25.468   5.901  16.295  1.00  0.00    -0.349 N 
ATOM      4  H1  UNL     1      25.839   6.268  15.419  1.00  0.00     0.167 HD
HETATM    5  C3  UNL     1      25.763   4.639  16.628  1.00  0.00     0.022 A 
HETATM    6  C4  UNL     1      26.594   3.743  15.804  1.00  0.00     0.069 C 
HETATM    7  C5  UNL     1      25.236   4.157  17.844  1.00  0.00     0.057 A 
HETATM    8  C8  UNL     1      24.465   4.939  18.637  1.00  0.00     0.034 A 
HETATM    9  N6  UNL     1      24.226   6.220  18.196  1.00  0.00    -0.348 N 
ATOM     10  H6  UNL     1      23.648   6.830  18.775  1.00  0.00     0.167 HD
ENDROOT
BRANCH   7  11
HETATM   11  C6  UNL     1      25.591   2.802  18.185  1.00  0.00     0.158 A 
HETATM   12  N2  UNL     1      26.490   2.272  19.006  1.00  0.00    -0.281 N 
HETATM   13  N3  UNL     1      26.395   0.971  18.999  1.00  0.00    -0.273 N 
ATOM     14  H2  UNL     1      27.158   2.806  19.562  1.00  0.00     0.188 HD
HETATM   15  C7  UNL     1      25.418   0.614  18.161  1.00  0.00     0.213 A 
ATOM     16  H3  UNL     1      26.973   0.331  19.545  1.00  0.00     0.189 HD
HETATM   17  S1  UNL     1      24.944  -0.926  17.836  1.00  0.00    -0.037 SA
HETATM   18  N4  UNL     1      24.915   1.745  17.654  1.00  0.00    -0.217 N 
BRANCH  18  19
HETATM   19  N5  UNL     1      23.845   1.742  16.743  1.00  0.00    -0.335 N 
ATOM     20  H52 UNL     1      22.905   1.453  17.013  1.00  0.00     0.177 HD
ATOM     21  H51 UNL     1      23.832   2.021  15.762  1.00  0.00     0.177 HD
ENDBRANCH  18  19
ENDBRANCH   7  11
BRANCH   8  22
HETATM   22  C9  UNL     1      23.855   4.460  19.888  1.00  0.00    -0.008 C 
HETATM   23  C10 UNL     1      23.217   5.711  20.564  1.00  0.00     0.021 C 
HETATM   24  C11 UNL     1      24.765   3.886  20.904  1.00  0.00     0.021 C 
HETATM   25  C12 UNL     1      22.647   3.551  19.662  1.00  0.00     0.021 C 
ENDBRANCH   8  22
TORSDOF 3
ENDMDL
MODEL 4
REMARK VINA RESULT: -6.646978026      2.238      3.632
REMARK  3 active torsions:
REMARK  status: ('A' for Active; 'I' for Inactive)
REMARK    1  A    between atoms: C5_7  and  C6_8 
REMARK    2  A    between atoms: N4_15  and  N5_16 
REMARK    3  A    between atoms: C8_19  and  C9_20 
ROOT
HETATM    1  C1  UNL     1      23.932   9.053  15.809  1.00  0.00     0.089 C 
HETATM    2  C2  UNL     1      24.410   7.683  16.221  1.00  0.00     0.077 A 
HETATM    3  N1  UNL     1      25.004   6.864  15.341  1.00  0.00    -0.349 N 
ATOM      4  H1  UNL     1      25.125   7.191  14.383  1.00  0.00     0.167 HD
HETATM    5  C3  UNL     1      25.448   5.641  15.653  1.00  0.00     0.022 A 
HETATM    6  C4  UNL     1      26.102   4.733  14.693  1.00  0.00     0.069 C 
HETATM    7  C5  UNL     1      25.268   5.214  16.984  1.00  0.00     0.057 A 
HETATM    8  C8  UNL     1      24.671   6.009  17.905  1.00  0.00     0.034 A 
HETATM    9  N6  UNL     1      24.254   7.248  17.474  1.00  0.00    -0.348 N 
ATOM     10  H6  UNL     1      23.801   7.866  18.147  1.00  0.00     0.167 HD
ENDROOT
BRANCH   7  11
HETATM   11  C6  UNL     1      25.776   3.902  17.295  1.00  0.00     0.158 A 
HETATM   12  N2  UNL     1      26.891   3.466  17.869  1.00  0.00    -0.281 N 
HETATM   13  N3  UNL     1      26.872   2.165  17.963  1.00  0.00    -0.273 N 
ATOM     14  H2  UNL     1      27.653   4.063  18.191  1.00  0.00     0.188 HD
HETATM   15  C7  UNL     1      25.727   1.712  17.445  1.00  0.00     0.213 A 
ATOM     16  H3  UNL     1      27.610   1.588  18.367  1.00  0.00     0.189 HD
HETATM   17  S1  UNL     1      25.270   0.136  17.350  1.00  0.00    -0.037 SA
HETATM   18  N4  UNL     1      25.043   2.784  17.029  1.00  0.00    -0.217 N 
BRANCH  18  19
HETATM   19  N5  UNL     1      23.770   2.676  16.445  1.00  0.00    -0.335 N 
ATOM     20  H52 UNL     1      23.331   3.456  15.955  1.00  0.00     0.177 HD
ATOM     21  H51 UNL     1      23.145   1.871  16.405  1.00  0.00     0.177 HD
ENDBRANCH  18  19
ENDBRANCH   7  11
BRANCH   8  22
HETATM   22  C9  UNL     1      24.419   5.584  19.291  1.00  0.00    -0.008 C 
HETATM   23  C10 UNL     1      23.846   6.832  20.029  1.00  0.00     0.021 C 
HETATM   24  C11 UNL     1      25.590   5.160  20.089  1.00  0.00     0.021 C 
HETATM   25  C12 UNL     1      23.279   4.572  19.415  1.00  0.00     0.021 C 
ENDBRANCH   8  22
TORSDOF 3
ENDMDL
MODEL 5
REMARK VINA RESULT: -6.620678704      1.956      2.254
REMARK  3 active torsions:
REMARK  status: ('A' for Active; 'I' for Inactive)
REMARK    1  A    between atoms: C5_7  and  C6_8 
REMARK    2  A    between atoms: N4_15  and  N5_16 
REMARK    3  A    between atoms: C8_19  and  C9_20 
ROOT
HETATM    1  C1  UNL     1      24.272   8.483  17.458  1.00  0.00     0.089 C 
HETATM    2  C2  UNL     1      24.618   7.048  17.761  1.00  0.00     0.077 A 
HETATM    3  N1  UNL     1      24.546   6.568  19.011  1.00  0.00    -0.349 N 
ATOM      4  H1  UNL     1      24.251   7.200  19.755  1.00  0.00     0.167 HD
HETATM    5  C3  UNL     1      24.840   5.303  19.336  1.00  0.00     0.022 A 
HETATM    6  C4  UNL     1      24.765   4.766  20.706  1.00  0.00     0.069 C 
HETATM    7  C5  UNL     1      25.246   4.451  18.289  1.00  0.00     0.057 A 
HETATM    8  C8  UNL     1      25.334   4.895  17.012  1.00  0.00     0.034 A 
HETATM    9  N6  UNL     1      25.007   6.214  16.793  1.00  0.00    -0.348 N 
ATOM     10  H6  UNL     1      25.065   6.574  15.840  1.00  0.00     0.167 HD
ENDROOT
BRANCH   7  11
HETATM   11  C6  UNL     1      25.534   3.090  18.666  1.00  0.00     0.158 A 
HETATM   12  N2  UNL     1      26.654   2.440  18.957  1.00  0.00    -0.281 N 
HETATM   13  N3  UNL     1      26.388   1.205  19.284  1.00  0.00    -0.273 N 
ATOM     14  H2  UNL     1      27.589   2.846  18.928  1.00  0.00     0.188 HD
HETATM   15  C7  UNL     1      25.066   1.016  19.215  1.00  0.00     0.213 A 
ATOM     16  H3  UNL     1      27.075   0.500  19.550  1.00  0.00     0.189 HD
HETATM   17  S1  UNL     1      24.276  -0.388  19.543  1.00  0.00    -0.037 SA
HETATM   18  N4  UNL     1      24.531   2.181  18.832  1.00  0.00    -0.217 N 
BRANCH  18  19
HETATM   19  N5  UNL     1      23.145   2.350  18.677  1.00  0.00    -0.335 N 
ATOM     20  H52 UNL     1      22.581   2.851  19.364  1.00  0.00     0.177 HD
ATOM     21  H51 UNL     1      22.540   2.044  17.916  1.00  0.00     0.177 HD
ENDBRANCH  18  19
ENDBRANCH   7  11
BRANCH   8  22
HETATM   22  C9  UNL     1      25.800   4.054  15.899  1.00  0.00    -0.008 C 
HETATM   23  C10 UNL     1      25.772   4.959  14.630  1.00  0.00     0.021 C 
HETATM   24  C11 UNL     1      24.977   2.873  15.557  1.00  0.00     0.021 C 
HETATM   25  C12 UNL     1      27.278   3.675  16.004  1.00  0.00     0.021 C 
ENDBRANCH   8  22
TORSDOF 3
ENDMDL
