MODEL 1
REMARK VINA RESULT: -6.004158680      0.000      0.000
REMARK  4 active torsions:
REMARK  status: ('A' for Active; 'I' for Inactive)
REMARK    1  A    between atoms: C2_2  and  C3_3 
REMARK    2  A    between atoms: C7_9  and  O3_10 
REMARK    3  A    between atoms: N1_15  and  O4_17 
REMARK    4  A    between atoms: C11_19  and  O5_21 
ROOT
HETATM    1  C1  UNL     1      23.543   5.630  18.059  1.00  0.00     0.054 C 
HETATM    2  C2  UNL     1      24.110   4.799  19.169  1.00  0.00     0.005 C 
HETATM    3  C4  UNL     1      24.413   3.537  19.092  1.00  0.00     0.067 C 
HETATM    4  O2  UNL     1      24.945   2.664  20.070  1.00  0.00    -0.340 OA
HETATM    5  C5  UNL     1      25.630   2.040  19.025  1.00  0.00     0.102 C 
HETATM    6  C6  UNL     1      26.901   2.784  18.765  1.00  0.00     0.050 C 
HETATM    7  C7  UNL     1      25.830   0.576  19.087  1.00  0.00     0.154 C 
HETATM    8  C8  UNL     1      24.761  -0.279  18.497  1.00  0.00     0.041 C 
HETATM    9  C9  UNL     1      24.688  -0.205  16.995  1.00  0.00     0.060 C 
HETATM   10  C10 UNL     1      25.144   1.066  16.433  1.00  0.00     0.044 C 
HETATM   11  N1  UNL     1      26.063   1.011  15.569  1.00  0.00    -0.274 N 
ATOM     12  H1  UNL     1      26.420   1.867  15.144  1.00  0.00     0.193 HD
HETATM   13  C11 UNL     1      24.647   2.430  16.759  1.00  0.00     0.107 C 
HETATM   14  C12 UNL     1      25.404   3.517  16.120  1.00  0.00     0.053 C 
HETATM   15  C13 UNL     1      24.420   2.432  18.203  1.00  0.00     0.120 C 
ENDROOT
BRANCH   2  16
HETATM   16  C3  UNL     1      24.332   5.508  20.453  1.00  0.00     0.267 C 
HETATM   17  O1  UNL     1      23.520   5.414  21.386  1.00  0.00    -0.302 OA
ENDBRANCH   2  16
BRANCH  13  18
HETATM   18  O5  UNL     1      23.351   2.441  16.149  1.00  0.00    -0.383 OA
ATOM     19  H5  UNL     1      23.202   3.367  16.000  1.00  0.00     0.211 HD
ENDBRANCH  13  18
BRANCH   7  20
HETATM   20  O3  UNL     1      26.090   0.120  20.400  1.00  0.00    -0.393 OA
ATOM     21  H3  UNL     1      25.611  -0.673  20.611  1.00  0.00     0.210 HD
ENDBRANCH   7  20
BRANCH  11  22
HETATM   22  O4  UNL     1      26.578  -0.207  15.206  1.00  0.00    -0.290 OA
ATOM     23  H4  UNL     1      27.266  -0.249  14.553  1.00  0.00     0.244 HD
ENDBRANCH  11  22
TORSDOF 4
ENDMDL
MODEL 2
REMARK VINA RESULT: -5.898883761      2.329      4.489
REMARK  4 active torsions:
REMARK  status: ('A' for Active; 'I' for Inactive)
REMARK    1  A    between atoms: C2_2  and  C3_3 
REMARK    2  A    between atoms: C7_9  and  O3_10 
REMARK    3  A    between atoms: N1_15  and  O4_17 
REMARK    4  A    between atoms: C11_19  and  O5_21 
ROOT
HETATM    1  C1  UNL     1      27.205   3.434  15.702  1.00  0.00     0.054 C 
HETATM    2  C2  UNL     1      27.506   2.082  16.272  1.00  0.00     0.005 C 
HETATM    3  C4  UNL     1      26.988   1.585  17.358  1.00  0.00     0.067 C 
HETATM    4  O2  UNL     1      27.203   0.333  17.981  1.00  0.00    -0.340 OA
HETATM    5  C5  UNL     1      25.857   0.378  18.351  1.00  0.00     0.102 C 
HETATM    6  C6  UNL     1      25.025  -0.145  17.224  1.00  0.00     0.050 C 
HETATM    7  C7  UNL     1      25.467  -0.193  19.659  1.00  0.00     0.154 C 
HETATM    8  C8  UNL     1      25.510   0.720  20.837  1.00  0.00     0.041 C 
HETATM    9  C9  UNL     1      24.445   1.783  20.816  1.00  0.00     0.060 C 
HETATM   10  C10 UNL     1      24.009   2.173  19.476  1.00  0.00     0.044 C 
HETATM   11  N1  UNL     1      22.774   2.084  19.229  1.00  0.00    -0.274 N 
ATOM     12  H1  UNL     1      22.414   2.341  18.309  1.00  0.00     0.193 HD
HETATM   13  C11 UNL     1      24.856   2.668  18.357  1.00  0.00     0.107 C 
HETATM   14  C12 UNL     1      24.134   2.848  17.089  1.00  0.00     0.053 C 
HETATM   15  C13 UNL     1      26.081   1.874  18.408  1.00  0.00     0.120 C 
ENDROOT
BRANCH   2  16
HETATM   16  C3  UNL     1      28.480   1.265  15.509  1.00  0.00     0.267 C 
HETATM   17  O1  UNL     1      29.653   1.642  15.360  1.00  0.00    -0.302 OA
ENDBRANCH   2  16
BRANCH  13  18
HETATM   18  O5  UNL     1      25.212   3.984  18.798  1.00  0.00    -0.383 OA
ATOM     19  H5  UNL     1      26.133   3.887  19.010  1.00  0.00     0.211 HD
ENDBRANCH  13  18
BRANCH   7  20
HETATM   20  O3  UNL     1      26.192  -1.364  19.977  1.00  0.00    -0.393 OA
ATOM     21  H3  UNL     1      25.625  -2.093  20.204  1.00  0.00     0.210 HD
ENDBRANCH   7  20
BRANCH  11  22
HETATM   22  O4  UNL     1      21.920   1.638  20.205  1.00  0.00    -0.290 OA
ATOM     23  H4  UNL     1      21.511   0.786  20.116  1.00  0.00     0.244 HD
ENDBRANCH  11  22
TORSDOF 4
ENDMDL
MODEL 3
REMARK VINA RESULT: -5.823788103      2.948      4.749
REMARK  4 active torsions:
REMARK  status: ('A' for Active; 'I' for Inactive)
REMARK    1  A    between atoms: C2_2  and  C3_3 
REMARK    2  A    between atoms: C7_9  and  O3_10 
REMARK    3  A    between atoms: N1_15  and  O4_17 
REMARK    4  A    between atoms: C11_19  and  O5_21 
ROOT
HETATM    1  C1  UNL     1      26.488  -0.059  22.867  1.00  0.00     0.054 C 
HETATM    2  C2  UNL     1      25.265   0.751  23.171  1.00  0.00     0.005 C 
HETATM    3  C4  UNL     1      24.670   1.562  22.347  1.00  0.00     0.067 C 
HETATM    4  O2  UNL     1      23.521   2.369  22.530  1.00  0.00    -0.340 OA
HETATM    5  C5  UNL     1      23.230   2.118  21.188  1.00  0.00     0.102 C 
HETATM    6  C6  UNL     1      22.497   0.818  21.085  1.00  0.00     0.050 C 
HETATM    7  C7  UNL     1      22.598   3.192  20.391  1.00  0.00     0.154 C 
HETATM    8  C8  UNL     1      23.510   4.149  19.702  1.00  0.00     0.041 C 
HETATM    9  C9  UNL     1      24.268   3.540  18.553  1.00  0.00     0.060 C 
HETATM   10  C10 UNL     1      24.515   2.106  18.688  1.00  0.00     0.044 C 
HETATM   11  N1  UNL     1      24.113   1.366  17.747  1.00  0.00    -0.274 N 
ATOM     12  H1  UNL     1      24.257   0.356  17.789  1.00  0.00     0.193 HD
HETATM   13  C11 UNL     1      25.192   1.405  19.813  1.00  0.00     0.107 C 
HETATM   14  C12 UNL     1      25.165  -0.062  19.715  1.00  0.00     0.053 C 
HETATM   15  C13 UNL     1      24.734   2.076  21.028  1.00  0.00     0.120 C 
ENDROOT
BRANCH   2  16
HETATM   16  C3  UNL     1      24.711   0.589  24.537  1.00  0.00     0.267 C 
HETATM   17  O1  UNL     1      25.071   1.328  25.466  1.00  0.00    -0.302 OA
ENDBRANCH   2  16
BRANCH  13  18
HETATM   18  O5  UNL     1      26.562   1.787  19.635  1.00  0.00    -0.383 OA
ATOM     19  H5  UNL     1      26.811   2.069  20.507  1.00  0.00     0.211 HD
ENDBRANCH  13  18
BRANCH   7  20
HETATM   20  O3  UNL     1      21.653   3.935  21.135  1.00  0.00    -0.393 OA
ATOM     21  H3  UNL     1      21.103   3.383  21.679  1.00  0.00     0.210 HD
ENDBRANCH   7  20
BRANCH  11  22
HETATM   22  O4  UNL     1      23.480   1.928  16.668  1.00  0.00    -0.290 OA
ATOM     23  H4  UNL     1      23.505   1.486  15.828  1.00  0.00     0.244 HD
ENDBRANCH  11  22
TORSDOF 4
ENDMDL
MODEL 4
REMARK VINA RESULT: -5.713627056      1.158      1.264
REMARK  4 active torsions:
REMARK  status: ('A' for Active; 'I' for Inactive)
REMARK    1  A    between atoms: C2_2  and  C3_3 
REMARK    2  A    between atoms: C7_9  and  O3_10 
REMARK    3  A    between atoms: N1_15  and  O4_17 
REMARK    4  A    between atoms: C11_19  and  O5_21 
ROOT
HETATM    1  C1  UNL     1      24.108   5.371  18.022  1.00  0.00     0.054 C 
HETATM    2  C2  UNL     1      23.843   4.202  18.920  1.00  0.00     0.005 C 
HETATM    3  C4  UNL     1      24.020   2.952  18.609  1.00  0.00     0.067 C 
HETATM    4  O2  UNL     1      23.801   1.781  19.373  1.00  0.00    -0.340 OA
HETATM    5  C5  UNL     1      24.908   1.241  18.714  1.00  0.00     0.102 C 
HETATM    6  C6  UNL     1      26.152   1.667  19.427  1.00  0.00     0.050 C 
HETATM    7  C7  UNL     1      24.902  -0.203  18.392  1.00  0.00     0.154 C 
HETATM    8  C8  UNL     1      24.308  -0.602  17.085  1.00  0.00     0.041 C 
HETATM    9  C9  UNL     1      25.133  -0.189  15.895  1.00  0.00     0.060 C 
HETATM   10  C10 UNL     1      25.942   1.009  16.110  1.00  0.00     0.044 C 
HETATM   11  N1  UNL     1      27.183   0.905  15.904  1.00  0.00    -0.274 N 
ATOM     12  H1  UNL     1      27.796   1.710  16.040  1.00  0.00     0.193 HD
HETATM   13  C11 UNL     1      25.473   2.352  16.547  1.00  0.00     0.107 C 
HETATM   14  C12 UNL     1      26.553   3.316  16.802  1.00  0.00     0.053 C 
HETATM   15  C13 UNL     1      24.447   2.102  17.557  1.00  0.00     0.120 C 
ENDROOT
BRANCH   2  16
HETATM   16  C3  UNL     1      23.337   4.534  20.274  1.00  0.00     0.267 C 
HETATM   17  O1  UNL     1      23.862   5.431  20.952  1.00  0.00    -0.302 OA
ENDBRANCH   2  16
BRANCH  13  18
HETATM   18  O5  UNL     1      24.784   2.831  15.385  1.00  0.00    -0.383 OA
ATOM     19  H5  UNL     1      25.236   3.646  15.200  1.00  0.00     0.211 HD
ENDBRANCH  13  18
BRANCH   7  20
HETATM   20  O3  UNL     1      24.305  -0.982  19.409  1.00  0.00    -0.393 OA
ATOM     21  H3  UNL     1      23.420  -0.701  19.610  1.00  0.00     0.210 HD
ENDBRANCH   7  20
BRANCH  11  22
HETATM   22  O4  UNL     1      27.702  -0.297  15.496  1.00  0.00    -0.290 OA
ATOM     23  H4  UNL     1      27.542  -1.076  16.015  1.00  0.00     0.244 HD
ENDBRANCH  11  22
TORSDOF 4
ENDMDL
MODEL 5
REMARK VINA RESULT: -5.711672965      1.906      2.681
REMARK  4 active torsions:
REMARK  status: ('A' for Active; 'I' for Inactive)
REMARK    1  A    between atoms: C2_2  and  C3_3 
REMARK    2  A    between atoms: C7_9  and  O3_10 
REMARK    3  A    between atoms: N1_15  and  O4_17 
REMARK    4  A    between atoms: C11_19  and  O5_21 
ROOT
HETATM    1  C1  UNL     1      25.637   4.639  14.875  1.00  0.00     0.054 C 
HETATM    2  C2  UNL     1      25.083   4.764  16.262  1.00  0.00     0.005 C 
HETATM    3  C4  UNL     1      24.856   3.778  17.078  1.00  0.00     0.067 C 
HETATM    4  O2  UNL     1      24.338   3.784  18.395  1.00  0.00    -0.340 OA
HETATM    5  C5  UNL     1      25.191   2.707  18.649  1.00  0.00     0.102 C 
HETATM    6  C6  UNL     1      26.544   3.233  19.007  1.00  0.00     0.050 C 
HETATM    7  C7  UNL     1      24.730   1.645  19.571  1.00  0.00     0.154 C 
HETATM    8  C8  UNL     1      23.969   0.513  18.972  1.00  0.00     0.041 C 
HETATM    9  C9  UNL     1      24.809  -0.394  18.113  1.00  0.00     0.060 C 
HETATM   10  C10 UNL     1      25.953   0.265  17.485  1.00  0.00     0.044 C 
HETATM   11  N1  UNL     1      27.091  -0.238  17.701  1.00  0.00    -0.274 N 
ATOM     12  H1  UNL     1      27.925   0.181  17.288  1.00  0.00     0.193 HD
HETATM   13  C11 UNL     1      25.938   1.469  16.610  1.00  0.00     0.107 C 
HETATM   14  C12 UNL     1      27.272   1.966  16.244  1.00  0.00     0.053 C 
HETATM   15  C13 UNL     1      24.945   2.367  17.195  1.00  0.00     0.120 C 
ENDROOT
BRANCH   2  16
HETATM   16  C3  UNL     1      24.780   6.145  16.710  1.00  0.00     0.267 C 
HETATM   17  O1  UNL     1      24.824   7.099  15.919  1.00  0.00    -0.302 OA
ENDBRANCH   2  16
BRANCH  13  18
HETATM   18  O5  UNL     1      25.359   0.963  15.400  1.00  0.00    -0.383 OA
ATOM     19  H5  UNL     1      25.035   1.753  14.983  1.00  0.00     0.211 HD
ENDBRANCH  13  18
BRANCH   7  20
HETATM   20  O3  UNL     1      23.986   2.157  20.658  1.00  0.00    -0.393 OA
ATOM     21  H3  UNL     1      23.946   3.107  20.657  1.00  0.00     0.210 HD
ENDBRANCH   7  20
BRANCH  11  22
HETATM   22  O4  UNL     1      27.198  -1.352  18.494  1.00  0.00    -0.290 OA
ATOM     23  H4  UNL     1      27.942  -1.441  19.077  1.00  0.00     0.244 HD
ENDBRANCH  11  22
TORSDOF 4
ENDMDL
