MODEL 1
REMARK VINA RESULT: -7.036816638      0.000      0.000
REMARK  3 active torsions:
REMARK  status: ('A' for Active; 'I' for Inactive)
REMARK    1  A    between atoms: N2_7  and  C6_9 
REMARK    2  A    between atoms: C6_9  and  C7_10 
REMARK    3  A    between atoms: C7_10  and  C8_11 
ROOT
HETATM    1  N1  UNL     1     -16.996  41.613  12.838  1.00  0.00    -0.191 NA
HETATM    2  C1  UNL     1     -17.956  41.156  12.375  1.00  0.00     0.101 C 
HETATM    3  C2  UNL     1     -19.143  40.588  11.778  1.00  0.00     0.060 A 
HETATM    4  C3  UNL     1     -20.227  41.383  11.429  1.00  0.00     0.028 A 
HETATM    5  C4  UNL     1     -21.340  40.813  10.862  1.00  0.00     0.050 A 
HETATM    6  C5  UNL     1     -21.370  39.430  10.642  1.00  0.00     0.100 A 
HETATM    7  N2  UNL     1     -22.414  38.928  10.116  1.00  0.00    -0.376 N 
ATOM      8  H2  UNL     1     -23.186  39.549   9.876  1.00  0.00     0.161 HD
HETATM    9  N5  UNL     1     -20.317  38.684  10.985  1.00  0.00    -0.351 N 
ATOM     10  H5  UNL     1     -20.348  37.678  10.820  1.00  0.00     0.166 HD
HETATM   11  C11 UNL     1     -19.202  39.232  11.548  1.00  0.00     0.112 A 
ENDROOT
BRANCH   7  12
HETATM   12  C6  UNL     1     -22.550  37.541   9.849  1.00  0.00     0.127 C 
BRANCH  12  13
HETATM   13  C7  UNL     1     -22.665  37.220   8.359  1.00  0.00     0.078 C 
BRANCH  13  14
HETATM   14  C8  UNL     1     -24.094  37.423   8.000  1.00  0.00     0.028 A 
HETATM   15  C9  UNL     1     -25.158  36.883   8.692  1.00  0.00     0.045 A 
HETATM   16  C10 UNL     1     -26.324  37.301   8.047  1.00  0.00     0.109 A 
HETATM   17  N3  UNL     1     -25.940  38.063   7.009  1.00  0.00    -0.312 N 
HETATM   18  N4  UNL     1     -24.619  38.126   6.993  1.00  0.00    -0.305 N 
ATOM     19  H3  UNL     1     -26.564  38.517   6.343  1.00  0.00     0.186 HD
ATOM     20  H4  UNL     1     -24.074  38.643   6.304  1.00  0.00     0.186 HD
ENDBRANCH  13  14
ENDBRANCH  12  13
ENDBRANCH   7  12
TORSDOF 3
ENDMDL
MODEL 2
REMARK VINA RESULT: -7.009486765      2.181      7.687
REMARK  3 active torsions:
REMARK  status: ('A' for Active; 'I' for Inactive)
REMARK    1  A    between atoms: N2_7  and  C6_9 
REMARK    2  A    between atoms: C6_9  and  C7_10 
REMARK    3  A    between atoms: C7_10  and  C8_11 
ROOT
HETATM    1  N1  UNL     1     -26.389  38.764   9.791  1.00  0.00    -0.191 NA
HETATM    2  C1  UNL     1     -25.426  39.151  10.308  1.00  0.00     0.101 C 
HETATM    3  C2  UNL     1     -24.229  39.619  10.969  1.00  0.00     0.060 A 
HETATM    4  C3  UNL     1     -24.275  40.643  11.907  1.00  0.00     0.028 A 
HETATM    5  C4  UNL     1     -23.120  41.064  12.517  1.00  0.00     0.050 A 
HETATM    6  C5  UNL     1     -21.903  40.455  12.185  1.00  0.00     0.100 A 
HETATM    7  N2  UNL     1     -20.847  40.866  12.765  1.00  0.00    -0.376 N 
ATOM      8  H2  UNL     1     -20.927  41.620  13.447  1.00  0.00     0.161 HD
HETATM    9  N5  UNL     1     -21.881  39.473  11.281  1.00  0.00    -0.351 N 
ATOM     10  H5  UNL     1     -20.991  39.035  11.045  1.00  0.00     0.166 HD
HETATM   11  C11 UNL     1     -23.019  39.040  10.664  1.00  0.00     0.112 A 
ENDROOT
BRANCH   7  12
HETATM   12  C6  UNL     1     -19.565  40.319  12.504  1.00  0.00     0.127 C 
BRANCH  12  13
HETATM   13  C7  UNL     1     -18.690  41.218  11.631  1.00  0.00     0.078 C 
BRANCH  13  14
HETATM   14  C8  UNL     1     -17.555  41.653  12.488  1.00  0.00     0.028 A 
HETATM   15  C9  UNL     1     -17.458  41.402  13.841  1.00  0.00     0.045 A 
HETATM   16  C10 UNL     1     -16.259  41.968  14.280  1.00  0.00     0.109 A 
HETATM   17  N3  UNL     1     -15.681  42.530  13.205  1.00  0.00    -0.312 N 
HETATM   18  N4  UNL     1     -16.458  42.336  12.153  1.00  0.00    -0.305 N 
ATOM     19  H3  UNL     1     -14.789  43.025  13.201  1.00  0.00     0.186 HD
ATOM     20  H4  UNL     1     -16.247  42.665  11.211  1.00  0.00     0.186 HD
ENDBRANCH  13  14
ENDBRANCH  12  13
ENDBRANCH   7  12
TORSDOF 3
ENDMDL
MODEL 3
REMARK VINA RESULT: -6.822418502      1.714      7.526
REMARK  3 active torsions:
REMARK  status: ('A' for Active; 'I' for Inactive)
REMARK    1  A    between atoms: N2_7  and  C6_9 
REMARK    2  A    between atoms: C6_9  and  C7_10 
REMARK    3  A    between atoms: C7_10  and  C8_11 
ROOT
HETATM    1  N1  UNL     1     -24.819  36.294   9.169  1.00  0.00    -0.191 NA
HETATM    2  C1  UNL     1     -24.209  37.179   9.602  1.00  0.00     0.101 C 
HETATM    3  C2  UNL     1     -23.443  38.270  10.158  1.00  0.00     0.060 A 
HETATM    4  C3  UNL     1     -24.048  39.264  10.918  1.00  0.00     0.028 A 
HETATM    5  C4  UNL     1     -23.292  40.287  11.434  1.00  0.00     0.050 A 
HETATM    6  C5  UNL     1     -21.913  40.318  11.186  1.00  0.00     0.100 A 
HETATM    7  N2  UNL     1     -21.237  41.279  11.676  1.00  0.00    -0.376 N 
ATOM      8  H2  UNL     1     -21.723  41.986  12.227  1.00  0.00     0.161 HD
HETATM    9  N5  UNL     1     -21.353  39.355  10.453  1.00  0.00    -0.351 N 
ATOM     10  H5  UNL     1     -20.348  39.386  10.278  1.00  0.00     0.166 HD
HETATM   11  C11 UNL     1     -22.086  38.329   9.932  1.00  0.00     0.112 A 
ENDROOT
BRANCH   7  12
HETATM   12  C6  UNL     1     -19.837  41.408  11.487  1.00  0.00     0.127 C 
BRANCH  12  13
HETATM   13  C7  UNL     1     -19.015  40.526  12.427  1.00  0.00     0.078 C 
BRANCH  13  14
HETATM   14  C8  UNL     1     -17.796  41.306  12.768  1.00  0.00     0.028 A 
HETATM   15  C9  UNL     1     -17.295  41.454  14.045  1.00  0.00     0.045 A 
HETATM   16  C10 UNL     1     -16.152  42.250  13.950  1.00  0.00     0.109 A 
HETATM   17  N3  UNL     1     -15.999  42.553  12.650  1.00  0.00    -0.312 N 
HETATM   18  N4  UNL     1     -16.978  41.988  11.962  1.00  0.00    -0.305 N 
ATOM     19  H3  UNL     1     -15.251  43.124  12.257  1.00  0.00     0.186 HD
ATOM     20  H4  UNL     1     -17.093  42.065  10.952  1.00  0.00     0.186 HD
ENDBRANCH  13  14
ENDBRANCH  12  13
ENDBRANCH   7  12
TORSDOF 3
ENDMDL
MODEL 4
REMARK VINA RESULT: -6.727177948      1.874      2.388
REMARK  3 active torsions:
REMARK  status: ('A' for Active; 'I' for Inactive)
REMARK    1  A    between atoms: N2_7  and  C6_9 
REMARK    2  A    between atoms: C6_9  and  C7_10 
REMARK    3  A    between atoms: C7_10  and  C8_11 
ROOT
HETATM    1  N1  UNL     1     -17.578  41.295  11.851  1.00  0.00    -0.191 NA
HETATM    2  C1  UNL     1     -18.699  41.022  11.966  1.00  0.00     0.101 C 
HETATM    3  C2  UNL     1     -20.101  40.702  12.108  1.00  0.00     0.060 A 
HETATM    4  C3  UNL     1     -20.692  40.586  13.360  1.00  0.00     0.028 A 
HETATM    5  C4  UNL     1     -22.027  40.282  13.461  1.00  0.00     0.050 A 
HETATM    6  C5  UNL     1     -22.781  40.090  12.295  1.00  0.00     0.100 A 
HETATM    7  N2  UNL     1     -24.016  39.809  12.418  1.00  0.00    -0.376 N 
ATOM      8  H2  UNL     1     -24.408  39.733  13.357  1.00  0.00     0.161 HD
HETATM    9  N5  UNL     1     -22.193  40.206  11.103  1.00  0.00    -0.351 N 
ATOM     10  H5  UNL     1     -22.749  40.065  10.260  1.00  0.00     0.166 HD
HETATM   11  C11 UNL     1     -20.868  40.508  10.981  1.00  0.00     0.112 A 
ENDROOT
BRANCH   7  12
HETATM   12  C6  UNL     1     -24.870  39.595  11.306  1.00  0.00     0.127 C 
BRANCH  12  13
HETATM   13  C7  UNL     1     -25.068  38.117  10.970  1.00  0.00     0.078 C 
BRANCH  13  14
HETATM   14  C8  UNL     1     -24.371  37.889   9.675  1.00  0.00     0.028 A 
HETATM   15  C9  UNL     1     -23.223  37.138   9.529  1.00  0.00     0.045 A 
HETATM   16  C10 UNL     1     -22.884  37.165   8.174  1.00  0.00     0.109 A 
HETATM   17  N3  UNL     1     -23.814  37.913   7.558  1.00  0.00    -0.312 N 
HETATM   18  N4  UNL     1     -24.687  38.335   8.457  1.00  0.00    -0.305 N 
ATOM     19  H3  UNL     1     -23.842  38.122   6.560  1.00  0.00     0.186 HD
ATOM     20  H4  UNL     1     -25.494  38.923   8.248  1.00  0.00     0.186 HD
ENDBRANCH  13  14
ENDBRANCH  12  13
ENDBRANCH   7  12
TORSDOF 3
ENDMDL
MODEL 5
REMARK VINA RESULT: -6.712973111      4.337      7.891
REMARK  3 active torsions:
REMARK  status: ('A' for Active; 'I' for Inactive)
REMARK    1  A    between atoms: N2_7  and  C6_9 
REMARK    2  A    between atoms: C6_9  and  C7_10 
REMARK    3  A    between atoms: C7_10  and  C8_11 
ROOT
HETATM    1  N1  UNL     1     -26.041  41.438  15.795  1.00  0.00    -0.191 NA
HETATM    2  C1  UNL     1     -25.105  41.304  15.124  1.00  0.00     0.101 C 
HETATM    3  C2  UNL     1     -23.933  41.158  14.291  1.00  0.00     0.060 A 
HETATM    4  C3  UNL     1     -24.017  41.245  12.907  1.00  0.00     0.028 A 
HETATM    5  C4  UNL     1     -22.885  41.103  12.143  1.00  0.00     0.050 A 
HETATM    6  C5  UNL     1     -21.654  40.869  12.770  1.00  0.00     0.100 A 
HETATM    7  N2  UNL     1     -20.622  40.741  12.038  1.00  0.00    -0.376 N 
ATOM      8  H2  UNL     1     -20.729  40.812  11.026  1.00  0.00     0.161 HD
HETATM    9  N5  UNL     1     -21.597  40.789  14.101  1.00  0.00    -0.351 N 
ATOM     10  H5  UNL     1     -20.697  40.619  14.549  1.00  0.00     0.166 HD
HETATM   11  C11 UNL     1     -22.710  40.928  14.878  1.00  0.00     0.112 A 
ENDROOT
BRANCH   7  12
HETATM   12  C6  UNL     1     -19.328  40.503  12.568  1.00  0.00     0.127 C 
BRANCH  12  13
HETATM   13  C7  UNL     1     -18.211  41.163  11.761  1.00  0.00     0.078 C 
BRANCH  13  14
HETATM   14  C8  UNL     1     -17.268  41.744  12.754  1.00  0.00     0.028 A 
HETATM   15  C9  UNL     1     -17.286  41.462  14.105  1.00  0.00     0.045 A 
HETATM   16  C10 UNL     1     -16.254  42.198  14.692  1.00  0.00     0.109 A 
HETATM   17  N3  UNL     1     -15.658  42.886  13.703  1.00  0.00    -0.312 N 
HETATM   18  N4  UNL     1     -16.268  42.608  12.563  1.00  0.00    -0.305 N 
ATOM     19  H3  UNL     1     -14.866  43.519  13.813  1.00  0.00     0.186 HD
ATOM     20  H4  UNL     1     -16.009  43.001  11.658  1.00  0.00     0.186 HD
ENDBRANCH  13  14
ENDBRANCH  12  13
ENDBRANCH   7  12
TORSDOF 3
ENDMDL
