MODEL 1
REMARK VINA RESULT: -7.084109203      0.000      0.000
REMARK  8 active torsions:
REMARK  status: ('A' for Active; 'I' for Inactive)
REMARK    1  A    between atoms: O1_1  and  C1_3 
REMARK    2  A    between atoms: C1_3  and  N1_4 
REMARK    3  A    between atoms: N1_4  and  C2_7 
REMARK    4  A    between atoms: C2_7  and  N2_8 
REMARK    5  A    between atoms: N2_8  and  N3_10 
REMARK    6  A    between atoms: C3_12  and  N4_13 
REMARK    7  A    between atoms: N4_13  and  N5_15 
REMARK    8  A    between atoms: N5_15  and  C4_17 
ROOT
HETATM    1  N3  UNL     1      29.482   0.577  35.542  1.00  0.00    -0.298 N 
ATOM      2  H3  UNL     1      30.449   0.552  35.863  1.00  0.00     0.187 HD
HETATM    3  C3  UNL     1      29.373   0.951  34.347  1.00  0.00     0.214 C 
ENDROOT
BRANCH   3   4
HETATM    4  N4  UNL     1      30.613   1.261  33.729  1.00  0.00    -0.281 N 
ATOM      5  H4  UNL     1      30.613   1.400  32.719  1.00  0.00     0.188 HD
BRANCH   4   6
HETATM    6  N5  UNL     1      31.773   1.386  34.364  1.00  0.00    -0.129 N 
ATOM      7  H5  UNL     1      32.151   0.471  34.611  1.00  0.00     0.205 HD
BRANCH   6   8
HETATM    8  C4  UNL     1      32.520   2.283  34.737  1.00  0.00     0.719 A 
HETATM    9  N6  UNL     1      32.657   3.605  34.473  1.00  0.00    -0.087 N 
HETATM   10  O2  UNL     1      33.637   4.130  35.145  1.00  0.00    -0.192 OA
ATOM     11  H6  UNL     1      32.063   4.124  33.825  1.00  0.00     0.214 HD
HETATM   12  C5  UNL     1      34.178   3.182  35.885  1.00  0.00     0.254 A 
HETATM   13  S1  UNL     1      35.445   3.304  36.918  1.00  0.00    -0.030 SA
HETATM   14  N7  UNL     1      33.514   2.040  35.660  1.00  0.00    -0.155 N 
ATOM     15  H7  UNL     1      33.713   1.140  36.098  1.00  0.00     0.187 HD
ENDBRANCH   6   8
ENDBRANCH   4   6
ENDBRANCH   3   4
BRANCH   1  16
HETATM   16  N2  UNL     1      28.613   0.206  36.483  1.00  0.00    -0.310 N 
ATOM     17  H2  UNL     1      27.642   0.014  36.232  1.00  0.00     0.182 HD
BRANCH  16  18
HETATM   18  C2  UNL     1      29.051   0.071  37.894  1.00  0.00     0.373 C 
BRANCH  18  19
HETATM   19  N1  UNL     1      28.902   1.304  38.661  1.00  0.00    -0.038 N 
ATOM     20  H12 UNL     1      28.471   1.158  39.574  1.00  0.00     0.281 HD
ATOM     21  H11 UNL     1      28.191   1.929  38.278  1.00  0.00     0.281 HD
BRANCH  19  22
HETATM   22  C1  UNL     1      30.245   1.935  38.746  1.00  0.00     0.398 C 
BRANCH  22  23
HETATM   23  O1  UNL     1      31.039   1.716  37.653  1.00  0.00    -0.374 OA
ATOM     24  H1  UNL     1      31.251   0.802  37.502  1.00  0.00     0.211 HD
ENDBRANCH  22  23
ENDBRANCH  19  22
ENDBRANCH  18  19
ENDBRANCH  16  18
ENDBRANCH   1  16
TORSDOF 8
ENDMDL
MODEL 2
REMARK VINA RESULT: -7.053440297      1.046      1.235
REMARK  8 active torsions:
REMARK  status: ('A' for Active; 'I' for Inactive)
REMARK    1  A    between atoms: O1_1  and  C1_3 
REMARK    2  A    between atoms: C1_3  and  N1_4 
REMARK    3  A    between atoms: N1_4  and  C2_7 
REMARK    4  A    between atoms: C2_7  and  N2_8 
REMARK    5  A    between atoms: N2_8  and  N3_10 
REMARK    6  A    between atoms: C3_12  and  N4_13 
REMARK    7  A    between atoms: N4_13  and  N5_15 
REMARK    8  A    between atoms: N5_15  and  C4_17 
ROOT
HETATM    1  N3  UNL     1      29.533   0.458  34.343  1.00  0.00    -0.298 N 
ATOM      2  H3  UNL     1      30.301   0.054  34.878  1.00  0.00     0.187 HD
HETATM    3  C3  UNL     1      29.912   0.986  33.267  1.00  0.00     0.214 C 
ENDROOT
BRANCH   3   4
HETATM    4  N4  UNL     1      31.313   0.907  33.054  1.00  0.00    -0.281 N 
ATOM      5  H4  UNL     1      31.632   0.642  32.121  1.00  0.00     0.188 HD
BRANCH   4   6
HETATM    6  N5  UNL     1      32.241   1.151  33.971  1.00  0.00    -0.129 N 
ATOM      7  H5  UNL     1      32.662   0.282  34.301  1.00  0.00     0.205 HD
BRANCH   6   8
HETATM    8  C4  UNL     1      32.738   2.120  34.536  1.00  0.00     0.719 A 
HETATM    9  N6  UNL     1      32.480   3.448  34.591  1.00  0.00    -0.087 N 
HETATM   10  O2  UNL     1      33.327   4.070  35.353  1.00  0.00    -0.192 OA
ATOM     11  H6  UNL     1      31.714   3.904  34.094  1.00  0.00     0.214 HD
HETATM   12  C5  UNL     1      34.169   3.180  35.840  1.00  0.00     0.254 A 
HETATM   13  S1  UNL     1      35.433   3.430  36.853  1.00  0.00    -0.030 SA
HETATM   14  N7  UNL     1      33.833   1.975  35.359  1.00  0.00    -0.155 N 
ATOM     15  H7  UNL     1      34.309   1.097  35.569  1.00  0.00     0.187 HD
ENDBRANCH   6   8
ENDBRANCH   4   6
ENDBRANCH   3   4
BRANCH   1  16
HETATM   16  N2  UNL     1      28.350   0.310  34.940  1.00  0.00    -0.310 N 
ATOM     17  H2  UNL     1      27.689  -0.386  34.594  1.00  0.00     0.182 HD
BRANCH  16  18
HETATM   18  C2  UNL     1      27.990   1.154  36.106  1.00  0.00     0.373 C 
BRANCH  18  19
HETATM   19  N1  UNL     1      27.887   0.398  37.351  1.00  0.00    -0.038 N 
ATOM     20  H12 UNL     1      27.551  -0.554  37.213  1.00  0.00     0.281 HD
ATOM     21  H11 UNL     1      27.128   0.721  37.952  1.00  0.00     0.281 HD
BRANCH  19  22
HETATM   22  C1  UNL     1      29.217   0.456  38.012  1.00  0.00     0.398 C 
BRANCH  22  23
HETATM   23  O1  UNL     1      30.277   0.388  37.149  1.00  0.00    -0.374 OA
ATOM     24  H1  UNL     1      30.036   0.423  36.231  1.00  0.00     0.211 HD
ENDBRANCH  22  23
ENDBRANCH  19  22
ENDBRANCH  18  19
ENDBRANCH  16  18
ENDBRANCH   1  16
TORSDOF 8
ENDMDL
MODEL 3
REMARK VINA RESULT: -6.795380110      1.427      1.651
REMARK  8 active torsions:
REMARK  status: ('A' for Active; 'I' for Inactive)
REMARK    1  A    between atoms: O1_1  and  C1_3 
REMARK    2  A    between atoms: C1_3  and  N1_4 
REMARK    3  A    between atoms: N1_4  and  C2_7 
REMARK    4  A    between atoms: C2_7  and  N2_8 
REMARK    5  A    between atoms: N2_8  and  N3_10 
REMARK    6  A    between atoms: C3_12  and  N4_13 
REMARK    7  A    between atoms: N4_13  and  N5_15 
REMARK    8  A    between atoms: N5_15  and  C4_17 
ROOT
HETATM    1  N3  UNL     1      29.971   0.836  35.265  1.00  0.00    -0.298 N 
ATOM      2  H3  UNL     1      30.698   0.269  35.701  1.00  0.00     0.187 HD
HETATM    3  C3  UNL     1      30.434   1.712  34.491  1.00  0.00     0.214 C 
ENDROOT
BRANCH   3   4
HETATM    4  N4  UNL     1      31.851   1.717  34.415  1.00  0.00    -0.281 N 
ATOM      5  H4  UNL     1      32.272   1.836  33.493  1.00  0.00     0.188 HD
BRANCH   4   6
HETATM    6  N5  UNL     1      32.673   1.578  35.448  1.00  0.00    -0.129 N 
ATOM      7  H5  UNL     1      32.646   0.623  35.807  1.00  0.00     0.205 HD
BRANCH   6   8
HETATM    8  C4  UNL     1      33.455   2.266  36.096  1.00  0.00     0.719 A 
HETATM    9  N6  UNL     1      33.776   2.398  37.406  1.00  0.00    -0.087 N 
HETATM   10  O2  UNL     1      34.696   3.297  37.585  1.00  0.00    -0.192 OA
ATOM     11  H6  UNL     1      33.347   1.858  38.157  1.00  0.00     0.214 HD
HETATM   12  C5  UNL     1      35.026   3.786  36.406  1.00  0.00     0.254 A 
HETATM   13  S1  UNL     1      36.134   4.945  36.065  1.00  0.00    -0.030 SA
HETATM   14  N7  UNL     1      34.285   3.173  35.473  1.00  0.00    -0.155 N 
ATOM     15  H7  UNL     1      34.329   3.348  34.469  1.00  0.00     0.187 HD
ENDBRANCH   6   8
ENDBRANCH   4   6
ENDBRANCH   3   4
BRANCH   1  16
HETATM   16  N2  UNL     1      28.741   0.484  35.641  1.00  0.00    -0.310 N 
ATOM     17  H2  UNL     1      28.173  -0.108  35.033  1.00  0.00     0.182 HD
BRANCH  16  18
HETATM   18  C2  UNL     1      28.194   0.949  36.939  1.00  0.00     0.373 C 
BRANCH  18  19
HETATM   19  N1  UNL     1      28.799   0.281  38.088  1.00  0.00    -0.038 N 
ATOM     20  H12 UNL     1      29.284  -0.581  37.839  1.00  0.00     0.281 HD
ATOM     21  H11 UNL     1      28.111  -0.131  38.718  1.00  0.00     0.281 HD
BRANCH  19  22
HETATM   22  C1  UNL     1      29.681   1.272  38.758  1.00  0.00     0.398 C 
BRANCH  22  23
HETATM   23  O1  UNL     1      30.768   1.649  38.018  1.00  0.00    -0.374 OA
ATOM     24  H1  UNL     1      31.420   0.966  37.906  1.00  0.00     0.211 HD
ENDBRANCH  22  23
ENDBRANCH  19  22
ENDBRANCH  18  19
ENDBRANCH  16  18
ENDBRANCH   1  16
TORSDOF 8
ENDMDL
MODEL 4
REMARK VINA RESULT: -6.793147485      2.790      4.785
REMARK  8 active torsions:
REMARK  status: ('A' for Active; 'I' for Inactive)
REMARK    1  A    between atoms: O1_1  and  C1_3 
REMARK    2  A    between atoms: C1_3  and  N1_4 
REMARK    3  A    between atoms: N1_4  and  C2_7 
REMARK    4  A    between atoms: C2_7  and  N2_8 
REMARK    5  A    between atoms: N2_8  and  N3_10 
REMARK    6  A    between atoms: C3_12  and  N4_13 
REMARK    7  A    between atoms: N4_13  and  N5_15 
REMARK    8  A    between atoms: N5_15  and  C4_17 
ROOT
HETATM    1  N3  UNL     1      28.604   0.224  35.342  1.00  0.00    -0.298 N 
ATOM      2  H3  UNL     1      28.991  -0.579  35.837  1.00  0.00     0.187 HD
HETATM    3  C3  UNL     1      27.985   1.013  36.100  1.00  0.00     0.214 C 
ENDROOT
BRANCH   3   4
HETATM    4  N4  UNL     1      27.959   0.599  37.458  1.00  0.00    -0.281 N 
ATOM      5  H4  UNL     1      27.154   0.054  37.767  1.00  0.00     0.188 HD
BRANCH   4   6
HETATM    6  N5  UNL     1      28.899   0.865  38.356  1.00  0.00    -0.129 N 
ATOM      7  H5  UNL     1      29.272   0.005  38.757  1.00  0.00     0.205 HD
BRANCH   6   8
HETATM    8  C4  UNL     1      29.448   1.848  38.844  1.00  0.00     0.719 A 
HETATM    9  N6  UNL     1      30.727   2.270  38.993  1.00  0.00    -0.087 N 
HETATM   10  O2  UNL     1      30.785   3.417  39.599  1.00  0.00    -0.192 OA
ATOM     11  H6  UNL     1      31.543   1.751  38.669  1.00  0.00     0.214 HD
HETATM   12  C5  UNL     1      29.552   3.802  39.864  1.00  0.00     0.254 A 
HETATM   13  S1  UNL     1      29.061   5.172  40.618  1.00  0.00    -0.030 SA
HETATM   14  N7  UNL     1      28.710   2.864  39.412  1.00  0.00    -0.155 N 
ATOM     15  H7  UNL     1      27.693   2.896  39.477  1.00  0.00     0.187 HD
ENDBRANCH   6   8
ENDBRANCH   4   6
ENDBRANCH   3   4
BRANCH   1  16
HETATM   16  N2  UNL     1      28.867   0.205  34.034  1.00  0.00    -0.310 N 
ATOM     17  H2  UNL     1      28.522  -0.563  33.458  1.00  0.00     0.182 HD
BRANCH  16  18
HETATM   18  C2  UNL     1      29.659   1.296  33.415  1.00  0.00     0.373 C 
BRANCH  18  19
HETATM   19  N1  UNL     1      31.094   1.164  33.644  1.00  0.00    -0.038 N 
ATOM     20  H12 UNL     1      31.655   1.449  32.842  1.00  0.00     0.281 HD
ATOM     21  H11 UNL     1      31.404   0.192  33.683  1.00  0.00     0.281 HD
BRANCH  19  22
HETATM   22  C1  UNL     1      31.415   1.927  34.879  1.00  0.00     0.398 C 
BRANCH  22  23
HETATM   23  O1  UNL     1      31.324   1.196  36.032  1.00  0.00    -0.374 OA
ATOM     24  H1  UNL     1      30.631   1.477  36.619  1.00  0.00     0.211 HD
ENDBRANCH  22  23
ENDBRANCH  19  22
ENDBRANCH  18  19
ENDBRANCH  16  18
ENDBRANCH   1  16
TORSDOF 8
ENDMDL
MODEL 5
REMARK VINA RESULT: -6.765285162      2.106      4.906
REMARK  8 active torsions:
REMARK  status: ('A' for Active; 'I' for Inactive)
REMARK    1  A    between atoms: O1_1  and  C1_3 
REMARK    2  A    between atoms: C1_3  and  N1_4 
REMARK    3  A    between atoms: N1_4  and  C2_7 
REMARK    4  A    between atoms: C2_7  and  N2_8 
REMARK    5  A    between atoms: N2_8  and  N3_10 
REMARK    6  A    between atoms: C3_12  and  N4_13 
REMARK    7  A    between atoms: N4_13  and  N5_15 
REMARK    8  A    between atoms: N5_15  and  C4_17 
ROOT
HETATM    1  N3  UNL     1      30.525   1.048  34.450  1.00  0.00    -0.298 N 
ATOM      2  H3  UNL     1      30.556   0.896  35.458  1.00  0.00     0.187 HD
HETATM    3  C3  UNL     1      29.380   0.865  33.965  1.00  0.00     0.214 C 
ENDROOT
BRANCH   3   4
HETATM    4  N4  UNL     1      28.406   0.482  34.924  1.00  0.00    -0.281 N 
ATOM      5  H4  UNL     1      27.427   0.511  34.638  1.00  0.00     0.188 HD
BRANCH   4   6
HETATM    6  N5  UNL     1      28.669   0.088  36.164  1.00  0.00    -0.129 N 
ATOM      7  H5  UNL     1      28.661  -0.930  36.231  1.00  0.00     0.205 HD
BRANCH   6   8
HETATM    8  C4  UNL     1      28.919   0.595  37.253  1.00  0.00     0.719 A 
HETATM    9  N6  UNL     1      29.143   0.136  38.508  1.00  0.00    -0.087 N 
HETATM   10  O2  UNL     1      29.366   1.108  39.340  1.00  0.00    -0.192 OA
ATOM     11  H6  UNL     1      29.137  -0.850  38.767  1.00  0.00     0.214 HD
HETATM   12  C5  UNL     1      29.309   2.242  38.670  1.00  0.00     0.254 A 
HETATM   13  S1  UNL     1      29.515   3.765  39.239  1.00  0.00    -0.030 SA
HETATM   14  N7  UNL     1      29.039   1.961  37.388  1.00  0.00    -0.155 N 
ATOM     15  H7  UNL     1      28.939   2.644  36.637  1.00  0.00     0.187 HD
ENDBRANCH   6   8
ENDBRANCH   4   6
ENDBRANCH   3   4
BRANCH   1  16
HETATM   16  N2  UNL     1      31.707   1.395  33.939  1.00  0.00    -0.310 N 
ATOM     17  H2  UNL     1      32.026   0.977  33.065  1.00  0.00     0.182 HD
BRANCH  16  18
HETATM   18  C2  UNL     1      32.560   2.388  34.638  1.00  0.00     0.373 C 
BRANCH  18  19
HETATM   19  N1  UNL     1      33.416   1.791  35.659  1.00  0.00    -0.038 N 
ATOM     20  H12 UNL     1      33.614   0.805  35.487  1.00  0.00     0.281 HD
ATOM     21  H11 UNL     1      32.946   1.677  36.557  1.00  0.00     0.281 HD
BRANCH  19  22
HETATM   22  C1  UNL     1      34.644   2.624  35.746  1.00  0.00     0.398 C 
BRANCH  22  23
HETATM   23  O1  UNL     1      35.720   2.112  35.072  1.00  0.00    -0.374 OA
ATOM     24  H1  UNL     1      35.853   2.485  34.208  1.00  0.00     0.211 HD
ENDBRANCH  22  23
ENDBRANCH  19  22
ENDBRANCH  18  19
ENDBRANCH  16  18
ENDBRANCH   1  16
TORSDOF 8
ENDMDL
