MODEL 1
REMARK VINA RESULT: -9.198776999      0.000      0.000
REMARK  13 active torsions:
REMARK  status: ('A' for Active; 'I' for Inactive)
REMARK    1  A    between atoms: C4_4  and  O1_5 
REMARK    2  A    between atoms: C5_7  and  C6_8 
REMARK    3  A    between atoms: C6_8  and  C7_9 
REMARK    4  A    between atoms: C7_9  and  N1_10 
REMARK    5  A    between atoms: N1_10  and  C8_12 
REMARK    6  A    between atoms: C8_12  and  O2_13 
REMARK    7  A    between atoms: C8_12  and  N2_15 
REMARK    8  A    between atoms: C9_17  and  O3_18 
REMARK    9  A    between atoms: C9_17  and  C10_20 
REMARK   10  A    between atoms: C10_20  and  O4_21 
REMARK       I    between atoms: N5_28  and  C13_29 
REMARK   11  A    between atoms: C13_29  and  C14_31 
REMARK   12  A    between atoms: C14_31  and  N6_32 
REMARK   13  A    between atoms: C17_38  and  O7_39 
ROOT
HETATM    1  C10 UNL     1      -5.338  18.988  35.321  1.00  0.00     0.223 C 
HETATM    2  C11 UNL     1      -4.357  18.184  36.199  1.00  0.00     0.205 C 
HETATM    3  N3  UNL     1      -5.170  17.370  37.069  1.00  0.00    -0.135 NA
HETATM    4  N4  UNL     1      -5.630  16.250  36.356  1.00  0.00    -0.299 N 
ATOM      5  H4  UNL     1      -5.410  15.282  36.590  1.00  0.00     0.183 HD
HETATM    6  C12 UNL     1      -6.459  16.660  35.243  1.00  0.00     0.202 C 
HETATM    7  N5  UNL     1      -6.323  17.999  34.816  1.00  0.00    -0.270 N 
HETATM    8  C13 UNL     1      -7.175  18.507  33.807  1.00  0.00     0.247 C 
HETATM    9  O5  UNL     1      -7.078  19.754  33.472  1.00  0.00    -0.271 OA
ENDROOT
BRANCH   1  10
HETATM   10  C9  UNL     1      -4.633  19.564  34.188  1.00  0.00     0.178 C 
HETATM   11  N2  UNL     1      -4.165  20.769  33.761  1.00  0.00    -0.302 N 
ATOM     12  H2  UNL     1      -3.769  20.681  32.825  1.00  0.00     0.171 HD
BRANCH  11  13
HETATM   13  C8  UNL     1      -4.060  22.079  34.203  1.00  0.00     0.218 C 
BRANCH  13  14
HETATM   14  N1  UNL     1      -4.580  23.246  33.674  1.00  0.00    -0.356 N 
ATOM     15  H1  UNL     1      -4.451  23.475  32.688  1.00  0.00     0.163 HD
BRANCH  14  16
HETATM   16  C7  UNL     1      -5.334  24.161  34.578  1.00  0.00     0.128 C 
BRANCH  16  17
HETATM   17  C6  UNL     1      -6.175  25.059  33.725  1.00  0.00     0.067 C 
BRANCH  17  18
HETATM   18  C5  UNL     1      -7.612  24.714  33.919  1.00  0.00     0.052 A 
HETATM   19  C4  UNL     1      -8.358  25.432  34.810  1.00  0.00     0.080 A 
HETATM   20  C3  UNL     1      -9.687  25.102  34.959  1.00  0.00     0.069 A 
HETATM   21  C2  UNL     1     -10.166  24.049  34.176  1.00  0.00     0.056 A 
HETATM   22  C1  UNL     1     -11.578  23.640  34.280  1.00  0.00     0.077 C 
HETATM   23  O9  UNL     1      -9.391  23.397  33.334  1.00  0.00    -0.280 OA
HETATM   24  C20 UNL     1      -8.122  23.668  33.154  1.00  0.00     0.297 A 
HETATM   25  O8  UNL     1      -7.382  23.054  32.358  1.00  0.00    -0.259 OA
BRANCH  19  26
HETATM   26  O1  UNL     1      -7.784  26.457  35.538  1.00  0.00    -0.360 OA
ATOM     27  H1  UNL     1      -8.235  27.282  35.674  1.00  0.00     0.217 HD
ENDBRANCH  19  26
ENDBRANCH  17  18
ENDBRANCH  16  17
ENDBRANCH  14  16
ENDBRANCH  13  14
BRANCH  13  28
HETATM   28  O2  UNL     1      -3.355  22.266  35.308  1.00  0.00    -0.332 OA
ATOM     29  H2  UNL     1      -3.414  21.545  35.923  1.00  0.00     0.220 HD
ENDBRANCH  13  28
ENDBRANCH  11  13
BRANCH  10  30
HETATM   30  O3  UNL     1      -4.363  18.583  33.277  1.00  0.00    -0.345 OA
ATOM     31  H3  UNL     1      -3.528  18.167  33.461  1.00  0.00     0.219 HD
ENDBRANCH  10  30
ENDBRANCH   1  10
BRANCH   1  32
HETATM   32  O4  UNL     1      -5.980  19.830  36.158  1.00  0.00    -0.362 OA
ATOM     33  H4  UNL     1      -5.759  19.794  37.081  1.00  0.00     0.213 HD
ENDBRANCH   1  32
BRANCH   8  34
HETATM   34  C14 UNL     1      -8.214  17.800  33.029  1.00  0.00     0.252 C 
BRANCH  34  35
HETATM   35  N6  UNL     1      -9.403  18.613  32.980  1.00  0.00    -0.285 N 
HETATM   36  N7  UNL     1     -10.107  18.728  34.134  1.00  0.00    -0.305 N 
HETATM   37  C15 UNL     1     -11.256  19.391  34.227  1.00  0.00     0.165 A 
ATOM     38  H7  UNL     1      -9.735  18.283  34.974  1.00  0.00     0.186 HD
HETATM   39  C16 UNL     1     -11.761  19.992  33.099  1.00  0.00     0.223 A 
HETATM   40  O6  UNL     1     -12.845  20.628  33.149  1.00  0.00    -0.284 OA
HETATM   41  C17 UNL     1     -11.099  19.918  31.891  1.00  0.00     0.141 A 
HETATM   42  C18 UNL     1      -9.892  19.198  31.892  1.00  0.00     0.062 A 
HETATM   43  C19 UNL     1      -9.157  19.178  30.621  1.00  0.00     0.073 C 
BRANCH  41  44
HETATM   44  O7  UNL     1     -11.556  20.500  30.727  1.00  0.00    -0.355 OA
ATOM     45  H7  UNL     1     -12.098  20.052  30.088  1.00  0.00     0.218 HD
ENDBRANCH  41  44
ENDBRANCH  34  35
ENDBRANCH   8  34
TORSDOF 13
ENDMDL
MODEL 2
REMARK VINA RESULT: -9.196779006      1.017      1.608
REMARK  13 active torsions:
REMARK  status: ('A' for Active; 'I' for Inactive)
REMARK    1  A    between atoms: C4_4  and  O1_5 
REMARK    2  A    between atoms: C5_7  and  C6_8 
REMARK    3  A    between atoms: C6_8  and  C7_9 
REMARK    4  A    between atoms: C7_9  and  N1_10 
REMARK    5  A    between atoms: N1_10  and  C8_12 
REMARK    6  A    between atoms: C8_12  and  O2_13 
REMARK    7  A    between atoms: C8_12  and  N2_15 
REMARK    8  A    between atoms: C9_17  and  O3_18 
REMARK    9  A    between atoms: C9_17  and  C10_20 
REMARK   10  A    between atoms: C10_20  and  O4_21 
REMARK       I    between atoms: N5_28  and  C13_29 
REMARK   11  A    between atoms: C13_29  and  C14_31 
REMARK   12  A    between atoms: C14_31  and  N6_32 
REMARK   13  A    between atoms: C17_38  and  O7_39 
ROOT
HETATM    1  C10 UNL     1      -5.318  18.684  35.768  1.00  0.00     0.223 C 
HETATM    2  C11 UNL     1      -4.410  18.044  36.838  1.00  0.00     0.205 C 
HETATM    3  N3  UNL     1      -5.266  17.207  37.643  1.00  0.00    -0.135 NA
HETATM    4  N4  UNL     1      -5.505  16.002  36.961  1.00  0.00    -0.299 N 
ATOM      5  H4  UNL     1      -5.233  15.079  37.299  1.00  0.00     0.183 HD
HETATM    6  C12 UNL     1      -6.190  16.251  35.711  1.00  0.00     0.202 C 
HETATM    7  N5  UNL     1      -6.117  17.567  35.204  1.00  0.00    -0.270 N 
HETATM    8  C13 UNL     1      -6.850  17.918  34.046  1.00  0.00     0.247 C 
HETATM    9  O5  UNL     1      -6.821  19.144  33.631  1.00  0.00    -0.271 OA
ENDROOT
BRANCH   1  10
HETATM   10  C9  UNL     1      -4.506  19.257  34.706  1.00  0.00     0.178 C 
HETATM   11  N2  UNL     1      -4.061  20.471  34.282  1.00  0.00    -0.302 N 
ATOM     12  H2  UNL     1      -3.541  20.370  33.410  1.00  0.00     0.171 HD
BRANCH  11  13
HETATM   13  C8  UNL     1      -4.097  21.804  34.666  1.00  0.00     0.218 C 
BRANCH  13  14
HETATM   14  N1  UNL     1      -5.171  22.658  34.830  1.00  0.00    -0.356 N 
ATOM     15  H1  UNL     1      -6.104  22.294  35.023  1.00  0.00     0.163 HD
BRANCH  14  16
HETATM   16  C7  UNL     1      -4.934  24.126  34.719  1.00  0.00     0.128 C 
BRANCH  16  17
HETATM   17  C6  UNL     1      -5.587  24.603  33.459  1.00  0.00     0.067 C 
BRANCH  17  18
HETATM   18  C5  UNL     1      -7.012  24.165  33.450  1.00  0.00     0.052 A 
HETATM   19  C4  UNL     1      -7.934  24.870  34.172  1.00  0.00     0.080 A 
HETATM   20  C3  UNL     1      -9.245  24.452  34.133  1.00  0.00     0.069 A 
HETATM   21  C2  UNL     1      -9.526  23.329  33.350  1.00  0.00     0.056 A 
HETATM   22  C1  UNL     1     -10.908  22.824  33.260  1.00  0.00     0.077 C 
HETATM   23  O9  UNL     1      -8.588  22.694  32.678  1.00  0.00    -0.280 OA
HETATM   24  C20 UNL     1      -7.327  23.048  32.680  1.00  0.00     0.297 A 
HETATM   25  O8  UNL     1      -6.432  22.451  32.045  1.00  0.00    -0.259 OA
BRANCH  19  26
HETATM   26  O1  UNL     1      -7.548  25.968  34.916  1.00  0.00    -0.360 OA
ATOM     27  H1  UNL     1      -6.694  26.012  35.330  1.00  0.00     0.217 HD
ENDBRANCH  19  26
ENDBRANCH  17  18
ENDBRANCH  16  17
ENDBRANCH  14  16
ENDBRANCH  13  14
BRANCH  13  28
HETATM   28  O2  UNL     1      -2.927  22.367  34.924  1.00  0.00    -0.332 OA
ATOM     29  H2  UNL     1      -2.190  21.901  34.547  1.00  0.00     0.220 HD
ENDBRANCH  13  28
ENDBRANCH  11  13
BRANCH  10  30
HETATM   30  O3  UNL     1      -4.058  18.258  33.890  1.00  0.00    -0.345 OA
ATOM     31  H3  UNL     1      -3.715  17.531  34.397  1.00  0.00     0.219 HD
ENDBRANCH  10  30
ENDBRANCH   1  10
BRANCH   1  32
HETATM   32  O4  UNL     1      -6.156  19.505  36.434  1.00  0.00    -0.362 OA
ATOM     33  H4  UNL     1      -6.451  19.235  37.295  1.00  0.00     0.213 HD
ENDBRANCH   1  32
BRANCH   8  34
HETATM   34  C14 UNL     1      -7.688  17.057  33.184  1.00  0.00     0.252 C 
BRANCH  34  35
HETATM   35  N6  UNL     1      -8.689  17.869  32.537  1.00  0.00    -0.285 N 
HETATM   36  N7  UNL     1      -8.327  18.465  31.374  1.00  0.00    -0.305 N 
HETATM   37  C15 UNL     1      -9.119  19.292  30.698  1.00  0.00     0.165 A 
ATOM     38  H7  UNL     1      -7.399  18.268  30.998  1.00  0.00     0.186 HD
HETATM   39  C16 UNL     1     -10.371  19.561  31.201  1.00  0.00     0.223 A 
HETATM   40  O6  UNL     1     -11.148  20.338  30.589  1.00  0.00    -0.284 OA
HETATM   41  C17 UNL     1     -10.806  18.990  32.378  1.00  0.00     0.141 A 
HETATM   42  C18 UNL     1      -9.899  18.129  33.019  1.00  0.00     0.062 A 
HETATM   43  C19 UNL     1     -10.391  17.471  34.236  1.00  0.00     0.073 C 
BRANCH  41  44
HETATM   44  O7  UNL     1     -12.049  19.221  32.931  1.00  0.00    -0.355 OA
ATOM     45  H7  UNL     1     -12.309  20.046  33.324  1.00  0.00     0.218 HD
ENDBRANCH  41  44
ENDBRANCH  34  35
ENDBRANCH   8  34
TORSDOF 13
ENDMDL
MODEL 3
REMARK VINA RESULT: -9.190741602      0.925      2.039
REMARK  13 active torsions:
REMARK  status: ('A' for Active; 'I' for Inactive)
REMARK    1  A    between atoms: C4_4  and  O1_5 
REMARK    2  A    between atoms: C5_7  and  C6_8 
REMARK    3  A    between atoms: C6_8  and  C7_9 
REMARK    4  A    between atoms: C7_9  and  N1_10 
REMARK    5  A    between atoms: N1_10  and  C8_12 
REMARK    6  A    between atoms: C8_12  and  O2_13 
REMARK    7  A    between atoms: C8_12  and  N2_15 
REMARK    8  A    between atoms: C9_17  and  O3_18 
REMARK    9  A    between atoms: C9_17  and  C10_20 
REMARK   10  A    between atoms: C10_20  and  O4_21 
REMARK       I    between atoms: N5_28  and  C13_29 
REMARK   11  A    between atoms: C13_29  and  C14_31 
REMARK   12  A    between atoms: C14_31  and  N6_32 
REMARK   13  A    between atoms: C17_38  and  O7_39 
ROOT
HETATM    1  C10 UNL     1      -5.291  18.773  35.604  1.00  0.00     0.223 C 
HETATM    2  C11 UNL     1      -4.368  18.148  36.670  1.00  0.00     0.205 C 
HETATM    3  N3  UNL     1      -5.229  17.422  37.572  1.00  0.00    -0.135 NA
HETATM    4  N4  UNL     1      -5.577  16.193  36.986  1.00  0.00    -0.299 N 
ATOM      5  H4  UNL     1      -5.344  15.278  37.373  1.00  0.00     0.183 HD
HETATM    6  C12 UNL     1      -6.312  16.403  35.758  1.00  0.00     0.202 C 
HETATM    7  N5  UNL     1      -6.186  17.676  35.159  1.00  0.00    -0.270 N 
HETATM    8  C13 UNL     1      -6.958  17.997  34.018  1.00  0.00     0.247 C 
HETATM    9  O5  UNL     1      -6.876  19.189  33.519  1.00  0.00    -0.271 OA
ENDROOT
BRANCH   1  10
HETATM   10  C9  UNL     1      -4.504  19.223  34.467  1.00  0.00     0.178 C 
HETATM   11  N2  UNL     1      -3.969  20.368  33.964  1.00  0.00    -0.302 N 
ATOM     12  H2  UNL     1      -3.526  20.185  33.064  1.00  0.00     0.171 HD
BRANCH  11  13
HETATM   13  C8  UNL     1      -3.839  21.709  34.296  1.00  0.00     0.218 C 
BRANCH  13  14
HETATM   14  N1  UNL     1      -4.318  22.838  33.657  1.00  0.00    -0.356 N 
ATOM     15  H1  UNL     1      -4.176  22.972  32.656  1.00  0.00     0.163 HD
BRANCH  14  16
HETATM   16  C7  UNL     1      -5.047  23.856  34.467  1.00  0.00     0.128 C 
BRANCH  16  17
HETATM   17  C6  UNL     1      -5.798  24.742  33.522  1.00  0.00     0.067 C 
BRANCH  17  18
HETATM   18  C5  UNL     1      -7.195  24.240  33.386  1.00  0.00     0.052 A 
HETATM   19  C4  UNL     1      -7.475  23.282  32.454  1.00  0.00     0.080 A 
HETATM   20  C3  UNL     1      -8.771  22.826  32.361  1.00  0.00     0.069 A 
HETATM   21  C2  UNL     1      -9.702  23.390  33.237  1.00  0.00     0.056 A 
HETATM   22  C1  UNL     1     -11.109  22.951  33.196  1.00  0.00     0.077 C 
HETATM   23  O9  UNL     1      -9.365  24.313  34.114  1.00  0.00    -0.280 OA
HETATM   24  C20 UNL     1      -8.148  24.782  34.245  1.00  0.00     0.297 A 
HETATM   25  O8  UNL     1      -7.822  25.657  35.073  1.00  0.00    -0.259 OA
BRANCH  19  26
HETATM   26  O1  UNL     1      -6.477  22.791  31.634  1.00  0.00    -0.360 OA
ATOM     27  H1  UNL     1      -6.280  23.195  30.796  1.00  0.00     0.217 HD
ENDBRANCH  19  26
ENDBRANCH  17  18
ENDBRANCH  16  17
ENDBRANCH  14  16
ENDBRANCH  13  14
BRANCH  13  28
HETATM   28  O2  UNL     1      -3.153  21.973  35.396  1.00  0.00    -0.332 OA
ATOM     29  H2  UNL     1      -3.649  22.454  36.048  1.00  0.00     0.220 HD
ENDBRANCH  13  28
ENDBRANCH  11  13
BRANCH  10  30
HETATM   30  O3  UNL     1      -4.222  18.156  33.663  1.00  0.00    -0.345 OA
ATOM     31  H3  UNL     1      -4.896  18.038  33.003  1.00  0.00     0.219 HD
ENDBRANCH  10  30
ENDBRANCH   1  10
BRANCH   1  32
HETATM   32  O4  UNL     1      -6.040  19.689  36.253  1.00  0.00    -0.362 OA
ATOM     33  H4  UNL     1      -5.634  20.520  36.472  1.00  0.00     0.213 HD
ENDBRANCH   1  32
BRANCH   8  34
HETATM   34  C14 UNL     1      -7.891  17.138  33.259  1.00  0.00     0.252 C 
BRANCH  34  35
HETATM   35  N6  UNL     1      -8.883  17.968  32.621  1.00  0.00    -0.285 N 
HETATM   36  N7  UNL     1      -8.542  18.511  31.426  1.00  0.00    -0.305 N 
HETATM   37  C15 UNL     1      -9.326  19.347  30.752  1.00  0.00     0.165 A 
ATOM     38  H7  UNL     1      -7.636  18.266  31.025  1.00  0.00     0.186 HD
HETATM   39  C16 UNL     1     -10.547  19.681  31.289  1.00  0.00     0.223 A 
HETATM   40  O6  UNL     1     -11.315  20.468  30.679  1.00  0.00    -0.284 OA
HETATM   41  C17 UNL     1     -10.960  19.166  32.499  1.00  0.00     0.141 A 
HETATM   42  C18 UNL     1     -10.065  18.290  33.136  1.00  0.00     0.062 A 
HETATM   43  C19 UNL     1     -10.536  17.691  34.391  1.00  0.00     0.073 C 
BRANCH  41  44
HETATM   44  O7  UNL     1     -12.173  19.463  33.087  1.00  0.00    -0.355 OA
ATOM     45  H7  UNL     1     -12.925  18.882  33.073  1.00  0.00     0.218 HD
ENDBRANCH  41  44
ENDBRANCH  34  35
ENDBRANCH   8  34
TORSDOF 13
ENDMDL
MODEL 4
REMARK VINA RESULT: -9.174737615      1.143      1.777
REMARK  13 active torsions:
REMARK  status: ('A' for Active; 'I' for Inactive)
REMARK    1  A    between atoms: C4_4  and  O1_5 
REMARK    2  A    between atoms: C5_7  and  C6_8 
REMARK    3  A    between atoms: C6_8  and  C7_9 
REMARK    4  A    between atoms: C7_9  and  N1_10 
REMARK    5  A    between atoms: N1_10  and  C8_12 
REMARK    6  A    between atoms: C8_12  and  O2_13 
REMARK    7  A    between atoms: C8_12  and  N2_15 
REMARK    8  A    between atoms: C9_17  and  O3_18 
REMARK    9  A    between atoms: C9_17  and  C10_20 
REMARK   10  A    between atoms: C10_20  and  O4_21 
REMARK       I    between atoms: N5_28  and  C13_29 
REMARK   11  A    between atoms: C13_29  and  C14_31 
REMARK   12  A    between atoms: C14_31  and  N6_32 
REMARK   13  A    between atoms: C17_38  and  O7_39 
ROOT
HETATM    1  C10 UNL     1      -5.345  18.791  35.638  1.00  0.00     0.223 C 
HETATM    2  C11 UNL     1      -4.384  18.182  36.680  1.00  0.00     0.205 C 
HETATM    3  N3  UNL     1      -5.203  17.396  37.571  1.00  0.00    -0.135 NA
HETATM    4  N4  UNL     1      -5.501  16.167  36.958  1.00  0.00    -0.299 N 
ATOM      5  H4  UNL     1      -5.224  15.256  37.321  1.00  0.00     0.183 HD
HETATM    6  C12 UNL     1      -6.256  16.375  35.742  1.00  0.00     0.202 C 
HETATM    7  N5  UNL     1      -6.194  17.666  35.174  1.00  0.00    -0.270 N 
HETATM    8  C13 UNL     1      -6.990  17.979  34.047  1.00  0.00     0.247 C 
HETATM    9  O5  UNL     1      -6.966  19.185  33.577  1.00  0.00    -0.271 OA
ENDROOT
BRANCH   1  10
HETATM   10  C9  UNL     1      -4.589  19.303  34.506  1.00  0.00     0.178 C 
HETATM   11  N2  UNL     1      -4.200  20.492  33.971  1.00  0.00    -0.302 N 
ATOM     12  H2  UNL     1      -3.707  20.338  33.091  1.00  0.00     0.171 HD
BRANCH  11  13
HETATM   13  C8  UNL     1      -4.266  21.849  34.251  1.00  0.00     0.218 C 
BRANCH  13  14
HETATM   14  N1  UNL     1      -5.167  22.807  33.824  1.00  0.00    -0.356 N 
ATOM     15  H1  UNL     1      -4.901  23.791  33.779  1.00  0.00     0.163 HD
BRANCH  14  16
HETATM   16  C7  UNL     1      -6.535  22.367  33.429  1.00  0.00     0.128 C 
BRANCH  16  17
HETATM   17  C6  UNL     1      -7.204  23.514  32.737  1.00  0.00     0.067 C 
BRANCH  17  18
HETATM   18  C5  UNL     1      -8.165  24.161  33.675  1.00  0.00     0.052 A 
HETATM   19  C4  UNL     1      -7.749  25.211  34.442  1.00  0.00     0.080 A 
HETATM   20  C3  UNL     1      -8.661  25.799  35.289  1.00  0.00     0.069 A 
HETATM   21  C2  UNL     1      -9.952  25.264  35.292  1.00  0.00     0.056 A 
HETATM   22  C1  UNL     1     -10.984  25.842  36.173  1.00  0.00     0.077 C 
HETATM   23  O9  UNL     1     -10.289  24.247  34.526  1.00  0.00    -0.280 OA
HETATM   24  C20 UNL     1      -9.461  23.652  33.704  1.00  0.00     0.297 A 
HETATM   25  O8  UNL     1      -9.773  22.687  32.975  1.00  0.00    -0.259 OA
BRANCH  19  26
HETATM   26  O1  UNL     1      -6.444  25.662  34.362  1.00  0.00    -0.360 OA
ATOM     27  H1  UNL     1      -5.728  25.073  34.157  1.00  0.00     0.217 HD
ENDBRANCH  19  26
ENDBRANCH  17  18
ENDBRANCH  16  17
ENDBRANCH  14  16
ENDBRANCH  13  14
BRANCH  13  28
HETATM   28  O2  UNL     1      -3.328  22.324  35.054  1.00  0.00    -0.332 OA
ATOM     29  H2  UNL     1      -3.410  22.027  35.953  1.00  0.00     0.220 HD
ENDBRANCH  13  28
ENDBRANCH  11  13
BRANCH  10  30
HETATM   30  O3  UNL     1      -4.137  18.256  33.754  1.00  0.00    -0.345 OA
ATOM     31  H3  UNL     1      -3.231  18.385  33.500  1.00  0.00     0.219 HD
ENDBRANCH  10  30
ENDBRANCH   1  10
BRANCH   1  32
HETATM   32  O4  UNL     1      -6.128  19.656  36.315  1.00  0.00    -0.362 OA
ATOM     33  H4  UNL     1      -5.825  19.958  37.164  1.00  0.00     0.213 HD
ENDBRANCH   1  32
BRANCH   8  34
HETATM   34  C14 UNL     1      -7.891  17.098  33.275  1.00  0.00     0.252 C 
BRANCH  34  35
HETATM   35  N6  UNL     1      -8.886  17.904  32.612  1.00  0.00    -0.285 N 
HETATM   36  N7  UNL     1      -8.501  18.519  31.466  1.00  0.00    -0.305 N 
HETATM   37  C15 UNL     1      -9.286  19.344  30.779  1.00  0.00     0.165 A 
ATOM     38  H7  UNL     1      -7.561  18.340  31.113  1.00  0.00     0.186 HD
HETATM   39  C16 UNL     1     -10.555  19.589  31.252  1.00  0.00     0.223 A 
HETATM   40  O6  UNL     1     -11.326  20.364  30.628  1.00  0.00    -0.284 OA
HETATM   41  C17 UNL     1     -11.013  18.998  32.410  1.00  0.00     0.141 A 
HETATM   42  C18 UNL     1     -10.112  18.141  33.064  1.00  0.00     0.062 A 
HETATM   43  C19 UNL     1     -10.627  17.462  34.260  1.00  0.00     0.073 C 
BRANCH  41  44
HETATM   44  O7  UNL     1     -12.274  19.205  32.932  1.00  0.00    -0.355 OA
ATOM     45  H7  UNL     1     -12.835  18.509  33.251  1.00  0.00     0.218 HD
ENDBRANCH  41  44
ENDBRANCH  34  35
ENDBRANCH   8  34
TORSDOF 13
ENDMDL
MODEL 5
REMARK VINA RESULT: -9.174239572      1.076      2.133
REMARK  13 active torsions:
REMARK  status: ('A' for Active; 'I' for Inactive)
REMARK    1  A    between atoms: C4_4  and  O1_5 
REMARK    2  A    between atoms: C5_7  and  C6_8 
REMARK    3  A    between atoms: C6_8  and  C7_9 
REMARK    4  A    between atoms: C7_9  and  N1_10 
REMARK    5  A    between atoms: N1_10  and  C8_12 
REMARK    6  A    between atoms: C8_12  and  O2_13 
REMARK    7  A    between atoms: C8_12  and  N2_15 
REMARK    8  A    between atoms: C9_17  and  O3_18 
REMARK    9  A    between atoms: C9_17  and  C10_20 
REMARK   10  A    between atoms: C10_20  and  O4_21 
REMARK       I    between atoms: N5_28  and  C13_29 
REMARK   11  A    between atoms: C13_29  and  C14_31 
REMARK   12  A    between atoms: C14_31  and  N6_32 
REMARK   13  A    between atoms: C17_38  and  O7_39 
ROOT
HETATM    1  C10 UNL     1      -5.358  18.555  35.680  1.00  0.00     0.223 C 
HETATM    2  C11 UNL     1      -4.420  17.869  36.694  1.00  0.00     0.205 C 
HETATM    3  N3  UNL     1      -5.275  17.160  37.616  1.00  0.00    -0.135 NA
HETATM    4  N4  UNL     1      -5.698  15.959  37.021  1.00  0.00    -0.299 N 
ATOM      5  H4  UNL     1      -5.489  15.028  37.380  1.00  0.00     0.183 HD
HETATM    6  C12 UNL     1      -6.471  16.227  35.828  1.00  0.00     0.202 C 
HETATM    7  N5  UNL     1      -6.315  17.506  35.250  1.00  0.00    -0.270 N 
HETATM    8  C13 UNL     1      -7.117  17.883  34.147  1.00  0.00     0.247 C 
HETATM    9  O5  UNL     1      -7.005  19.081  33.669  1.00  0.00    -0.271 OA
ENDROOT
BRANCH   1  10
HETATM   10  C9  UNL     1      -4.598  18.995  34.521  1.00  0.00     0.178 C 
HETATM   11  N2  UNL     1      -4.161  20.148  33.944  1.00  0.00    -0.302 N 
ATOM     12  H2  UNL     1      -3.690  19.944  33.062  1.00  0.00     0.171 HD
BRANCH  11  13
HETATM   13  C8  UNL     1      -4.157  21.515  34.183  1.00  0.00     0.218 C 
BRANCH  13  14
HETATM   14  N1  UNL     1      -4.896  22.526  33.599  1.00  0.00    -0.356 N 
ATOM     15  H1  UNL     1      -4.448  23.388  33.288  1.00  0.00     0.163 HD
BRANCH  14  16
HETATM   16  C7  UNL     1      -6.364  22.327  33.434  1.00  0.00     0.128 C 
BRANCH  16  17
HETATM   17  C6  UNL     1      -6.917  23.538  32.747  1.00  0.00     0.067 C 
BRANCH  17  18
HETATM   18  C5  UNL     1      -7.657  24.369  33.739  1.00  0.00     0.052 A 
HETATM   19  C4  UNL     1      -9.006  24.207  33.876  1.00  0.00     0.080 A 
HETATM   20  C3  UNL     1      -9.662  24.977  34.809  1.00  0.00     0.069 A 
HETATM   21  C2  UNL     1      -8.882  25.872  35.548  1.00  0.00     0.056 A 
HETATM   22  C1  UNL     1      -9.514  26.729  36.567  1.00  0.00     0.077 C 
HETATM   23  O9  UNL     1      -7.582  25.979  35.365  1.00  0.00    -0.280 OA
HETATM   24  C20 UNL     1      -6.909  25.272  34.491  1.00  0.00     0.297 A 
HETATM   25  O8  UNL     1      -5.677  25.369  34.313  1.00  0.00    -0.259 OA
BRANCH  19  26
HETATM   26  O1  UNL     1      -9.683  23.292  33.092  1.00  0.00    -0.360 OA
ATOM     27  H1  UNL     1     -10.292  22.668  33.470  1.00  0.00     0.217 HD
ENDBRANCH  19  26
ENDBRANCH  17  18
ENDBRANCH  16  17
ENDBRANCH  14  16
ENDBRANCH  13  14
BRANCH  13  28
HETATM   28  O2  UNL     1      -3.321  21.940  35.117  1.00  0.00    -0.332 OA
ATOM     29  H2  UNL     1      -3.552  22.788  35.477  1.00  0.00     0.220 HD
ENDBRANCH  13  28
ENDBRANCH  11  13
BRANCH  10  30
HETATM   30  O3  UNL     1      -4.209  17.906  33.794  1.00  0.00    -0.345 OA
ATOM     31  H3  UNL     1      -3.266  17.794  33.826  1.00  0.00     0.219 HD
ENDBRANCH  10  30
ENDBRANCH   1  10
BRANCH   1  32
HETATM   32  O4  UNL     1      -6.041  19.487  36.376  1.00  0.00    -0.362 OA
ATOM     33  H4  UNL     1      -6.701  19.187  36.990  1.00  0.00     0.213 HD
ENDBRANCH   1  32
BRANCH   8  34
HETATM   34  C14 UNL     1      -8.116  17.081  33.410  1.00  0.00     0.252 C 
BRANCH  34  35
HETATM   35  N6  UNL     1      -9.054  17.968  32.767  1.00  0.00    -0.285 N 
HETATM   36  N7  UNL     1      -8.702  18.439  31.545  1.00  0.00    -0.305 N 
HETATM   37  C15 UNL     1      -9.433  19.314  30.860  1.00  0.00     0.165 A 
ATOM     38  H7  UNL     1      -7.832  18.105  31.130  1.00  0.00     0.186 HD
HETATM   39  C16 UNL     1     -10.607  19.768  31.416  1.00  0.00     0.223 A 
HETATM   40  O6  UNL     1     -11.324  20.595  30.797  1.00  0.00    -0.284 OA
HETATM   41  C17 UNL     1     -11.027  19.332  32.655  1.00  0.00     0.141 A 
HETATM   42  C18 UNL     1     -10.189  18.406  33.300  1.00  0.00     0.062 A 
HETATM   43  C19 UNL     1     -10.673  17.893  34.588  1.00  0.00     0.073 C 
BRANCH  41  44
HETATM   44  O7  UNL     1     -12.193  19.750  33.262  1.00  0.00    -0.355 OA
ATOM     45  H7  UNL     1     -13.015  19.872  32.802  1.00  0.00     0.218 HD
ENDBRANCH  41  44
ENDBRANCH  34  35
ENDBRANCH   8  34
TORSDOF 13
ENDMDL
