MODEL 1
REMARK VINA RESULT: -7.497384591      0.000      0.000
REMARK  17 active torsions:
REMARK  status: ('A' for Active; 'I' for Inactive)
REMARK    1  A    between atoms: N1_1  and  C1_5 
REMARK    2  A    between atoms: C1_5  and  C2_6 
REMARK    3  A    between atoms: C2_6  and  C3_7 
REMARK    4  A    between atoms: C3_7  and  C4_8 
REMARK    5  A    between atoms: C4_8  and  C5_9 
REMARK    6  A    between atoms: C5_9  and  C6_10 
REMARK    7  A    between atoms: C6_10  and  C7_11 
REMARK    8  A    between atoms: C7_11  and  C8_12 
REMARK    9  A    between atoms: C8_12  and  C9_13 
REMARK   10  A    between atoms: C9_13  and  N2_14 
REMARK       I    between atoms: N2_14  and  C10_16 
REMARK   11  A    between atoms: C10_16  and  C11_18 
REMARK   12  A    between atoms: C12_19  and  C13_20 
REMARK   13  A    between atoms: C13_20  and  N3_21 
REMARK   14  A    between atoms: C14_26  and  O3_27 
REMARK   15  A    between atoms: C15_29  and  O4_30 
REMARK   16  A    between atoms: C16_32  and  C17_33 
REMARK       I    between atoms: C17_33  and  N4_35 
REMARK   17  A    between atoms: N4_35  and  N5_37 
ROOT
HETATM    1  C11 UNL     1      19.190  -0.468  25.888  1.00  0.00     0.124 C 
HETATM    2  C12 UNL     1      19.347   0.061  27.297  1.00  0.00     0.164 C 
HETATM    3  O2  UNL     1      18.453   1.068  27.591  1.00  0.00    -0.351 OA
HETATM    4  C14 UNL     1      18.269   1.997  26.577  1.00  0.00     0.286 C 
HETATM    5  C15 UNL     1      17.607   1.383  25.349  1.00  0.00     0.187 C 
HETATM    6  C16 UNL     1      17.874  -0.104  25.290  1.00  0.00     0.128 C 
ENDROOT
BRANCH   1   7
HETATM    7  C10 UNL     1      20.353   0.006  25.048  1.00  0.00     0.225 C 
HETATM    8  N2  UNL     1      21.031  -0.879  24.181  1.00  0.00    -0.361 N 
ATOM      9  H2  UNL     1      20.736  -1.852  24.114  1.00  0.00     0.162 HD
HETATM   10  O1  UNL     1      20.727   1.199  25.121  1.00  0.00    -0.273 OA
BRANCH   8  11
HETATM   11  C9  UNL     1      22.138  -0.410  23.390  1.00  0.00     0.122 C 
BRANCH  11  12
HETATM   12  C8  UNL     1      21.972  -0.775  21.919  1.00  0.00     0.020 C 
BRANCH  12  13
HETATM   13  C7  UNL     1      20.887   0.049  21.297  1.00  0.00     0.002 C 
BRANCH  13  14
HETATM   14  C6  UNL     1      20.920  -0.090  19.799  1.00  0.00     0.000 C 
BRANCH  14  15
HETATM   15  C5  UNL     1      20.536   1.185  19.137  1.00  0.00     0.000 C 
BRANCH  15  16
HETATM   16  C4  UNL     1      21.714   1.700  18.302  1.00  0.00     0.000 C 
BRANCH  16  17
HETATM   17  C3  UNL     1      22.989   1.623  19.103  1.00  0.00     0.002 C 
BRANCH  17  18
HETATM   18  C2  UNL     1      23.141   2.842  19.979  1.00  0.00     0.027 C 
BRANCH  18  19
HETATM   19  C1  UNL     1      23.786   2.371  21.275  1.00  0.00     0.229 C 
BRANCH  19  20
HETATM   20  N1  UNL     1      23.037   2.903  22.407  1.00  0.00    -0.079 N 
ATOM     21  H13 UNL     1      22.083   3.159  22.153  1.00  0.00     0.274 HD
ATOM     22  H12 UNL     1      22.815   2.184  23.096  1.00  0.00     0.274 HD
ATOM     23  H11 UNL     1      23.552   3.684  22.814  1.00  0.00     0.274 HD
ENDBRANCH  19  20
ENDBRANCH  18  19
ENDBRANCH  17  18
ENDBRANCH  16  17
ENDBRANCH  15  16
ENDBRANCH  14  15
ENDBRANCH  13  14
ENDBRANCH  12  13
ENDBRANCH  11  12
ENDBRANCH   8  11
ENDBRANCH   1   7
BRANCH   2  24
HETATM   24  C13 UNL     1      19.212  -1.003  28.345  1.00  0.00     0.262 C 
BRANCH  24  25
HETATM   25  N3  UNL     1      20.403  -1.822  28.329  1.00  0.00    -0.077 N 
ATOM     26  H33 UNL     1      20.922  -1.739  27.455  1.00  0.00     0.274 HD
ATOM     27  H32 UNL     1      21.127  -1.470  28.956  1.00  0.00     0.274 HD
ATOM     28  H31 UNL     1      20.140  -2.785  28.538  1.00  0.00     0.274 HD
ENDBRANCH  24  25
ENDBRANCH   2  24
BRANCH   6  29
HETATM   29  C17 UNL     1      17.757  -0.581  23.909  1.00  0.00     0.243 C 
HETATM   30  O5  UNL     1      18.098  -1.768  23.614  1.00  0.00    -0.271 OA
HETATM   31  N4  UNL     1      17.273   0.196  22.821  1.00  0.00    -0.276 N 
ATOM     32  H4  UNL     1      16.984   1.157  23.005  1.00  0.00     0.189 HD
BRANCH  31  33
HETATM   33  N5  UNL     1      17.171  -0.282  21.523  1.00  0.00    -0.343 N 
ATOM     34  H52 UNL     1      17.089  -1.291  21.403  1.00  0.00     0.176 HD
ATOM     35  H51 UNL     1      17.176   0.320  20.699  1.00  0.00     0.176 HD
ENDBRANCH  31  33
ENDBRANCH   6  29
BRANCH   5  36
HETATM   36  O4  UNL     1      16.227   1.544  25.476  1.00  0.00    -0.390 OA
ATOM     37  H4  UNL     1      15.910   0.891  26.089  1.00  0.00     0.210 HD
ENDBRANCH   5  36
BRANCH   4  38
HETATM   38  O3  UNL     1      17.396   2.969  27.064  1.00  0.00    -0.369 OA
ATOM     39  H3  UNL     1      17.801   3.814  26.906  1.00  0.00     0.212 HD
ENDBRANCH   4  38
TORSDOF 17
ENDMDL
MODEL 2
REMARK VINA RESULT: -7.482622146      1.364      1.963
REMARK  17 active torsions:
REMARK  status: ('A' for Active; 'I' for Inactive)
REMARK    1  A    between atoms: N1_1  and  C1_5 
REMARK    2  A    between atoms: C1_5  and  C2_6 
REMARK    3  A    between atoms: C2_6  and  C3_7 
REMARK    4  A    between atoms: C3_7  and  C4_8 
REMARK    5  A    between atoms: C4_8  and  C5_9 
REMARK    6  A    between atoms: C5_9  and  C6_10 
REMARK    7  A    between atoms: C6_10  and  C7_11 
REMARK    8  A    between atoms: C7_11  and  C8_12 
REMARK    9  A    between atoms: C8_12  and  C9_13 
REMARK   10  A    between atoms: C9_13  and  N2_14 
REMARK       I    between atoms: N2_14  and  C10_16 
REMARK   11  A    between atoms: C10_16  and  C11_18 
REMARK   12  A    between atoms: C12_19  and  C13_20 
REMARK   13  A    between atoms: C13_20  and  N3_21 
REMARK   14  A    between atoms: C14_26  and  O3_27 
REMARK   15  A    between atoms: C15_29  and  O4_30 
REMARK   16  A    between atoms: C16_32  and  C17_33 
REMARK       I    between atoms: C17_33  and  N4_35 
REMARK   17  A    between atoms: N4_35  and  N5_37 
ROOT
HETATM    1  C11 UNL     1      19.070  -0.383  26.160  1.00  0.00     0.124 C 
HETATM    2  C12 UNL     1      19.515   0.547  27.267  1.00  0.00     0.164 C 
HETATM    3  O2  UNL     1      18.693   1.645  27.404  1.00  0.00    -0.351 OA
HETATM    4  C14 UNL     1      18.290   2.223  26.208  1.00  0.00     0.286 C 
HETATM    5  C15 UNL     1      17.390   1.296  25.398  1.00  0.00     0.187 C 
HETATM    6  C16 UNL     1      17.654  -0.149  25.759  1.00  0.00     0.128 C 
ENDROOT
BRANCH   1   7
HETATM    7  C10 UNL     1      20.024  -0.260  24.995  1.00  0.00     0.225 C 
HETATM    8  N2  UNL     1      20.302  -1.368  24.164  1.00  0.00    -0.361 N 
ATOM      9  H2  UNL     1      19.855  -2.266  24.346  1.00  0.00     0.162 HD
HETATM   10  O1  UNL     1      20.581   0.837  24.760  1.00  0.00    -0.273 OA
BRANCH   8  11
HETATM   11  C9  UNL     1      21.216  -1.233  23.060  1.00  0.00     0.122 C 
BRANCH  11  12
HETATM   12  C8  UNL     1      22.659  -1.464  23.494  1.00  0.00     0.020 C 
BRANCH  12  13
HETATM   13  C7  UNL     1      23.584  -0.571  22.727  1.00  0.00     0.002 C 
BRANCH  13  14
HETATM   14  C6  UNL     1      22.802   0.303  21.782  1.00  0.00     0.000 C 
BRANCH  14  15
HETATM   15  C5  UNL     1      23.151   1.735  21.970  1.00  0.00     0.000 C 
BRANCH  15  16
HETATM   16  C4  UNL     1      23.471   2.364  20.608  1.00  0.00     0.000 C 
BRANCH  16  17
HETATM   17  C3  UNL     1      23.099   1.412  19.500  1.00  0.00     0.002 C 
BRANCH  17  18
HETATM   18  C2  UNL     1      22.201   2.091  18.495  1.00  0.00     0.027 C 
BRANCH  18  19
HETATM   19  C1  UNL     1      20.844   1.406  18.590  1.00  0.00     0.229 C 
BRANCH  19  20
HETATM   20  N1  UNL     1      21.039  -0.021  18.809  1.00  0.00    -0.079 N 
ATOM     21  H13 UNL     1      20.591  -0.588  18.089  1.00  0.00     0.274 HD
ATOM     22  H12 UNL     1      22.003  -0.311  18.641  1.00  0.00     0.274 HD
ATOM     23  H11 UNL     1      20.720  -0.265  19.747  1.00  0.00     0.274 HD
ENDBRANCH  19  20
ENDBRANCH  18  19
ENDBRANCH  17  18
ENDBRANCH  16  17
ENDBRANCH  15  16
ENDBRANCH  14  15
ENDBRANCH  13  14
ENDBRANCH  12  13
ENDBRANCH  11  12
ENDBRANCH   8  11
ENDBRANCH   1   7
BRANCH   2  24
HETATM   24  C13 UNL     1      19.616  -0.129  28.601  1.00  0.00     0.262 C 
BRANCH  24  25
HETATM   25  N3  UNL     1      19.784  -1.548  28.389  1.00  0.00    -0.077 N 
ATOM     26  H33 UNL     1      18.927  -2.000  28.071  1.00  0.00     0.274 HD
ATOM     27  H32 UNL     1      20.363  -1.755  27.575  1.00  0.00     0.274 HD
ATOM     28  H31 UNL     1      20.151  -1.965  29.245  1.00  0.00     0.274 HD
ENDBRANCH  24  25
ENDBRANCH   2  24
BRANCH   6  29
HETATM   29  C17 UNL     1      17.252  -1.023  24.653  1.00  0.00     0.243 C 
HETATM   30  O5  UNL     1      17.251  -2.284  24.807  1.00  0.00    -0.271 OA
HETATM   31  N4  UNL     1      16.844  -0.571  23.368  1.00  0.00    -0.276 N 
ATOM     32  H4  UNL     1      16.826   0.433  23.193  1.00  0.00     0.189 HD
BRANCH  31  33
HETATM   33  N5  UNL     1      16.468  -1.423  22.340  1.00  0.00    -0.343 N 
ATOM     34  H52 UNL     1      17.150  -2.118  22.039  1.00  0.00     0.176 HD
ATOM     35  H51 UNL     1      15.558  -1.384  21.881  1.00  0.00     0.176 HD
ENDBRANCH  31  33
ENDBRANCH   6  29
BRANCH   5  36
HETATM   36  O4  UNL     1      16.066   1.566  25.747  1.00  0.00    -0.390 OA
ATOM     37  H4  UNL     1      15.701   2.146  25.089  1.00  0.00     0.210 HD
ENDBRANCH   5  36
BRANCH   4  38
HETATM   38  O3  UNL     1      17.529   3.346  26.530  1.00  0.00    -0.369 OA
ATOM     39  H3  UNL     1      16.982   3.539  25.778  1.00  0.00     0.212 HD
ENDBRANCH   4  38
TORSDOF 17
ENDMDL
MODEL 3
REMARK VINA RESULT: -7.423644578      1.012      1.081
REMARK  17 active torsions:
REMARK  status: ('A' for Active; 'I' for Inactive)
REMARK    1  A    between atoms: N1_1  and  C1_5 
REMARK    2  A    between atoms: C1_5  and  C2_6 
REMARK    3  A    between atoms: C2_6  and  C3_7 
REMARK    4  A    between atoms: C3_7  and  C4_8 
REMARK    5  A    between atoms: C4_8  and  C5_9 
REMARK    6  A    between atoms: C5_9  and  C6_10 
REMARK    7  A    between atoms: C6_10  and  C7_11 
REMARK    8  A    between atoms: C7_11  and  C8_12 
REMARK    9  A    between atoms: C8_12  and  C9_13 
REMARK   10  A    between atoms: C9_13  and  N2_14 
REMARK       I    between atoms: N2_14  and  C10_16 
REMARK   11  A    between atoms: C10_16  and  C11_18 
REMARK   12  A    between atoms: C12_19  and  C13_20 
REMARK   13  A    between atoms: C13_20  and  N3_21 
REMARK   14  A    between atoms: C14_26  and  O3_27 
REMARK   15  A    between atoms: C15_29  and  O4_30 
REMARK   16  A    between atoms: C16_32  and  C17_33 
REMARK       I    between atoms: C17_33  and  N4_35 
REMARK   17  A    between atoms: N4_35  and  N5_37 
ROOT
HETATM    1  C11 UNL     1      18.947  -0.338  26.288  1.00  0.00     0.124 C 
HETATM    2  C12 UNL     1      19.417   0.638  27.344  1.00  0.00     0.164 C 
HETATM    3  O2  UNL     1      18.625   1.762  27.422  1.00  0.00    -0.351 OA
HETATM    4  C14 UNL     1      18.236   2.286  26.197  1.00  0.00     0.286 C 
HETATM    5  C15 UNL     1      17.312   1.342  25.436  1.00  0.00     0.187 C 
HETATM    6  C16 UNL     1      17.537  -0.088  25.874  1.00  0.00     0.128 C 
ENDROOT
BRANCH   1   7
HETATM    7  C10 UNL     1      19.904  -0.303  25.119  1.00  0.00     0.225 C 
HETATM    8  N2  UNL     1      19.943  -1.357  24.180  1.00  0.00    -0.361 N 
ATOM      9  H2  UNL     1      19.319  -2.156  24.286  1.00  0.00     0.162 HD
HETATM   10  O1  UNL     1      20.677   0.673  24.978  1.00  0.00    -0.273 OA
BRANCH   8  11
HETATM   11  C9  UNL     1      20.863  -1.307  23.074  1.00  0.00     0.122 C 
BRANCH  11  12
HETATM   12  C8  UNL     1      20.582  -0.116  22.165  1.00  0.00     0.020 C 
BRANCH  12  13
HETATM   13  C7  UNL     1      19.295  -0.316  21.426  1.00  0.00     0.002 C 
BRANCH  13  14
HETATM   14  C6  UNL     1      19.445   0.112  19.991  1.00  0.00     0.000 C 
BRANCH  14  15
HETATM   15  C5  UNL     1      20.878   0.278  19.632  1.00  0.00     0.000 C 
BRANCH  15  16
HETATM   16  C4  UNL     1      21.015   1.393  18.587  1.00  0.00     0.000 C 
BRANCH  16  17
HETATM   17  C3  UNL     1      22.314   2.130  18.787  1.00  0.00     0.002 C 
BRANCH  17  18
HETATM   18  C2  UNL     1      23.128   1.487  19.882  1.00  0.00     0.027 C 
BRANCH  18  19
HETATM   19  C1  UNL     1      23.582   2.609  20.806  1.00  0.00     0.229 C 
BRANCH  19  20
HETATM   20  N1  UNL     1      23.226   2.275  22.179  1.00  0.00    -0.079 N 
ATOM     21  H13 UNL     1      23.022   1.283  22.296  1.00  0.00     0.274 HD
ATOM     22  H12 UNL     1      24.025   2.333  22.811  1.00  0.00     0.274 HD
ATOM     23  H11 UNL     1      22.451   2.867  22.480  1.00  0.00     0.274 HD
ENDBRANCH  19  20
ENDBRANCH  18  19
ENDBRANCH  17  18
ENDBRANCH  16  17
ENDBRANCH  15  16
ENDBRANCH  14  15
ENDBRANCH  13  14
ENDBRANCH  12  13
ENDBRANCH  11  12
ENDBRANCH   8  11
ENDBRANCH   1   7
BRANCH   2  24
HETATM   24  C13 UNL     1      19.501   0.031  28.713  1.00  0.00     0.262 C 
BRANCH  24  25
HETATM   25  N3  UNL     1      19.664  -1.399  28.576  1.00  0.00    -0.077 N 
ATOM     26  H33 UNL     1      18.951  -1.924  29.083  1.00  0.00     0.274 HD
ATOM     27  H32 UNL     1      19.441  -1.728  27.637  1.00  0.00     0.274 HD
ATOM     28  H31 UNL     1      20.610  -1.648  28.863  1.00  0.00     0.274 HD
ENDBRANCH  24  25
ENDBRANCH   2  24
BRANCH   6  29
HETATM   29  C17 UNL     1      17.112  -1.009  24.815  1.00  0.00     0.243 C 
HETATM   30  O5  UNL     1      17.201  -2.264  24.991  1.00  0.00    -0.271 OA
HETATM   31  N4  UNL     1      16.585  -0.611  23.556  1.00  0.00    -0.276 N 
ATOM     32  H4  UNL     1      16.493   0.387  23.366  1.00  0.00     0.189 HD
BRANCH  31  33
HETATM   33  N5  UNL     1      16.190  -1.506  22.573  1.00  0.00    -0.343 N 
ATOM     34  H52 UNL     1      16.706  -2.382  22.507  1.00  0.00     0.176 HD
ATOM     35  H51 UNL     1      15.421  -1.329  21.926  1.00  0.00     0.176 HD
ENDBRANCH  31  33
ENDBRANCH   6  29
BRANCH   5  36
HETATM   36  O4  UNL     1      15.995   1.665  25.769  1.00  0.00    -0.390 OA
ATOM     37  H4  UNL     1      15.509   0.855  25.866  1.00  0.00     0.210 HD
ENDBRANCH   5  36
BRANCH   4  38
HETATM   38  O3  UNL     1      17.505   3.445  26.458  1.00  0.00    -0.369 OA
ATOM     39  H3  UNL     1      16.796   3.477  25.827  1.00  0.00     0.212 HD
ENDBRANCH   4  38
TORSDOF 17
ENDMDL
MODEL 4
REMARK VINA RESULT: -7.368631069      2.248      3.576
REMARK  17 active torsions:
REMARK  status: ('A' for Active; 'I' for Inactive)
REMARK    1  A    between atoms: N1_1  and  C1_5 
REMARK    2  A    between atoms: C1_5  and  C2_6 
REMARK    3  A    between atoms: C2_6  and  C3_7 
REMARK    4  A    between atoms: C3_7  and  C4_8 
REMARK    5  A    between atoms: C4_8  and  C5_9 
REMARK    6  A    between atoms: C5_9  and  C6_10 
REMARK    7  A    between atoms: C6_10  and  C7_11 
REMARK    8  A    between atoms: C7_11  and  C8_12 
REMARK    9  A    between atoms: C8_12  and  C9_13 
REMARK   10  A    between atoms: C9_13  and  N2_14 
REMARK       I    between atoms: N2_14  and  C10_16 
REMARK   11  A    between atoms: C10_16  and  C11_18 
REMARK   12  A    between atoms: C12_19  and  C13_20 
REMARK   13  A    between atoms: C13_20  and  N3_21 
REMARK   14  A    between atoms: C14_26  and  O3_27 
REMARK   15  A    between atoms: C15_29  and  O4_30 
REMARK   16  A    between atoms: C16_32  and  C17_33 
REMARK       I    between atoms: C17_33  and  N4_35 
REMARK   17  A    between atoms: N4_35  and  N5_37 
ROOT
HETATM    1  C11 UNL     1      17.186  -0.443  25.449  1.00  0.00     0.124 C 
HETATM    2  C12 UNL     1      16.959  -1.872  25.892  1.00  0.00     0.164 C 
HETATM    3  O2  UNL     1      17.047  -2.027  27.258  1.00  0.00    -0.351 OA
HETATM    4  C14 UNL     1      18.087  -1.329  27.857  1.00  0.00     0.286 C 
HETATM    5  C15 UNL     1      17.899   0.180  27.756  1.00  0.00     0.187 C 
HETATM    6  C16 UNL     1      17.030   0.528  26.568  1.00  0.00     0.128 C 
ENDROOT
BRANCH   1   7
HETATM    7  C10 UNL     1      18.537  -0.339  24.781  1.00  0.00     0.225 C 
HETATM    8  N2  UNL     1      19.695  -0.862  25.400  1.00  0.00    -0.361 N 
ATOM      9  H2  UNL     1      19.624  -1.317  26.310  1.00  0.00     0.162 HD
HETATM   10  O1  UNL     1      18.639   0.218  23.664  1.00  0.00    -0.273 OA
BRANCH   8  11
HETATM   11  C9  UNL     1      20.974  -0.753  24.750  1.00  0.00     0.122 C 
BRANCH  11  12
HETATM   12  C8  UNL     1      21.188  -1.875  23.741  1.00  0.00     0.020 C 
BRANCH  12  13
HETATM   13  C7  UNL     1      22.000  -1.386  22.582  1.00  0.00     0.002 C 
BRANCH  13  14
HETATM   14  C6  UNL     1      22.015   0.119  22.553  1.00  0.00     0.000 C 
BRANCH  14  15
HETATM   15  C5  UNL     1      22.195   0.624  21.167  1.00  0.00     0.000 C 
BRANCH  15  16
HETATM   16  C4  UNL     1      20.918   0.364  20.360  1.00  0.00     0.000 C 
BRANCH  16  17
HETATM   17  C3  UNL     1      21.188   0.555  18.890  1.00  0.00     0.002 C 
BRANCH  17  18
HETATM   18  C2  UNL     1      21.871   1.878  18.642  1.00  0.00     0.027 C 
BRANCH  18  19
HETATM   19  C1  UNL     1      21.397   2.367  17.280  1.00  0.00     0.229 C 
BRANCH  19  20
HETATM   20  N1  UNL     1      22.206   3.507  16.870  1.00  0.00    -0.079 N 
ATOM     21  H13 UNL     1      22.395   4.145  17.642  1.00  0.00     0.274 HD
ATOM     22  H12 UNL     1      23.169   3.243  16.661  1.00  0.00     0.274 HD
ATOM     23  H11 UNL     1      21.754   3.975  16.083  1.00  0.00     0.274 HD
ENDBRANCH  19  20
ENDBRANCH  18  19
ENDBRANCH  17  18
ENDBRANCH  16  17
ENDBRANCH  15  16
ENDBRANCH  14  15
ENDBRANCH  13  14
ENDBRANCH  12  13
ENDBRANCH  11  12
ENDBRANCH   8  11
ENDBRANCH   1   7
BRANCH   2  24
HETATM   24  C13 UNL     1      15.640  -2.427  25.443  1.00  0.00     0.262 C 
BRANCH  24  25
HETATM   25  N3  UNL     1      15.566  -2.337  24.003  1.00  0.00    -0.077 N 
ATOM     26  H33 UNL     1      14.718  -2.761  23.628  1.00  0.00     0.274 HD
ATOM     27  H32 UNL     1      15.401  -1.383  23.680  1.00  0.00     0.274 HD
ATOM     28  H31 UNL     1      16.414  -2.742  23.606  1.00  0.00     0.274 HD
ENDBRANCH  24  25
ENDBRANCH   2  24
BRANCH   6  29
HETATM   29  C17 UNL     1      17.301   1.902  26.134  1.00  0.00     0.243 C 
HETATM   30  O5  UNL     1      18.034   2.660  26.843  1.00  0.00    -0.271 OA
HETATM   31  N4  UNL     1      16.800   2.490  24.941  1.00  0.00    -0.276 N 
ATOM     32  H4  UNL     1      16.207   1.923  24.336  1.00  0.00     0.189 HD
BRANCH  31  33
HETATM   33  N5  UNL     1      17.074   3.794  24.555  1.00  0.00    -0.343 N 
ATOM     34  H52 UNL     1      17.859   4.259  25.010  1.00  0.00     0.176 HD
ATOM     35  H51 UNL     1      16.535   4.298  23.850  1.00  0.00     0.176 HD
ENDBRANCH  31  33
ENDBRANCH   6  29
BRANCH   5  36
HETATM   36  O4  UNL     1      17.219   0.608  28.897  1.00  0.00    -0.390 OA
ATOM     37  H4  UNL     1      16.624   1.303  28.640  1.00  0.00     0.210 HD
ENDBRANCH   5  36
BRANCH   4  38
HETATM   38  O3  UNL     1      18.068  -1.650  29.214  1.00  0.00    -0.369 OA
ATOM     39  H3  UNL     1      18.232  -2.583  29.284  1.00  0.00     0.212 HD
ENDBRANCH   4  38
TORSDOF 17
ENDMDL
MODEL 5
REMARK VINA RESULT: -7.265907478      1.643      3.432
REMARK  17 active torsions:
REMARK  status: ('A' for Active; 'I' for Inactive)
REMARK    1  A    between atoms: N1_1  and  C1_5 
REMARK    2  A    between atoms: C1_5  and  C2_6 
REMARK    3  A    between atoms: C2_6  and  C3_7 
REMARK    4  A    between atoms: C3_7  and  C4_8 
REMARK    5  A    between atoms: C4_8  and  C5_9 
REMARK    6  A    between atoms: C5_9  and  C6_10 
REMARK    7  A    between atoms: C6_10  and  C7_11 
REMARK    8  A    between atoms: C7_11  and  C8_12 
REMARK    9  A    between atoms: C8_12  and  C9_13 
REMARK   10  A    between atoms: C9_13  and  N2_14 
REMARK       I    between atoms: N2_14  and  C10_16 
REMARK   11  A    between atoms: C10_16  and  C11_18 
REMARK   12  A    between atoms: C12_19  and  C13_20 
REMARK   13  A    between atoms: C13_20  and  N3_21 
REMARK   14  A    between atoms: C14_26  and  O3_27 
REMARK   15  A    between atoms: C15_29  and  O4_30 
REMARK   16  A    between atoms: C16_32  and  C17_33 
REMARK       I    between atoms: C17_33  and  N4_35 
REMARK   17  A    between atoms: N4_35  and  N5_37 
ROOT
HETATM    1  C11 UNL     1      18.346   0.656  25.540  1.00  0.00     0.124 C 
HETATM    2  C12 UNL     1      17.282   0.927  26.582  1.00  0.00     0.164 C 
HETATM    3  O2  UNL     1      17.519   0.271  27.770  1.00  0.00    -0.351 OA
HETATM    4  C14 UNL     1      17.962  -1.037  27.635  1.00  0.00     0.286 C 
HETATM    5  C15 UNL     1      19.341  -1.113  26.990  1.00  0.00     0.187 C 
HETATM    6  C16 UNL     1      19.597   0.110  26.138  1.00  0.00     0.128 C 
ENDROOT
BRANCH   1   7
HETATM    7  C10 UNL     1      17.776  -0.250  24.474  1.00  0.00     0.225 C 
HETATM    8  N2  UNL     1      18.033  -0.012  23.105  1.00  0.00    -0.361 N 
ATOM      9  H2  UNL     1      18.611   0.780  22.827  1.00  0.00     0.162 HD
HETATM   10  O1  UNL     1      17.063  -1.226  24.803  1.00  0.00    -0.273 OA
BRANCH   8  11
HETATM   11  C9  UNL     1      17.480  -0.885  22.103  1.00  0.00     0.122 C 
BRANCH  11  12
HETATM   12  C8  UNL     1      17.922  -0.480  20.701  1.00  0.00     0.020 C 
BRANCH  12  13
HETATM   13  C7  UNL     1      19.367  -0.087  20.704  1.00  0.00     0.002 C 
BRANCH  13  14
HETATM   14  C6  UNL     1      19.722   0.605  19.415  1.00  0.00     0.000 C 
BRANCH  14  15
HETATM   15  C5  UNL     1      21.176   0.484  19.129  1.00  0.00     0.000 C 
BRANCH  15  16
HETATM   16  C4  UNL     1      21.633   1.687  18.296  1.00  0.00     0.000 C 
BRANCH  16  17
HETATM   17  C3  UNL     1      22.694   2.457  19.039  1.00  0.00     0.002 C 
BRANCH  17  18
HETATM   18  C2  UNL     1      23.424   1.558  20.007  1.00  0.00     0.027 C 
BRANCH  18  19
HETATM   19  C1  UNL     1      23.589   2.348  21.298  1.00  0.00     0.229 C 
BRANCH  19  20
HETATM   20  N1  UNL     1      22.790   1.728  22.347  1.00  0.00    -0.079 N 
ATOM     21  H13 UNL     1      21.820   1.588  22.063  1.00  0.00     0.274 HD
ATOM     22  H12 UNL     1      23.039   0.750  22.497  1.00  0.00     0.274 HD
ATOM     23  H11 UNL     1      22.866   2.282  23.201  1.00  0.00     0.274 HD
ENDBRANCH  19  20
ENDBRANCH  18  19
ENDBRANCH  17  18
ENDBRANCH  16  17
ENDBRANCH  15  16
ENDBRANCH  14  15
ENDBRANCH  13  14
ENDBRANCH  12  13
ENDBRANCH  11  12
ENDBRANCH   8  11
ENDBRANCH   1   7
BRANCH   2  24
HETATM   24  C13 UNL     1      17.106   2.386  26.881  1.00  0.00     0.262 C 
BRANCH  24  25
HETATM   25  N3  UNL     1      17.419   3.143  25.691  1.00  0.00    -0.077 N 
ATOM     26  H33 UNL     1      18.274   2.822  25.237  1.00  0.00     0.274 HD
ATOM     27  H32 UNL     1      16.773   2.951  24.925  1.00  0.00     0.274 HD
ATOM     28  H31 UNL     1      17.454   4.133  25.933  1.00  0.00     0.274 HD
ENDBRANCH  24  25
ENDBRANCH   2  24
BRANCH   6  29
HETATM   29  C17 UNL     1      20.599  -0.193  25.113  1.00  0.00     0.243 C 
HETATM   30  O5  UNL     1      20.921   0.689  24.258  1.00  0.00    -0.271 OA
HETATM   31  N4  UNL     1      21.276  -1.437  24.983  1.00  0.00    -0.276 N 
ATOM     32  H4  UNL     1      21.054  -2.179  25.646  1.00  0.00     0.189 HD
BRANCH  31  33
HETATM   33  N5  UNL     1      22.222  -1.696  24.002  1.00  0.00    -0.343 N 
ATOM     34  H52 UNL     1      22.116  -1.208  23.113  1.00  0.00     0.176 HD
ATOM     35  H51 UNL     1      23.003  -2.339  24.128  1.00  0.00     0.176 HD
ENDBRANCH  31  33
ENDBRANCH   6  29
BRANCH   5  36
HETATM   36  O4  UNL     1      20.295  -1.106  28.009  1.00  0.00    -0.390 OA
ATOM     37  H4  UNL     1      20.862  -1.857  27.885  1.00  0.00     0.210 HD
ENDBRANCH   5  36
BRANCH   4  38
HETATM   38  O3  UNL     1      18.086  -1.564  28.920  1.00  0.00    -0.369 OA
ATOM     39  H3  UNL     1      17.226  -1.525  29.322  1.00  0.00     0.212 HD
ENDBRANCH   4  38
TORSDOF 17
ENDMDL
