MODEL 1
REMARK VINA RESULT: -6.246460800      0.000      0.000
REMARK  14 active torsions:
REMARK  status: ('A' for Active; 'I' for Inactive)
REMARK       I    between atoms: C2_2  and  N1_4 
REMARK    1  A    between atoms: N1_4  and  C3_6 
REMARK    2  A    between atoms: C3_6  and  C4_7 
REMARK    3  A    between atoms: C3_6  and  C6_19 
REMARK    4  A    between atoms: C4_7  and  O2_8 
REMARK    5  A    between atoms: C4_7  and  C5_10 
REMARK    6  A    between atoms: C5_10  and  N2_11 
REMARK    7  A    between atoms: C5_10  and  N3_15 
REMARK    8  A    between atoms: N3_15  and  N4_16 
REMARK    9  A    between atoms: C7_20  and  O3_21 
REMARK   10  A    between atoms: C8_23  and  N5_24 
REMARK   11  A    between atoms: C10_29  and  N8_30 
REMARK   12  A    between atoms: C11_35  and  N10_36 
REMARK   13  A    between atoms: C13_43  and  O5_44 
REMARK   14  A    between atoms: C13_43  and  O6_46 
ROOT
HETATM    1  C6  UNL     1      30.966  11.172   9.849  1.00  0.00     0.137 C 
HETATM    2  C7  UNL     1      32.329  11.764  10.119  1.00  0.00     0.182 C 
HETATM    3  C8  UNL     1      32.259  11.730  11.659  1.00  0.00     0.282 C 
HETATM    4  O4  UNL     1      31.679  10.505  11.959  1.00  0.00    -0.304 OA
HETATM    5  C13 UNL     1      30.917  10.093  10.882  1.00  0.00     0.288 C 
ENDROOT
BRANCH   1   6
HETATM    6  C3  UNL     1      30.674  10.799   8.462  1.00  0.00     0.131 C 
BRANCH   6   7
HETATM    7  N1  UNL     1      31.748  10.360   7.644  1.00  0.00    -0.353 N 
HETATM    8  C2  UNL     1      31.620   9.308   6.673  1.00  0.00     0.214 C 
HETATM    9  C1  UNL     1      32.763   8.872   5.831  1.00  0.00     0.117 C 
HETATM   10  O1  UNL     1      30.528   8.703   6.486  1.00  0.00    -0.274 OA
ATOM     11  H1  UNL     1      32.656  10.813   7.750  1.00  0.00     0.163 HD
ENDBRANCH   6   7
BRANCH   6  12
HETATM   12  C4  UNL     1      29.897  11.952   7.831  1.00  0.00     0.189 C 
BRANCH  12  13
HETATM   13  O2  UNL     1      28.890  12.306   8.695  1.00  0.00    -0.390 OA
ATOM     14  H2  UNL     1      29.147  12.037   9.569  1.00  0.00     0.210 HD
ENDBRANCH  12  13
BRANCH  12  15
HETATM   15  C5  UNL     1      29.299  11.606   6.506  1.00  0.00     0.325 C 
BRANCH  15  16
HETATM   16  N2  UNL     1      27.924  12.000   6.359  1.00  0.00    -0.057 N 
ATOM     17  H23 UNL     1      27.409  11.826   7.222  1.00  0.00     0.276 HD
ATOM     18  H22 UNL     1      27.847  13.016   6.313  1.00  0.00     0.276 HD
ATOM     19  H21 UNL     1      27.448  11.570   5.567  1.00  0.00     0.276 HD
ENDBRANCH  15  16
BRANCH  15  20
HETATM   20  N3  UNL     1      30.063  12.310   5.492  1.00  0.00    -0.112 NA
BRANCH  20  21
HETATM   21  N4  UNL     1      29.245  13.152   4.727  1.00  0.00    -0.346 N 
ATOM     22  H42 UNL     1      29.251  13.167   3.707  1.00  0.00     0.172 HD
ATOM     23  H41 UNL     1      28.654  13.737   5.318  1.00  0.00     0.172 HD
ENDBRANCH  20  21
ENDBRANCH  15  20
ENDBRANCH  12  15
ENDBRANCH   6  12
ENDBRANCH   1   6
BRANCH   2  24
HETATM   24  O3  UNL     1      33.382  10.961   9.755  1.00  0.00    -0.390 OA
ATOM     25  H3  UNL     1      33.205  10.385   9.020  1.00  0.00     0.210 HD
ENDBRANCH   2  24
BRANCH   5  26
HETATM   26  O5  UNL     1      29.585   9.895  11.247  1.00  0.00    -0.343 OA
ATOM     27  H5  UNL     1      29.392  10.456  11.989  1.00  0.00     0.215 HD
ENDBRANCH   5  26
BRANCH   5  28
HETATM   28  O6  UNL     1      31.435   8.880  10.442  1.00  0.00    -0.343 OA
ATOM     29  H6  UNL     1      31.802   8.919   9.567  1.00  0.00     0.215 HD
ENDBRANCH   5  28
BRANCH   3  30
HETATM   30  N5  UNL     1      33.546  11.924  12.254  1.00  0.00    -0.145 N 
HETATM   31  C9  UNL     1      34.265  13.038  12.444  1.00  0.00     0.222 A 
HETATM   32  N6  UNL     1      35.424  12.720  13.049  1.00  0.00    -0.259 N 
HETATM   33  N7  UNL     1      35.461  11.424  13.249  1.00  0.00     0.092 N 
ATOM     34  H6  UNL     1      36.156  13.382  13.309  1.00  0.00     0.189 HD
HETATM   35  C10 UNL     1      36.395  10.640  13.811  1.00  0.00     0.727 A 
HETATM   36  C12 UNL     1      34.301  10.917  12.760  1.00  0.00     0.738 A 
HETATM   37  N9  UNL     1      36.172   9.318  13.890  1.00  0.00    -0.020 N 
HETATM   38  C11 UNL     1      35.010   8.797  13.402  1.00  0.00     0.705 A 
ATOM     39  H9  UNL     1      36.869   8.705  14.314  1.00  0.00     0.203 HD
HETATM   40  N11 UNL     1      34.081   9.599  12.840  1.00  0.00    -0.019 N 
ATOM     41  H11 UNL     1      33.214   9.202  12.477  1.00  0.00     0.203 HD
BRANCH  35  42
HETATM   42  N8  UNL     1      37.506  11.085  14.286  1.00  0.00    -0.232 N 
ATOM     43  H82 UNL     1      37.573  12.086  14.466  1.00  0.00     0.174 HD
ATOM     44  H81 UNL     1      38.311  10.492  14.486  1.00  0.00     0.174 HD
ENDBRANCH  35  42
BRANCH  38  45
HETATM   45  N10 UNL     1      34.843   7.518  13.501  1.00  0.00    -0.234 N 
ATOM     46 2H10 UNL     1      34.034   7.046  13.097  1.00  0.00     0.174 HD
ATOM     47 1H10 UNL     1      35.556   6.988  14.002  1.00  0.00     0.174 HD
ENDBRANCH  38  45
ENDBRANCH   3  30
TORSDOF 14
ENDMDL
MODEL 2
REMARK VINA RESULT: -6.091463876      2.434      7.700
REMARK  14 active torsions:
REMARK  status: ('A' for Active; 'I' for Inactive)
REMARK       I    between atoms: C2_2  and  N1_4 
REMARK    1  A    between atoms: N1_4  and  C3_6 
REMARK    2  A    between atoms: C3_6  and  C4_7 
REMARK    3  A    between atoms: C3_6  and  C6_19 
REMARK    4  A    between atoms: C4_7  and  O2_8 
REMARK    5  A    between atoms: C4_7  and  C5_10 
REMARK    6  A    between atoms: C5_10  and  N2_11 
REMARK    7  A    between atoms: C5_10  and  N3_15 
REMARK    8  A    between atoms: N3_15  and  N4_16 
REMARK    9  A    between atoms: C7_20  and  O3_21 
REMARK   10  A    between atoms: C8_23  and  N5_24 
REMARK   11  A    between atoms: C10_29  and  N8_30 
REMARK   12  A    between atoms: C11_35  and  N10_36 
REMARK   13  A    between atoms: C13_43  and  O5_44 
REMARK   14  A    between atoms: C13_43  and  O6_46 
ROOT
HETATM    1  C6  UNL     1      34.917   8.982  10.780  1.00  0.00     0.137 C 
HETATM    2  C7  UNL     1      34.503   9.584   9.458  1.00  0.00     0.182 C 
HETATM    3  C8  UNL     1      33.317   8.641   9.173  1.00  0.00     0.282 C 
HETATM    4  O4  UNL     1      32.675   8.502  10.396  1.00  0.00    -0.304 OA
HETATM    5  C13 UNL     1      33.583   8.740  11.410  1.00  0.00     0.288 C 
ENDROOT
BRANCH   1   6
HETATM    6  C3  UNL     1      35.912   9.726  11.558  1.00  0.00     0.131 C 
BRANCH   6   7
HETATM    7  N1  UNL     1      36.644  10.753  10.907  1.00  0.00    -0.353 N 
HETATM    8  C2  UNL     1      37.009  11.987  11.546  1.00  0.00     0.214 C 
HETATM    9  C1  UNL     1      37.778  13.042  10.837  1.00  0.00     0.117 C 
HETATM   10  O1  UNL     1      36.697  12.236  12.744  1.00  0.00    -0.274 OA
ATOM     11  H1  UNL     1      36.924  10.608   9.937  1.00  0.00     0.163 HD
ENDBRANCH   6   7
BRANCH   6  12
HETATM   12  C4  UNL     1      36.821   8.704  12.236  1.00  0.00     0.189 C 
BRANCH  12  13
HETATM   13  O2  UNL     1      36.508   7.464  11.737  1.00  0.00    -0.390 OA
ATOM     14  H2  UNL     1      35.633   7.243  12.031  1.00  0.00     0.210 HD
ENDBRANCH  12  13
BRANCH  12  15
HETATM   15  C5  UNL     1      36.674   8.679  13.723  1.00  0.00     0.325 C 
BRANCH  15  16
HETATM   16  N2  UNL     1      35.651   9.552  14.230  1.00  0.00    -0.057 N 
ATOM     17  H23 UNL     1      36.030  10.481  14.408  1.00  0.00     0.276 HD
ATOM     18  H22 UNL     1      34.978   9.777  13.496  1.00  0.00     0.276 HD
ATOM     19  H21 UNL     1      35.171   9.198  15.057  1.00  0.00     0.276 HD
ENDBRANCH  15  16
BRANCH  15  20
HETATM   20  N3  UNL     1      36.312   7.323  14.096  1.00  0.00    -0.112 NA
BRANCH  20  21
HETATM   21  N4  UNL     1      35.072   7.284  14.747  1.00  0.00    -0.346 N 
ATOM     22  H42 UNL     1      34.627   8.105  15.158  1.00  0.00     0.172 HD
ATOM     23  H41 UNL     1      34.683   6.341  14.754  1.00  0.00     0.172 HD
ENDBRANCH  20  21
ENDBRANCH  15  20
ENDBRANCH  12  15
ENDBRANCH   6  12
ENDBRANCH   1   6
BRANCH   2  24
HETATM   24  O3  UNL     1      33.984  10.853   9.546  1.00  0.00    -0.390 OA
ATOM     25  H3  UNL     1      33.207  11.001   9.020  1.00  0.00     0.210 HD
ENDBRANCH   2  24
BRANCH   5  26
HETATM   26  O5  UNL     1      33.694   7.640  12.263  1.00  0.00    -0.343 OA
ATOM     27  H5  UNL     1      34.104   6.931  11.782  1.00  0.00     0.215 HD
ENDBRANCH   5  26
BRANCH   5  28
HETATM   28  O6  UNL     1      33.114   9.820  12.148  1.00  0.00    -0.343 OA
ATOM     29  H6  UNL     1      32.353   9.615  12.678  1.00  0.00     0.215 HD
ENDBRANCH   5  28
BRANCH   3  30
HETATM   30  N5  UNL     1      32.476   9.145   8.131  1.00  0.00    -0.145 N 
HETATM   31  C9  UNL     1      32.426   8.850   6.825  1.00  0.00     0.222 A 
HETATM   32  N6  UNL     1      31.463   9.586   6.240  1.00  0.00    -0.259 N 
HETATM   33  N7  UNL     1      30.896  10.347   7.147  1.00  0.00     0.092 N 
ATOM     34  H6  UNL     1      31.215   9.557   5.251  1.00  0.00     0.189 HD
HETATM   35  C10 UNL     1      29.901  11.244   7.055  1.00  0.00     0.727 A 
HETATM   36  C12 UNL     1      31.516  10.083   8.325  1.00  0.00     0.738 A 
HETATM   37  N9  UNL     1      29.509  11.895   8.162  1.00  0.00    -0.020 N 
HETATM   38  C11 UNL     1      30.123  11.638   9.352  1.00  0.00     0.705 A 
ATOM     39  H9  UNL     1      28.753  12.579   8.114  1.00  0.00     0.203 HD
HETATM   40  N11 UNL     1      31.123  10.734   9.427  1.00  0.00    -0.019 N 
ATOM     41  H11 UNL     1      31.578  10.547  10.321  1.00  0.00     0.203 HD
BRANCH  35  42
HETATM   42  N8  UNL     1      29.290  11.519   5.956  1.00  0.00    -0.232 N 
ATOM     43  H82 UNL     1      28.286  11.686   6.005  1.00  0.00     0.174 HD
ATOM     44  H81 UNL     1      29.757  11.576   5.051  1.00  0.00     0.174 HD
ENDBRANCH  35  42
BRANCH  38  45
HETATM   45  N10 UNL     1      29.711  12.291  10.389  1.00  0.00    -0.234 N 
ATOM     46 2H10 UNL     1      28.995  11.919  11.013  1.00  0.00     0.174 HD
ATOM     47 1H10 UNL     1      30.130  13.204  10.567  1.00  0.00     0.174 HD
ENDBRANCH  38  45
ENDBRANCH   3  30
TORSDOF 14
ENDMDL
MODEL 3
REMARK VINA RESULT: -6.029348855      2.879      4.460
REMARK  14 active torsions:
REMARK  status: ('A' for Active; 'I' for Inactive)
REMARK       I    between atoms: C2_2  and  N1_4 
REMARK    1  A    between atoms: N1_4  and  C3_6 
REMARK    2  A    between atoms: C3_6  and  C4_7 
REMARK    3  A    between atoms: C3_6  and  C6_19 
REMARK    4  A    between atoms: C4_7  and  O2_8 
REMARK    5  A    between atoms: C4_7  and  C5_10 
REMARK    6  A    between atoms: C5_10  and  N2_11 
REMARK    7  A    between atoms: C5_10  and  N3_15 
REMARK    8  A    between atoms: N3_15  and  N4_16 
REMARK    9  A    between atoms: C7_20  and  O3_21 
REMARK   10  A    between atoms: C8_23  and  N5_24 
REMARK   11  A    between atoms: C10_29  and  N8_30 
REMARK   12  A    between atoms: C11_35  and  N10_36 
REMARK   13  A    between atoms: C13_43  and  O5_44 
REMARK   14  A    between atoms: C13_43  and  O6_46 
ROOT
HETATM    1  C6  UNL     1      32.828  11.967  11.628  1.00  0.00     0.137 C 
HETATM    2  C7  UNL     1      34.207  12.477  11.975  1.00  0.00     0.182 C 
HETATM    3  C8  UNL     1      34.761  11.165  12.565  1.00  0.00     0.282 C 
HETATM    4  O4  UNL     1      34.302  10.172  11.710  1.00  0.00    -0.304 OA
HETATM    5  C13 UNL     1      33.156  10.616  11.079  1.00  0.00     0.288 C 
ENDROOT
BRANCH   1   6
HETATM    6  C3  UNL     1      31.989  12.849  10.810  1.00  0.00     0.131 C 
BRANCH   6   7
HETATM    7  N1  UNL     1      32.423  14.183  10.597  1.00  0.00    -0.353 N 
HETATM    8  C2  UNL     1      32.262  14.873   9.347  1.00  0.00     0.214 C 
HETATM    9  C1  UNL     1      32.726  16.272   9.156  1.00  0.00     0.117 C 
HETATM   10  O1  UNL     1      31.716  14.327   8.349  1.00  0.00    -0.274 OA
ATOM     11  H1  UNL     1      32.871  14.676  11.369  1.00  0.00     0.163 HD
ENDBRANCH   6   7
BRANCH   6  12
HETATM   12  C4  UNL     1      30.571  12.781  11.371  1.00  0.00     0.189 C 
BRANCH  12  13
HETATM   13  O2  UNL     1      30.645  12.280  12.648  1.00  0.00    -0.390 OA
ATOM     14  H2  UNL     1      29.779  12.332  13.033  1.00  0.00     0.210 HD
ENDBRANCH  12  13
BRANCH  12  15
HETATM   15  C5  UNL     1      29.657  11.917  10.565  1.00  0.00     0.325 C 
BRANCH  15  16
HETATM   16  N2  UNL     1      30.168  11.568   9.267  1.00  0.00    -0.057 N 
ATOM     17  H23 UNL     1      30.212  12.392   8.668  1.00  0.00     0.276 HD
ATOM     18  H22 UNL     1      31.161  11.343   9.323  1.00  0.00     0.276 HD
ATOM     19  H21 UNL     1      29.658  10.817   8.804  1.00  0.00     0.276 HD
ENDBRANCH  15  16
BRANCH  15  20
HETATM   20  N3  UNL     1      29.471  10.680  11.304  1.00  0.00    -0.112 NA
BRANCH  20  21
HETATM   21  N4  UNL     1      28.132  10.502  11.676  1.00  0.00    -0.346 N 
ATOM     22  H42 UNL     1      27.833  10.332  12.636  1.00  0.00     0.172 HD
ATOM     23  H41 UNL     1      27.509  10.565  10.870  1.00  0.00     0.172 HD
ENDBRANCH  20  21
ENDBRANCH  15  20
ENDBRANCH  12  15
ENDBRANCH   6  12
ENDBRANCH   1   6
BRANCH   2  24
HETATM   24  O3  UNL     1      34.993  12.783  10.890  1.00  0.00    -0.390 OA
ATOM     25  H3  UNL     1      35.907  12.539  10.982  1.00  0.00     0.210 HD
ENDBRANCH   2  24
BRANCH   5  26
HETATM   26  O5  UNL     1      32.076   9.768  11.328  1.00  0.00    -0.343 OA
ATOM     27  H5  UNL     1      32.034   9.606  12.263  1.00  0.00     0.215 HD
ENDBRANCH   5  26
BRANCH   5  28
HETATM   28  O6  UNL     1      33.405  10.618   9.711  1.00  0.00    -0.343 OA
ATOM     29  H6  UNL     1      34.294  10.867   9.488  1.00  0.00     0.215 HD
ENDBRANCH   5  28
BRANCH   3  30
HETATM   30  N5  UNL     1      36.185  11.202  12.700  1.00  0.00    -0.145 N 
HETATM   31  C9  UNL     1      37.141  10.468  12.116  1.00  0.00     0.222 A 
HETATM   32  N6  UNL     1      38.345  10.871  12.561  1.00  0.00    -0.259 N 
HETATM   33  N7  UNL     1      38.178  11.849  13.420  1.00  0.00     0.092 N 
ATOM     34  H6  UNL     1      39.243  10.479  12.277  1.00  0.00     0.189 HD
HETATM   35  C10 UNL     1      39.064  12.570  14.126  1.00  0.00     0.727 A 
HETATM   36  C12 UNL     1      36.842  12.065  13.516  1.00  0.00     0.738 A 
HETATM   37  N9  UNL     1      38.612  13.531  14.948  1.00  0.00    -0.020 N 
HETATM   38  C11 UNL     1      37.271  13.757  15.053  1.00  0.00     0.705 A 
ATOM     39  H9  UNL     1      39.268  14.091  15.493  1.00  0.00     0.203 HD
HETATM   40  N11 UNL     1      36.393  13.023  14.336  1.00  0.00    -0.019 N 
ATOM     41  H11 UNL     1      35.392  13.198  14.419  1.00  0.00     0.203 HD
BRANCH  35  42
HETATM   42  N8  UNL     1      40.337  12.395  14.061  1.00  0.00    -0.232 N 
ATOM     43  H82 UNL     1      40.779  12.489  13.147  1.00  0.00     0.174 HD
ATOM     44  H81 UNL     1      40.917  12.166  14.868  1.00  0.00     0.174 HD
ENDBRANCH  35  42
BRANCH  38  45
HETATM   45  N10 UNL     1      36.885  14.692  15.858  1.00  0.00    -0.234 N 
ATOM     46 2H10 UNL     1      37.305  15.622  15.848  1.00  0.00     0.174 HD
ATOM     47 1H10 UNL     1      36.137  14.468  16.515  1.00  0.00     0.174 HD
ENDBRANCH  38  45
ENDBRANCH   3  30
TORSDOF 14
ENDMDL
MODEL 4
REMARK VINA RESULT: -5.876905210      3.529      6.223
REMARK  14 active torsions:
REMARK  status: ('A' for Active; 'I' for Inactive)
REMARK       I    between atoms: C2_2  and  N1_4 
REMARK    1  A    between atoms: N1_4  and  C3_6 
REMARK    2  A    between atoms: C3_6  and  C4_7 
REMARK    3  A    between atoms: C3_6  and  C6_19 
REMARK    4  A    between atoms: C4_7  and  O2_8 
REMARK    5  A    between atoms: C4_7  and  C5_10 
REMARK    6  A    between atoms: C5_10  and  N2_11 
REMARK    7  A    between atoms: C5_10  and  N3_15 
REMARK    8  A    between atoms: N3_15  and  N4_16 
REMARK    9  A    between atoms: C7_20  and  O3_21 
REMARK   10  A    between atoms: C8_23  and  N5_24 
REMARK   11  A    between atoms: C10_29  and  N8_30 
REMARK   12  A    between atoms: C11_35  and  N10_36 
REMARK   13  A    between atoms: C13_43  and  O5_44 
REMARK   14  A    between atoms: C13_43  and  O6_46 
ROOT
HETATM    1  C6  UNL     1      33.455   9.354   9.407  1.00  0.00     0.137 C 
HETATM    2  C7  UNL     1      33.155  10.758   9.877  1.00  0.00     0.182 C 
HETATM    3  C8  UNL     1      31.624  10.608   9.986  1.00  0.00     0.282 C 
HETATM    4  O4  UNL     1      31.432   9.355  10.551  1.00  0.00    -0.304 OA
HETATM    5  C13 UNL     1      32.528   8.562  10.272  1.00  0.00     0.288 C 
ENDROOT
BRANCH   1   6
HETATM    6  C3  UNL     1      34.866   8.958   9.380  1.00  0.00     0.131 C 
BRANCH   6   7
HETATM    7  N1  UNL     1      35.758   9.584  10.290  1.00  0.00    -0.353 N 
HETATM    8  C2  UNL     1      36.409   8.884  11.362  1.00  0.00     0.214 C 
HETATM    9  C1  UNL     1      37.339   9.568  12.297  1.00  0.00     0.117 C 
HETATM   10  O1  UNL     1      36.224   7.651  11.563  1.00  0.00    -0.274 OA
ATOM     11  H1  UNL     1      35.946  10.580  10.176  1.00  0.00     0.163 HD
ENDBRANCH   6   7
BRANCH   6  12
HETATM   12  C4  UNL     1      35.344   9.061   7.933  1.00  0.00     0.189 C 
BRANCH  12  13
HETATM   13  O2  UNL     1      34.273   8.795   7.115  1.00  0.00    -0.390 OA
ATOM     14  H2  UNL     1      34.601   8.361   6.337  1.00  0.00     0.210 HD
ENDBRANCH  12  13
BRANCH  12  15
HETATM   15  C5  UNL     1      36.449   8.110   7.608  1.00  0.00     0.325 C 
BRANCH  15  16
HETATM   16  N2  UNL     1      36.421   6.890   8.367  1.00  0.00    -0.057 N 
ATOM     17  H23 UNL     1      36.970   6.989   9.221  1.00  0.00     0.276 HD
ATOM     18  H22 UNL     1      35.496   6.743   8.772  1.00  0.00     0.276 HD
ATOM     19  H21 UNL     1      36.718   6.066   7.846  1.00  0.00     0.276 HD
ENDBRANCH  15  16
BRANCH  15  20
HETATM   20  N3  UNL     1      36.311   7.753   6.207  1.00  0.00    -0.112 NA
BRANCH  20  21
HETATM   21  N4  UNL     1      37.034   8.624   5.381  1.00  0.00    -0.346 N 
ATOM     22  H42 UNL     1      37.376   8.367   4.455  1.00  0.00     0.172 HD
ATOM     23  H41 UNL     1      37.168   9.533   5.825  1.00  0.00     0.172 HD
ENDBRANCH  20  21
ENDBRANCH  15  20
ENDBRANCH  12  15
ENDBRANCH   6  12
ENDBRANCH   1   6
BRANCH   2  24
HETATM   24  O3  UNL     1      33.613  11.047  11.140  1.00  0.00    -0.390 OA
ATOM     25  H3  UNL     1      32.944  11.040  11.815  1.00  0.00     0.210 HD
ENDBRANCH   2  24
BRANCH   5  26
HETATM   26  O5  UNL     1      32.159   7.409   9.578  1.00  0.00    -0.343 OA
ATOM     27  H5  UNL     1      32.871   6.784   9.639  1.00  0.00     0.215 HD
ENDBRANCH   5  26
BRANCH   5  28
HETATM   28  O6  UNL     1      33.090   8.182  11.485  1.00  0.00    -0.343 OA
ATOM     29  H6  UNL     1      33.303   8.915  12.050  1.00  0.00     0.215 HD
ENDBRANCH   5  28
BRANCH   3  30
HETATM   30  N5  UNL     1      31.037  11.678  10.732  1.00  0.00    -0.145 N 
HETATM   31  C9  UNL     1      30.178  11.663  11.760  1.00  0.00     0.222 A 
HETATM   32  N6  UNL     1      29.909  12.927  12.133  1.00  0.00    -0.259 N 
HETATM   33  N7  UNL     1      30.580  13.752  11.363  1.00  0.00     0.092 N 
ATOM     34  H6  UNL     1      29.284  13.200  12.892  1.00  0.00     0.189 HD
HETATM   35  C10 UNL     1      30.642  15.094  11.343  1.00  0.00     0.727 A 
HETATM   36  C12 UNL     1      31.285  12.990  10.489  1.00  0.00     0.738 A 
HETATM   37  N9  UNL     1      31.425  15.694  10.432  1.00  0.00    -0.020 N 
HETATM   38  C11 UNL     1      32.137  14.939   9.549  1.00  0.00     0.705 A 
ATOM     39  H9  UNL     1      31.486  16.712  10.401  1.00  0.00     0.203 HD
HETATM   40  N11 UNL     1      32.064  13.591   9.582  1.00  0.00    -0.019 N 
ATOM     41  H11 UNL     1      32.600  13.033   8.918  1.00  0.00     0.203 HD
BRANCH  35  42
HETATM   42  N8  UNL     1      29.989  15.848  12.156  1.00  0.00    -0.232 N 
ATOM     43  H82 UNL     1      30.172  15.736  13.153  1.00  0.00     0.174 HD
ATOM     44  H81 UNL     1      29.305  16.543  11.855  1.00  0.00     0.174 HD
ENDBRANCH  35  42
BRANCH  38  45
HETATM   45  N10 UNL     1      32.875  15.564   8.690  1.00  0.00    -0.234 N 
ATOM     46 2H10 UNL     1      32.733  16.549   8.471  1.00  0.00     0.174 HD
ATOM     47 1H10 UNL     1      33.616  15.032   8.232  1.00  0.00     0.174 HD
ENDBRANCH  38  45
ENDBRANCH   3  30
TORSDOF 14
ENDMDL
MODEL 5
REMARK VINA RESULT: -5.859439959      3.734      6.250
REMARK  14 active torsions:
REMARK  status: ('A' for Active; 'I' for Inactive)
REMARK       I    between atoms: C2_2  and  N1_4 
REMARK    1  A    between atoms: N1_4  and  C3_6 
REMARK    2  A    between atoms: C3_6  and  C4_7 
REMARK    3  A    between atoms: C3_6  and  C6_19 
REMARK    4  A    between atoms: C4_7  and  O2_8 
REMARK    5  A    between atoms: C4_7  and  C5_10 
REMARK    6  A    between atoms: C5_10  and  N2_11 
REMARK    7  A    between atoms: C5_10  and  N3_15 
REMARK    8  A    between atoms: N3_15  and  N4_16 
REMARK    9  A    between atoms: C7_20  and  O3_21 
REMARK   10  A    between atoms: C8_23  and  N5_24 
REMARK   11  A    between atoms: C10_29  and  N8_30 
REMARK   12  A    between atoms: C11_35  and  N10_36 
REMARK   13  A    between atoms: C13_43  and  O5_44 
REMARK   14  A    between atoms: C13_43  and  O6_46 
ROOT
HETATM    1  C6  UNL     1      31.795  12.011  10.578  1.00  0.00     0.137 C 
HETATM    2  C7  UNL     1      32.817  12.898   9.907  1.00  0.00     0.182 C 
HETATM    3  C8  UNL     1      32.070  14.234  10.090  1.00  0.00     0.282 C 
HETATM    4  O4  UNL     1      31.560  14.180  11.379  1.00  0.00    -0.304 OA
HETATM    5  C13 UNL     1      31.412  12.857  11.749  1.00  0.00     0.288 C 
ENDROOT
BRANCH   1   6
HETATM    6  C3  UNL     1      32.199  10.627  10.842  1.00  0.00     0.131 C 
BRANCH   6   7
HETATM    7  N1  UNL     1      33.586  10.338  10.941  1.00  0.00    -0.353 N 
HETATM    8  C2  UNL     1      34.119   9.323  11.807  1.00  0.00     0.214 C 
HETATM    9  C1  UNL     1      35.576   9.044  11.887  1.00  0.00     0.117 C 
HETATM   10  O1  UNL     1      33.376   8.616  12.543  1.00  0.00    -0.274 OA
ATOM     11  H1  UNL     1      34.235  10.878  10.369  1.00  0.00     0.163 HD
ENDBRANCH   6   7
BRANCH   6  12
HETATM   12  C4  UNL     1      31.493   9.740   9.819  1.00  0.00     0.189 C 
BRANCH  12  13
HETATM   13  O2  UNL     1      31.185   8.550  10.432  1.00  0.00    -0.390 OA
ATOM     14  H2  UNL     1      31.409   7.847   9.835  1.00  0.00     0.210 HD
ENDBRANCH  12  13
BRANCH  12  15
HETATM   15  C5  UNL     1      32.322   9.460   8.608  1.00  0.00     0.325 C 
BRANCH  15  16
HETATM   16  N2  UNL     1      32.783   8.102   8.510  1.00  0.00    -0.057 N 
ATOM     17  H23 UNL     1      33.123   7.774   9.414  1.00  0.00     0.276 HD
ATOM     18  H22 UNL     1      31.996   7.466   8.380  1.00  0.00     0.276 HD
ATOM     19  H21 UNL     1      33.487   7.950   7.788  1.00  0.00     0.276 HD
ENDBRANCH  15  16
BRANCH  15  20
HETATM   20  N3  UNL     1      31.489   9.720   7.447  1.00  0.00    -0.112 NA
BRANCH  20  21
HETATM   21  N4  UNL     1      31.801   8.856   6.389  1.00  0.00    -0.346 N 
ATOM     22  H42 UNL     1      31.405   7.921   6.290  1.00  0.00     0.172 HD
ATOM     23  H41 UNL     1      32.466   9.282   5.742  1.00  0.00     0.172 HD
ENDBRANCH  20  21
ENDBRANCH  15  20
ENDBRANCH  12  15
ENDBRANCH   6  12
ENDBRANCH   1   6
BRANCH   2  24
HETATM   24  O3  UNL     1      34.005  13.015  10.586  1.00  0.00    -0.390 OA
ATOM     25  H3  UNL     1      34.366  13.894  10.603  1.00  0.00     0.210 HD
ENDBRANCH   2  24
BRANCH   5  26
HETATM   26  O5  UNL     1      30.089  12.567  12.085  1.00  0.00    -0.343 OA
ATOM     27  H5  UNL     1      30.090  12.059  12.888  1.00  0.00     0.215 HD
ENDBRANCH   5  26
BRANCH   5  28
HETATM   28  O6  UNL     1      32.206  12.644  12.870  1.00  0.00    -0.343 OA
ATOM     29  H6  UNL     1      31.842  13.011  13.667  1.00  0.00     0.215 HD
ENDBRANCH   5  28
BRANCH   3  30
HETATM   30  N5  UNL     1      32.924  15.357   9.850  1.00  0.00    -0.145 N 
HETATM   31  C9  UNL     1      33.755  16.017  10.666  1.00  0.00     0.222 A 
HETATM   32  N6  UNL     1      34.350  17.013   9.985  1.00  0.00    -0.259 N 
HETATM   33  N7  UNL     1      33.915  17.004   8.747  1.00  0.00     0.092 N 
ATOM     34  H6  UNL     1      35.030  17.670  10.369  1.00  0.00     0.189 HD
HETATM   35  C10 UNL     1      34.207  17.790   7.698  1.00  0.00     0.727 A 
HETATM   36  C12 UNL     1      33.029  15.981   8.649  1.00  0.00     0.738 A 
HETATM   37  N9  UNL     1      33.605  17.553   6.521  1.00  0.00    -0.020 N 
HETATM   38  C11 UNL     1      32.713  16.528   6.411  1.00  0.00     0.705 A 
ATOM     39  H9  UNL     1      33.815  18.138   5.712  1.00  0.00     0.203 HD
HETATM   40  N11 UNL     1      32.430  15.747   7.475  1.00  0.00    -0.019 N 
ATOM     41  H11 UNL     1      31.761  14.982   7.385  1.00  0.00     0.203 HD
BRANCH  35  42
HETATM   42  N8  UNL     1      35.042  18.768   7.753  1.00  0.00    -0.232 N 
ATOM     43  H82 UNL     1      34.685  19.676   8.046  1.00  0.00     0.174 HD
ATOM     44  H81 UNL     1      36.031  18.679   7.518  1.00  0.00     0.174 HD
ENDBRANCH  35  42
BRANCH  38  45
HETATM   45  N10 UNL     1      32.159  16.342   5.257  1.00  0.00    -0.234 N 
ATOM     46 2H10 UNL     1      32.584  15.753   4.542  1.00  0.00     0.174 HD
ATOM     47 1H10 UNL     1      31.270  16.811   5.082  1.00  0.00     0.174 HD
ENDBRANCH  38  45
ENDBRANCH   3  30
TORSDOF 14
ENDMDL
