MODEL 1
REMARK VINA RESULT: -7.657303189      0.000      0.000
REMARK  8 active torsions:
REMARK  status: ('A' for Active; 'I' for Inactive)
REMARK    1  A    between atoms: C2_3  and  C3_4 
REMARK    2  A    between atoms: C3_4  and  N2_5 
REMARK    3  A    between atoms: N2_5  and  C4_7 
REMARK    4  A    between atoms: C5_10  and  N4_11 
REMARK    5  A    between atoms: C9_21  and  N8_22 
REMARK    6  A    between atoms: N8_22  and  C10_24 
REMARK    7  A    between atoms: C10_24  and  C11_25 
REMARK    8  A    between atoms: C11_25  and  O1_26 
ROOT
HETATM    1  N1  UNL     1      66.789  55.615  14.286  1.00  0.00    -0.197 NA
HETATM    2  C1  UNL     1      66.630  54.924  15.225  1.00  0.00     0.060 C 
HETATM    3  C2  UNL     1      66.427  54.066  16.389  1.00  0.00     0.144 C 
ENDROOT
BRANCH   3   4
HETATM    4  C3  UNL     1      64.947  53.657  16.489  1.00  0.00     0.152 C 
BRANCH   4   5
HETATM    5  N2  UNL     1      64.157  54.739  16.048  1.00  0.00    -0.224 N 
ATOM      6  H2  UNL     1      64.222  54.930  15.048  1.00  0.00     0.177 HD
BRANCH   5   7
HETATM    7  C4  UNL     1      63.377  55.517  16.683  1.00  0.00     0.707 A 
HETATM    8  N3  UNL     1      62.832  56.643  16.204  1.00  0.00    -0.021 N 
HETATM    9  C5  UNL     1      62.027  57.429  16.932  1.00  0.00     0.720 A 
ATOM     10  H3  UNL     1      63.039  56.914  15.243  1.00  0.00     0.203 HD
HETATM   11  N7  UNL     1      61.768  57.044  18.213  1.00  0.00    -0.021 N 
HETATM   12  C9  UNL     1      62.284  55.928  18.742  1.00  0.00     0.707 A 
ATOM     13  H7  UNL     1      61.160  57.626  18.788  1.00  0.00     0.203 HD
HETATM   14  N9  UNL     1      63.085  55.178  17.971  1.00  0.00    -0.022 N 
ATOM     15  H9  UNL     1      63.488  54.325  18.360  1.00  0.00     0.203 HD
BRANCH   9  16
HETATM   16  N4  UNL     1      61.434  58.610  16.408  1.00  0.00    -0.146 N 
HETATM   17  C6  UNL     1      60.611  58.609  15.224  1.00  0.00     0.175 C 
HETATM   18  C7  UNL     1      59.525  59.651  15.385  1.00  0.00     0.143 C 
HETATM   19  N5  UNL     1      60.046  61.013  15.410  1.00  0.00    -0.370 N 
HETATM   20  C8  UNL     1      60.876  61.429  16.517  1.00  0.00     0.171 C 
ATOM     21  H5  UNL     1      59.827  61.664  14.655  1.00  0.00     0.161 HD
HETATM   22  N6  UNL     1      60.958  62.764  16.966  1.00  0.00    -0.073 NA
HETATM   23  S1  UNL     1      61.708  60.179  17.169  1.00  0.00     0.037 SA
ENDBRANCH   9  16
BRANCH  12  24
HETATM   24  N8  UNL     1      62.009  55.572  19.972  1.00  0.00    -0.223 N 
ATOM     25  H8  UNL     1      62.738  55.322  20.640  1.00  0.00     0.177 HD
BRANCH  24  26
HETATM   26  C10 UNL     1      60.591  55.553  20.327  1.00  0.00     0.164 C 
BRANCH  26  27
HETATM   27  C11 UNL     1      60.016  54.203  19.997  1.00  0.00     0.184 C 
BRANCH  27  28
HETATM   28  O1  UNL     1      59.997  53.375  21.113  1.00  0.00    -0.399 OA
ATOM     29  H1  UNL     1      59.320  52.713  21.041  1.00  0.00     0.209 HD
ENDBRANCH  27  28
ENDBRANCH  26  27
ENDBRANCH  24  26
ENDBRANCH  12  24
ENDBRANCH   5   7
ENDBRANCH   4   5
ENDBRANCH   3   4
TORSDOF 8
ENDMDL
MODEL 2
REMARK VINA RESULT: -7.480927362      1.273      1.400
REMARK  8 active torsions:
REMARK  status: ('A' for Active; 'I' for Inactive)
REMARK    1  A    between atoms: C2_3  and  C3_4 
REMARK    2  A    between atoms: C3_4  and  N2_5 
REMARK    3  A    between atoms: N2_5  and  C4_7 
REMARK    4  A    between atoms: C5_10  and  N4_11 
REMARK    5  A    between atoms: C9_21  and  N8_22 
REMARK    6  A    between atoms: N8_22  and  C10_24 
REMARK    7  A    between atoms: C10_24  and  C11_25 
REMARK    8  A    between atoms: C11_25  and  O1_26 
ROOT
HETATM    1  N1  UNL     1      66.727  55.633  14.254  1.00  0.00    -0.197 NA
HETATM    2  C1  UNL     1      66.531  54.963  15.201  1.00  0.00     0.060 C 
HETATM    3  C2  UNL     1      66.281  54.131  16.376  1.00  0.00     0.144 C 
ENDROOT
BRANCH   3   4
HETATM    4  C3  UNL     1      64.779  53.820  16.490  1.00  0.00     0.152 C 
BRANCH   4   5
HETATM    5  N2  UNL     1      64.058  54.999  16.207  1.00  0.00    -0.224 N 
ATOM      6  H2  UNL     1      64.352  55.481  15.358  1.00  0.00     0.177 HD
BRANCH   5   7
HETATM    7  C4  UNL     1      63.103  55.563  16.830  1.00  0.00     0.707 A 
HETATM    8  N3  UNL     1      62.382  56.600  16.385  1.00  0.00    -0.021 N 
HETATM    9  C5  UNL     1      61.395  57.159  17.098  1.00  0.00     0.720 A 
ATOM     10  H3  UNL     1      62.592  56.980  15.462  1.00  0.00     0.203 HD
HETATM   11  N7  UNL     1      61.135  56.632  18.327  1.00  0.00    -0.021 N 
HETATM   12  C9  UNL     1      61.824  55.596  18.821  1.00  0.00     0.707 A 
ATOM     13  H7  UNL     1      60.391  57.041  18.890  1.00  0.00     0.203 HD
HETATM   14  N9  UNL     1      62.802  55.074  18.066  1.00  0.00    -0.022 N 
ATOM     15  H9  UNL     1      63.338  54.285  18.429  1.00  0.00     0.203 HD
BRANCH   9  16
HETATM   16  N4  UNL     1      60.618  58.244  16.608  1.00  0.00    -0.146 N 
HETATM   17  C6  UNL     1      60.920  58.924  15.374  1.00  0.00     0.175 C 
HETATM   18  C7  UNL     1      59.623  59.351  14.722  1.00  0.00     0.143 C 
HETATM   19  N5  UNL     1      58.915  60.374  15.484  1.00  0.00    -0.370 N 
HETATM   20  C8  UNL     1      58.376  60.037  16.782  1.00  0.00     0.171 C 
ATOM     21  H5  UNL     1      58.802  61.315  15.105  1.00  0.00     0.161 HD
HETATM   22  N6  UNL     1      57.245  60.670  17.340  1.00  0.00    -0.073 NA
HETATM   23  S1  UNL     1      59.236  58.857  17.521  1.00  0.00     0.037 SA
ENDBRANCH   9  16
BRANCH  12  24
HETATM   24  N8  UNL     1      61.546  55.098  20.001  1.00  0.00    -0.223 N 
ATOM     25  H8  UNL     1      62.260  54.971  20.717  1.00  0.00     0.177 HD
BRANCH  24  26
HETATM   26  C10 UNL     1      60.147  54.735  20.223  1.00  0.00     0.164 C 
BRANCH  26  27
HETATM   27  C11 UNL     1      59.998  53.244  20.098  1.00  0.00     0.184 C 
BRANCH  27  28
HETATM   28  O1  UNL     1      59.262  52.718  21.153  1.00  0.00    -0.399 OA
ATOM     29  H1  UNL     1      58.699  52.010  20.864  1.00  0.00     0.209 HD
ENDBRANCH  27  28
ENDBRANCH  26  27
ENDBRANCH  24  26
ENDBRANCH  12  24
ENDBRANCH   5   7
ENDBRANCH   4   5
ENDBRANCH   3   4
TORSDOF 8
ENDMDL
MODEL 3
REMARK VINA RESULT: -7.469792216      1.126      1.221
REMARK  8 active torsions:
REMARK  status: ('A' for Active; 'I' for Inactive)
REMARK    1  A    between atoms: C2_3  and  C3_4 
REMARK    2  A    between atoms: C3_4  and  N2_5 
REMARK    3  A    between atoms: N2_5  and  C4_7 
REMARK    4  A    between atoms: C5_10  and  N4_11 
REMARK    5  A    between atoms: C9_21  and  N8_22 
REMARK    6  A    between atoms: N8_22  and  C10_24 
REMARK    7  A    between atoms: C10_24  and  C11_25 
REMARK    8  A    between atoms: C11_25  and  O1_26 
ROOT
HETATM    1  N1  UNL     1      66.344  55.914  14.262  1.00  0.00    -0.197 NA
HETATM    2  C1  UNL     1      66.362  55.147  15.155  1.00  0.00     0.060 C 
HETATM    3  C2  UNL     1      66.379  54.196  16.263  1.00  0.00     0.144 C 
ENDROOT
BRANCH   3   4
HETATM    4  C3  UNL     1      64.951  53.983  16.795  1.00  0.00     0.152 C 
BRANCH   4   5
HETATM    5  N2  UNL     1      64.359  55.248  16.994  1.00  0.00    -0.224 N 
ATOM      6  H2  UNL     1      65.020  55.998  17.191  1.00  0.00     0.177 HD
BRANCH   5   7
HETATM    7  C4  UNL     1      63.140  55.611  16.970  1.00  0.00     0.707 A 
HETATM    8  N3  UNL     1      62.682  56.786  16.519  1.00  0.00    -0.021 N 
HETATM    9  C5  UNL     1      61.383  57.114  16.534  1.00  0.00     0.720 A 
ATOM     10  H3  UNL     1      63.351  57.460  16.147  1.00  0.00     0.203 HD
HETATM   11  N7  UNL     1      60.511  56.196  17.036  1.00  0.00    -0.021 N 
HETATM   12  C9  UNL     1      60.914  55.007  17.499  1.00  0.00     0.707 A 
ATOM     13  H7  UNL     1      59.518  56.423  17.060  1.00  0.00     0.203 HD
HETATM   14  N9  UNL     1      62.226  54.728  17.462  1.00  0.00    -0.022 N 
ATOM     15  H9  UNL     1      62.549  53.827  17.813  1.00  0.00     0.203 HD
BRANCH   9  16
HETATM   16  N4  UNL     1      60.902  58.354  16.030  1.00  0.00    -0.146 N 
HETATM   17  C6  UNL     1      60.065  58.448  14.861  1.00  0.00     0.175 C 
HETATM   18  C7  UNL     1      59.091  59.591  15.049  1.00  0.00     0.143 C 
HETATM   19  N5  UNL     1      59.746  60.894  15.077  1.00  0.00    -0.370 N 
HETATM   20  C8  UNL     1      60.632  61.214  16.174  1.00  0.00     0.171 C 
ATOM     21  H5  UNL     1      59.581  61.572  14.332  1.00  0.00     0.161 HD
HETATM   22  N6  UNL     1      60.854  62.529  16.633  1.00  0.00    -0.073 NA
HETATM   23  S1  UNL     1      61.345  59.880  16.800  1.00  0.00     0.037 SA
ENDBRANCH   9  16
BRANCH  12  24
HETATM   24  N8  UNL     1      60.054  54.135  17.965  1.00  0.00    -0.223 N 
ATOM     25  H8  UNL     1      59.095  54.083  17.623  1.00  0.00     0.177 HD
BRANCH  24  26
HETATM   26  C10 UNL     1      60.557  53.241  19.007  1.00  0.00     0.164 C 
BRANCH  26  27
HETATM   27  C11 UNL     1      59.982  53.654  20.333  1.00  0.00     0.184 C 
BRANCH  27  28
HETATM   28  O1  UNL     1      59.222  52.635  20.895  1.00  0.00    -0.399 OA
ATOM     29  H1  UNL     1      58.705  52.951  21.626  1.00  0.00     0.209 HD
ENDBRANCH  27  28
ENDBRANCH  26  27
ENDBRANCH  24  26
ENDBRANCH  12  24
ENDBRANCH   5   7
ENDBRANCH   4   5
ENDBRANCH   3   4
TORSDOF 8
ENDMDL
MODEL 4
REMARK VINA RESULT: -7.413016697      1.529      1.736
REMARK  8 active torsions:
REMARK  status: ('A' for Active; 'I' for Inactive)
REMARK    1  A    between atoms: C2_3  and  C3_4 
REMARK    2  A    between atoms: C3_4  and  N2_5 
REMARK    3  A    between atoms: N2_5  and  C4_7 
REMARK    4  A    between atoms: C5_10  and  N4_11 
REMARK    5  A    between atoms: C9_21  and  N8_22 
REMARK    6  A    between atoms: N8_22  and  C10_24 
REMARK    7  A    between atoms: C10_24  and  C11_25 
REMARK    8  A    between atoms: C11_25  and  O1_26 
ROOT
HETATM    1  N1  UNL     1      66.398  55.948  14.045  1.00  0.00    -0.197 NA
HETATM    2  C1  UNL     1      66.820  55.235  14.881  1.00  0.00     0.060 C 
HETATM    3  C2  UNL     1      67.338  54.349  15.919  1.00  0.00     0.144 C 
ENDROOT
BRANCH   3   4
HETATM    4  C3  UNL     1      66.180  53.800  16.770  1.00  0.00     0.152 C 
BRANCH   4   5
HETATM    5  N2  UNL     1      65.357  54.882  17.149  1.00  0.00    -0.224 N 
ATOM      6  H2  UNL     1      65.863  55.728  17.408  1.00  0.00     0.177 HD
BRANCH   5   7
HETATM    7  C4  UNL     1      64.091  54.981  17.223  1.00  0.00     0.707 A 
HETATM    8  N3  UNL     1      63.340  55.901  16.604  1.00  0.00    -0.021 N 
HETATM    9  C5  UNL     1      62.008  55.960  16.735  1.00  0.00     0.720 A 
ATOM     10  H3  UNL     1      63.802  56.587  16.007  1.00  0.00     0.203 HD
HETATM   11  N7  UNL     1      61.416  55.033  17.539  1.00  0.00    -0.021 N 
HETATM   12  C9  UNL     1      62.118  54.091  18.180  1.00  0.00     0.707 A 
ATOM     13  H7  UNL     1      60.404  55.058  17.656  1.00  0.00     0.203 HD
HETATM   14  N9  UNL     1      63.449  54.076  18.015  1.00  0.00    -0.022 N 
ATOM     15  H9  UNL     1      63.999  53.366  18.499  1.00  0.00     0.203 HD
BRANCH   9  16
HETATM   16  N4  UNL     1      61.215  56.926  16.056  1.00  0.00    -0.146 N 
HETATM   17  C6  UNL     1      60.054  56.572  15.279  1.00  0.00     0.175 C 
HETATM   18  C7  UNL     1      59.026  57.675  15.409  1.00  0.00     0.143 C 
HETATM   19  N5  UNL     1      59.454  58.925  14.792  1.00  0.00    -0.370 N 
HETATM   20  C8  UNL     1      60.576  59.641  15.356  1.00  0.00     0.171 C 
ATOM     21  H5  UNL     1      58.968  59.290  13.972  1.00  0.00     0.161 HD
HETATM   22  N6  UNL     1      60.729  61.040  15.263  1.00  0.00    -0.073 NA
HETATM   23  S1  UNL     1      61.639  58.639  16.095  1.00  0.00     0.037 SA
ENDBRANCH   9  16
BRANCH  12  24
HETATM   24  N8  UNL     1      61.524  53.201  18.937  1.00  0.00    -0.223 N 
ATOM     25  H8  UNL     1      62.040  52.451  19.398  1.00  0.00     0.177 HD
BRANCH  24  26
HETATM   26  C10 UNL     1      60.077  53.350  19.078  1.00  0.00     0.164 C 
BRANCH  26  27
HETATM   27  C11 UNL     1      59.747  53.642  20.516  1.00  0.00     0.184 C 
BRANCH  27  28
HETATM   28  O1  UNL     1      59.245  52.517  21.159  1.00  0.00    -0.399 OA
ATOM     29  H1  UNL     1      59.681  52.370  21.990  1.00  0.00     0.209 HD
ENDBRANCH  27  28
ENDBRANCH  26  27
ENDBRANCH  24  26
ENDBRANCH  12  24
ENDBRANCH   5   7
ENDBRANCH   4   5
ENDBRANCH   3   4
TORSDOF 8
ENDMDL
MODEL 5
REMARK VINA RESULT: -7.323405634      1.913      2.464
REMARK  8 active torsions:
REMARK  status: ('A' for Active; 'I' for Inactive)
REMARK    1  A    between atoms: C2_3  and  C3_4 
REMARK    2  A    between atoms: C3_4  and  N2_5 
REMARK    3  A    between atoms: N2_5  and  C4_7 
REMARK    4  A    between atoms: C5_10  and  N4_11 
REMARK    5  A    between atoms: C9_21  and  N8_22 
REMARK    6  A    between atoms: N8_22  and  C10_24 
REMARK    7  A    between atoms: C10_24  and  C11_25 
REMARK    8  A    between atoms: C11_25  and  O1_26 
ROOT
HETATM    1  N1  UNL     1      66.766  55.715  14.081  1.00  0.00    -0.197 NA
HETATM    2  C1  UNL     1      67.165  55.102  15.003  1.00  0.00     0.060 C 
HETATM    3  C2  UNL     1      67.654  54.339  16.148  1.00  0.00     0.144 C 
ENDROOT
BRANCH   3   4
HETATM    4  C3  UNL     1      66.488  53.594  16.821  1.00  0.00     0.152 C 
BRANCH   4   5
HETATM    5  N2  UNL     1      65.302  53.900  16.121  1.00  0.00    -0.224 N 
ATOM      6  H2  UNL     1      65.380  53.832  15.107  1.00  0.00     0.177 HD
BRANCH   5   7
HETATM    7  C4  UNL     1      64.152  54.247  16.539  1.00  0.00     0.707 A 
HETATM    8  N3  UNL     1      63.485  55.349  16.173  1.00  0.00    -0.021 N 
HETATM    9  C5  UNL     1      62.279  55.665  16.662  1.00  0.00     0.720 A 
ATOM     10  H3  UNL     1      63.914  55.975  15.491  1.00  0.00     0.203 HD
HETATM   11  N7  UNL     1      61.729  54.812  17.571  1.00  0.00    -0.021 N 
HETATM   12  C9  UNL     1      62.351  53.697  17.972  1.00  0.00     0.707 A 
ATOM     13  H7  UNL     1      60.812  55.031  17.960  1.00  0.00     0.203 HD
HETATM   14  N9  UNL     1      63.558  53.427  17.452  1.00  0.00    -0.022 N 
ATOM     15  H9  UNL     1      64.046  52.582  17.748  1.00  0.00     0.203 HD
BRANCH   9  16
HETATM   16  N4  UNL     1      61.566  56.824  16.250  1.00  0.00    -0.146 N 
HETATM   17  C6  UNL     1      61.864  58.142  16.753  1.00  0.00     0.175 C 
HETATM   18  C7  UNL     1      61.630  59.150  15.649  1.00  0.00     0.143 C 
HETATM   19  N5  UNL     1      60.225  59.262  15.273  1.00  0.00    -0.370 N 
HETATM   20  C8  UNL     1      59.571  58.136  14.646  1.00  0.00     0.171 C 
ATOM     21  H5  UNL     1      59.710  60.125  15.450  1.00  0.00     0.161 HD
HETATM   22  N6  UNL     1      58.488  58.267  13.752  1.00  0.00    -0.073 NA
HETATM   23  S1  UNL     1      60.226  56.708  15.107  1.00  0.00     0.037 SA
ENDBRANCH   9  16
BRANCH  12  24
HETATM   24  N8  UNL     1      61.795  52.885  18.838  1.00  0.00    -0.223 N 
ATOM     25  H8  UNL     1      62.336  52.192  19.356  1.00  0.00     0.177 HD
BRANCH  24  26
HETATM   26  C10 UNL     1      60.352  53.034  19.014  1.00  0.00     0.164 C 
BRANCH  26  27
HETATM   27  C11 UNL     1      60.071  53.510  20.412  1.00  0.00     0.184 C 
BRANCH  27  28
HETATM   28  O1  UNL     1      59.301  52.591  21.115  1.00  0.00    -0.399 OA
ATOM     29  H1  UNL     1      59.460  52.648  22.049  1.00  0.00     0.209 HD
ENDBRANCH  27  28
ENDBRANCH  26  27
ENDBRANCH  24  26
ENDBRANCH  12  24
ENDBRANCH   5   7
ENDBRANCH   4   5
ENDBRANCH   3   4
TORSDOF 8
ENDMDL
