MODEL 1
REMARK VINA RESULT: -8.469885217      0.000      0.000
REMARK  14 active torsions:
REMARK  status: ('A' for Active; 'I' for Inactive)
REMARK    1  A    between atoms: O1_2  and  C2_3 
REMARK    2  A    between atoms: C4_5  and  C5_6 
REMARK    3  A    between atoms: C10_11  and  C11_12 
REMARK    4  A    between atoms: C14_15  and  C15_16 
REMARK       I    between atoms: C15_16  and  N1_18 
REMARK    5  A    between atoms: N1_18  and  C16_20 
REMARK    6  A    between atoms: C16_20  and  C17_21 
REMARK    7  A    between atoms: C16_20  and  C21_29 
REMARK    8  A    between atoms: C17_21  and  C18_22 
REMARK    9  A    between atoms: C18_22  and  C19_23 
REMARK   10  A    between atoms: C19_23  and  N2_24 
REMARK       I    between atoms: N2_24  and  C20_26 
REMARK   11  A    between atoms: C21_29  and  O4_30 
REMARK   12  A    between atoms: C21_29  and  N4_32 
REMARK   13  A    between atoms: C24_35  and  C25_36 
REMARK       I    between atoms: C25_36  and  N5_38 
REMARK   14  A    between atoms: N5_38  and  C26_40 
ROOT
HETATM    1  C16 UNL     1     -10.895  16.115  27.639  1.00  0.00     0.063 C 
ENDROOT
BRANCH   1   2
HETATM    2  N1  UNL     1     -10.005  16.314  26.505  1.00  0.00    -0.323 N 
HETATM    3  C15 UNL     1      -9.538  17.499  25.954  1.00  0.00     0.259 C 
HETATM    4  O2  UNL     1      -9.868  18.609  26.407  1.00  0.00    -0.267 OA
ATOM      5  H1  UNL     1      -9.679  15.461  26.050  1.00  0.00     0.169 HD
BRANCH   3   6
HETATM    6  C14 UNL     1      -8.595  17.510  24.809  1.00  0.00     0.076 A 
HETATM    7  C2  UNL     1      -9.145  17.043  23.593  1.00  0.00     0.085 A 
HETATM    8  C3  UNL     1      -8.379  17.118  22.456  1.00  0.00     0.045 A 
HETATM    9  C4  UNL     1      -7.114  17.626  22.459  1.00  0.00    -0.047 A 
HETATM   10  C9  UNL     1      -6.615  18.064  23.656  1.00  0.00     0.020 A 
HETATM   11  C10 UNL     1      -7.363  18.006  24.878  1.00  0.00    -0.015 A 
BRANCH   7  12
HETATM   12  O1  UNL     1     -10.423  16.539  23.608  1.00  0.00    -0.355 OA
HETATM   13  C1  UNL     1     -11.039  16.031  22.430  1.00  0.00     0.210 C 
ENDBRANCH   7  12
BRANCH   9  14
HETATM   14  C5  UNL     1      -6.306  17.673  21.208  1.00  0.00    -0.024 C 
HETATM   15  C6  UNL     1      -4.989  18.370  21.410  1.00  0.00     0.019 C 
HETATM   16  C7  UNL     1      -7.091  18.336  20.079  1.00  0.00     0.019 C 
HETATM   17  C8  UNL     1      -5.998  16.259  20.737  1.00  0.00     0.019 C 
ENDBRANCH   9  14
BRANCH  11  18
HETATM   18  C11 UNL     1      -6.530  18.314  26.037  1.00  0.00    -0.076 C 
HETATM   19  C12 UNL     1      -5.290  17.422  26.135  1.00  0.00     0.044 C 
HETATM   20  C13 UNL     1      -6.434  19.589  26.724  1.00  0.00     0.044 C 
ENDBRANCH  11  18
ENDBRANCH   3   6
ENDBRANCH   1   2
BRANCH   1  21
HETATM   21  C17 UNL     1     -12.302  15.839  27.459  1.00  0.00     0.063 C 
BRANCH  21  22
HETATM   22  C18 UNL     1     -13.147  16.373  28.615  1.00  0.00     0.026 C 
BRANCH  22  23
HETATM   23  C19 UNL     1     -13.967  15.272  29.267  1.00  0.00     0.124 C 
BRANCH  23  24
HETATM   24  N2  UNL     1     -13.633  15.071  30.658  1.00  0.00    -0.345 N 
HETATM   25  C20 UNL     1     -12.813  14.031  31.152  1.00  0.00     0.328 C 
HETATM   26  N3  UNL     1     -12.505  13.904  32.559  1.00  0.00    -0.040 NA
HETATM   27  O3  UNL     1     -12.319  13.176  30.368  1.00  0.00    -0.251 OA
ATOM     28  H2  UNL     1     -14.018  15.729  31.335  1.00  0.00     0.163 HD
ENDBRANCH  23  24
ENDBRANCH  22  23
ENDBRANCH  21  22
ENDBRANCH   1  21
BRANCH   1  29
HETATM   29  C21 UNL     1     -10.157  15.338  28.652  1.00  0.00     0.161 C 
BRANCH  29  30
HETATM   30  O4  UNL     1     -10.226  14.022  28.463  1.00  0.00    -0.345 OA
ATOM     31  H4  UNL     1      -9.379  13.618  28.309  1.00  0.00     0.219 HD
ENDBRANCH  29  30
BRANCH  29  32
HETATM   32  N4  UNL     1      -9.424  15.664  29.774  1.00  0.00    -0.360 N 
HETATM   33  C22 UNL     1      -9.160  16.989  30.353  1.00  0.00     0.126 C 
HETATM   34  C23 UNL     1     -10.001  16.946  31.645  1.00  0.00     0.034 C 
HETATM   35  C24 UNL     1      -9.185  16.056  32.592  1.00  0.00     0.081 C 
HETATM   36  C30 UNL     1      -9.068  14.662  32.024  1.00  0.00     0.034 C 
HETATM   37  C31 UNL     1      -8.777  14.596  30.579  1.00  0.00     0.126 C 
BRANCH  35  38
HETATM   38  C25 UNL     1      -9.887  16.042  33.907  1.00  0.00     0.222 C 
HETATM   39  O5  UNL     1     -10.057  17.102  34.517  1.00  0.00    -0.273 OA
HETATM   40  N5  UNL     1     -10.352  14.826  34.453  1.00  0.00    -0.353 N 
ATOM     41  H5  UNL     1     -10.213  13.957  33.937  1.00  0.00     0.163 HD
BRANCH  40  42
HETATM   42  C26 UNL     1     -11.032  14.797  35.755  1.00  0.00     0.022 C 
HETATM   43  C27 UNL     1     -10.107  15.368  36.845  1.00  0.00     0.037 C 
HETATM   44  C28 UNL     1     -12.296  15.606  35.701  1.00  0.00     0.037 C 
HETATM   45  C29 UNL     1     -11.370  13.368  36.078  1.00  0.00     0.037 C 
ENDBRANCH  40  42
ENDBRANCH  35  38
ENDBRANCH  29  32
ENDBRANCH   1  29
TORSDOF 14
ENDMDL
MODEL 2
REMARK VINA RESULT: -8.350546618      2.303      4.359
REMARK  14 active torsions:
REMARK  status: ('A' for Active; 'I' for Inactive)
REMARK    1  A    between atoms: O1_2  and  C2_3 
REMARK    2  A    between atoms: C4_5  and  C5_6 
REMARK    3  A    between atoms: C10_11  and  C11_12 
REMARK    4  A    between atoms: C14_15  and  C15_16 
REMARK       I    between atoms: C15_16  and  N1_18 
REMARK    5  A    between atoms: N1_18  and  C16_20 
REMARK    6  A    between atoms: C16_20  and  C17_21 
REMARK    7  A    between atoms: C16_20  and  C21_29 
REMARK    8  A    between atoms: C17_21  and  C18_22 
REMARK    9  A    between atoms: C18_22  and  C19_23 
REMARK   10  A    between atoms: C19_23  and  N2_24 
REMARK       I    between atoms: N2_24  and  C20_26 
REMARK   11  A    between atoms: C21_29  and  O4_30 
REMARK   12  A    between atoms: C21_29  and  N4_32 
REMARK   13  A    between atoms: C24_35  and  C25_36 
REMARK       I    between atoms: C25_36  and  N5_38 
REMARK   14  A    between atoms: N5_38  and  C26_40 
ROOT
HETATM    1  C16 UNL     1      -9.400  16.655  29.927  1.00  0.00     0.063 C 
ENDROOT
BRANCH   1   2
HETATM    2  N1  UNL     1      -8.972  16.840  28.548  1.00  0.00    -0.323 N 
HETATM    3  C15 UNL     1      -8.169  16.024  27.763  1.00  0.00     0.259 C 
HETATM    4  O2  UNL     1      -7.683  14.965  28.198  1.00  0.00    -0.267 OA
ATOM      5  H1  UNL     1      -9.310  17.689  28.096  1.00  0.00     0.169 HD
BRANCH   3   6
HETATM    6  C14 UNL     1      -7.865  16.355  26.349  1.00  0.00     0.076 A 
HETATM    7  C2  UNL     1      -8.927  16.108  25.448  1.00  0.00     0.085 A 
HETATM    8  C3  UNL     1      -8.774  16.484  24.137  1.00  0.00     0.045 A 
HETATM    9  C4  UNL     1      -7.641  17.086  23.677  1.00  0.00    -0.047 A 
HETATM   10  C9  UNL     1      -6.635  17.304  24.577  1.00  0.00     0.020 A 
HETATM   11  C10 UNL     1      -6.731  16.928  25.958  1.00  0.00    -0.015 A 
BRANCH   7  12
HETATM   12  O1  UNL     1     -10.063  15.505  25.931  1.00  0.00    -0.355 OA
HETATM   13  C1  UNL     1     -11.351  16.080  25.743  1.00  0.00     0.210 C 
ENDBRANCH   7  12
BRANCH   9  14
HETATM   14  C5  UNL     1      -7.505  17.463  22.241  1.00  0.00    -0.024 C 
HETATM   15  C6  UNL     1      -6.750  16.428  21.454  1.00  0.00     0.019 C 
HETATM   16  C7  UNL     1      -6.842  18.829  22.098  1.00  0.00     0.019 C 
HETATM   17  C8  UNL     1      -8.882  17.592  21.607  1.00  0.00     0.019 C 
ENDBRANCH   9  14
BRANCH  11  18
HETATM   18  C11 UNL     1      -5.449  17.055  26.644  1.00  0.00    -0.076 C 
HETATM   19  C12 UNL     1      -4.264  17.168  25.681  1.00  0.00     0.044 C 
HETATM   20  C13 UNL     1      -5.224  17.598  27.971  1.00  0.00     0.044 C 
ENDBRANCH  11  18
ENDBRANCH   3   6
ENDBRANCH   1   2
BRANCH   1  21
HETATM   21  C17 UNL     1      -8.872  17.466  30.999  1.00  0.00     0.063 C 
BRANCH  21  22
HETATM   22  C18 UNL     1      -8.533  16.636  32.237  1.00  0.00     0.026 C 
BRANCH  22  23
HETATM   23  C19 UNL     1      -9.386  17.031  33.431  1.00  0.00     0.124 C 
BRANCH  23  24
HETATM   24  N2  UNL     1     -10.638  16.315  33.489  1.00  0.00    -0.345 N 
HETATM   25  C20 UNL     1     -11.526  16.323  34.589  1.00  0.00     0.328 C 
HETATM   26  N3  UNL     1     -12.775  15.596  34.568  1.00  0.00    -0.040 NA
HETATM   27  O3  UNL     1     -11.250  16.977  35.631  1.00  0.00    -0.251 OA
ATOM     28  H2  UNL     1     -10.902  15.760  32.675  1.00  0.00     0.163 HD
ENDBRANCH  23  24
ENDBRANCH  22  23
ENDBRANCH  21  22
ENDBRANCH   1  21
BRANCH   1  29
HETATM   29  C21 UNL     1     -10.850  16.381  29.909  1.00  0.00     0.161 C 
BRANCH  29  30
HETATM   30  O4  UNL     1     -11.568  17.295  30.559  1.00  0.00    -0.345 OA
ATOM     31  H4  UNL     1     -11.643  17.123  31.491  1.00  0.00     0.219 HD
ENDBRANCH  29  30
BRANCH  29  32
HETATM   32  N4  UNL     1     -11.637  15.376  29.389  1.00  0.00    -0.360 N 
HETATM   33  C22 UNL     1     -11.234  14.057  28.879  1.00  0.00     0.126 C 
HETATM   34  C23 UNL     1     -11.785  13.112  29.966  1.00  0.00     0.034 C 
HETATM   35  C24 UNL     1     -13.295  13.072  29.695  1.00  0.00     0.081 C 
HETATM   36  C30 UNL     1     -13.894  14.446  29.875  1.00  0.00     0.034 C 
HETATM   37  C31 UNL     1     -13.109  15.553  29.296  1.00  0.00     0.126 C 
BRANCH  35  38
HETATM   38  C25 UNL     1     -13.894  12.096  30.650  1.00  0.00     0.222 C 
HETATM   39  O5  UNL     1     -15.022  12.306  31.105  1.00  0.00    -0.273 OA
HETATM   40  N5  UNL     1     -13.176  10.943  31.033  1.00  0.00    -0.353 N 
ATOM     41  H5  UNL     1     -12.248  10.775  30.645  1.00  0.00     0.163 HD
BRANCH  40  42
HETATM   42  C26 UNL     1     -13.750   9.981  31.985  1.00  0.00     0.022 C 
HETATM   43  C27 UNL     1     -13.750  10.580  33.403  1.00  0.00     0.037 C 
HETATM   44  C28 UNL     1     -15.156   9.634  31.591  1.00  0.00     0.037 C 
HETATM   45  C29 UNL     1     -12.906   8.737  31.963  1.00  0.00     0.037 C 
ENDBRANCH  40  42
ENDBRANCH  35  38
ENDBRANCH  29  32
ENDBRANCH   1  29
TORSDOF 14
ENDMDL
MODEL 3
REMARK VINA RESULT: -8.331907031      2.124      3.481
REMARK  14 active torsions:
REMARK  status: ('A' for Active; 'I' for Inactive)
REMARK    1  A    between atoms: O1_2  and  C2_3 
REMARK    2  A    between atoms: C4_5  and  C5_6 
REMARK    3  A    between atoms: C10_11  and  C11_12 
REMARK    4  A    between atoms: C14_15  and  C15_16 
REMARK       I    between atoms: C15_16  and  N1_18 
REMARK    5  A    between atoms: N1_18  and  C16_20 
REMARK    6  A    between atoms: C16_20  and  C17_21 
REMARK    7  A    between atoms: C16_20  and  C21_29 
REMARK    8  A    between atoms: C17_21  and  C18_22 
REMARK    9  A    between atoms: C18_22  and  C19_23 
REMARK   10  A    between atoms: C19_23  and  N2_24 
REMARK       I    between atoms: N2_24  and  C20_26 
REMARK   11  A    between atoms: C21_29  and  O4_30 
REMARK   12  A    between atoms: C21_29  and  N4_32 
REMARK   13  A    between atoms: C24_35  and  C25_36 
REMARK       I    between atoms: C25_36  and  N5_38 
REMARK   14  A    between atoms: N5_38  and  C26_40 
ROOT
HETATM    1  C16 UNL     1     -11.281  16.455  31.092  1.00  0.00     0.063 C 
ENDROOT
BRANCH   1   2
HETATM    2  N1  UNL     1     -10.780  16.375  29.729  1.00  0.00    -0.323 N 
HETATM    3  C15 UNL     1     -10.901  17.295  28.696  1.00  0.00     0.259 C 
HETATM    4  O2  UNL     1     -11.510  18.369  28.839  1.00  0.00    -0.267 OA
ATOM      5  H1  UNL     1     -10.269  15.523  29.500  1.00  0.00     0.169 HD
BRANCH   3   6
HETATM    6  C14 UNL     1     -10.286  17.060  27.366  1.00  0.00     0.076 A 
HETATM    7  C2  UNL     1     -11.045  16.232  26.507  1.00  0.00     0.085 A 
HETATM    8  C3  UNL     1     -10.607  16.046  25.219  1.00  0.00     0.045 A 
HETATM    9  C4  UNL     1      -9.472  16.633  24.742  1.00  0.00    -0.047 A 
HETATM   10  C9  UNL     1      -8.763  17.424  25.605  1.00  0.00     0.020 A 
HETATM   11  C10 UNL     1      -9.165  17.650  26.962  1.00  0.00    -0.015 A 
BRANCH   7  12
HETATM   12  O1  UNL     1     -12.188  15.653  27.004  1.00  0.00    -0.355 OA
HETATM   13  C1  UNL     1     -12.380  14.243  26.983  1.00  0.00     0.210 C 
ENDBRANCH   7  12
BRANCH   9  14
HETATM   14  C5  UNL     1      -9.018  16.393  23.343  1.00  0.00    -0.024 C 
HETATM   15  C6  UNL     1     -10.172  16.230  22.394  1.00  0.00     0.019 C 
HETATM   16  C7  UNL     1      -8.096  15.179  23.273  1.00  0.00     0.019 C 
HETATM   17  C8  UNL     1      -8.198  17.577  22.854  1.00  0.00     0.019 C 
ENDBRANCH   9  14
BRANCH  11  18
HETATM   18  C11 UNL     1      -8.125  18.332  27.727  1.00  0.00    -0.076 C 
HETATM   19  C12 UNL     1      -7.258  17.372  28.546  1.00  0.00     0.044 C 
HETATM   20  C13 UNL     1      -7.510  19.608  27.412  1.00  0.00     0.044 C 
ENDBRANCH  11  18
ENDBRANCH   3   6
ENDBRANCH   1   2
BRANCH   1  21
HETATM   21  C17 UNL     1     -12.386  15.640  31.543  1.00  0.00     0.063 C 
BRANCH  21  22
HETATM   22  C18 UNL     1     -13.103  14.947  30.386  1.00  0.00     0.026 C 
BRANCH  22  23
HETATM   23  C19 UNL     1     -13.000  13.434  30.486  1.00  0.00     0.124 C 
BRANCH  23  24
HETATM   24  N2  UNL     1     -12.727  12.977  31.828  1.00  0.00    -0.345 N 
HETATM   25  C20 UNL     1     -13.711  12.623  32.780  1.00  0.00     0.328 C 
HETATM   26  N3  UNL     1     -13.361  12.152  34.101  1.00  0.00    -0.040 NA
HETATM   27  O3  UNL     1     -14.936  12.708  32.497  1.00  0.00    -0.251 OA
ATOM     28  H2  UNL     1     -11.750  12.902  32.110  1.00  0.00     0.163 HD
ENDBRANCH  23  24
ENDBRANCH  22  23
ENDBRANCH  21  22
ENDBRANCH   1  21
BRANCH   1  29
HETATM   29  C21 UNL     1     -10.117  16.606  31.985  1.00  0.00     0.161 C 
BRANCH  29  30
HETATM   30  O4  UNL     1      -9.142  17.348  31.462  1.00  0.00    -0.345 OA
ATOM     31  H4  UNL     1      -9.373  18.266  31.373  1.00  0.00     0.219 HD
ENDBRANCH  29  30
BRANCH  29  32
HETATM   32  N4  UNL     1      -9.793  16.132  33.239  1.00  0.00    -0.360 N 
HETATM   33  C22 UNL     1      -9.635  16.878  34.496  1.00  0.00     0.126 C 
HETATM   34  C23 UNL     1     -10.872  16.421  35.296  1.00  0.00     0.034 C 
HETATM   35  C24 UNL     1     -10.512  15.003  35.761  1.00  0.00     0.081 C 
HETATM   36  C30 UNL     1     -10.324  14.097  34.568  1.00  0.00     0.034 C 
HETATM   37  C31 UNL     1      -9.558  14.681  33.451  1.00  0.00     0.126 C 
BRANCH  35  38
HETATM   38  C25 UNL     1     -11.625  14.523  36.629  1.00  0.00     0.222 C 
HETATM   39  O5  UNL     1     -12.398  15.342  37.136  1.00  0.00    -0.273 OA
HETATM   40  N5  UNL     1     -11.791  13.143  36.875  1.00  0.00    -0.353 N 
ATOM     41  H5  UNL     1     -11.151  12.474  36.445  1.00  0.00     0.163 HD
BRANCH  40  42
HETATM   42  C26 UNL     1     -12.875  12.658  37.741  1.00  0.00     0.022 C 
HETATM   43  C27 UNL     1     -12.594  13.047  39.203  1.00  0.00     0.037 C 
HETATM   44  C28 UNL     1     -14.188  13.246  37.312  1.00  0.00     0.037 C 
HETATM   45  C29 UNL     1     -12.939  11.160  37.621  1.00  0.00     0.037 C 
ENDBRANCH  40  42
ENDBRANCH  35  38
ENDBRANCH  29  32
ENDBRANCH   1  29
TORSDOF 14
ENDMDL
MODEL 4
REMARK VINA RESULT: -8.329340277      0.944      1.453
REMARK  14 active torsions:
REMARK  status: ('A' for Active; 'I' for Inactive)
REMARK    1  A    between atoms: O1_2  and  C2_3 
REMARK    2  A    between atoms: C4_5  and  C5_6 
REMARK    3  A    between atoms: C10_11  and  C11_12 
REMARK    4  A    between atoms: C14_15  and  C15_16 
REMARK       I    between atoms: C15_16  and  N1_18 
REMARK    5  A    between atoms: N1_18  and  C16_20 
REMARK    6  A    between atoms: C16_20  and  C17_21 
REMARK    7  A    between atoms: C16_20  and  C21_29 
REMARK    8  A    between atoms: C17_21  and  C18_22 
REMARK    9  A    between atoms: C18_22  and  C19_23 
REMARK   10  A    between atoms: C19_23  and  N2_24 
REMARK       I    between atoms: N2_24  and  C20_26 
REMARK   11  A    between atoms: C21_29  and  O4_30 
REMARK   12  A    between atoms: C21_29  and  N4_32 
REMARK   13  A    between atoms: C24_35  and  C25_36 
REMARK       I    between atoms: C25_36  and  N5_38 
REMARK   14  A    between atoms: N5_38  and  C26_40 
ROOT
HETATM    1  C16 UNL     1     -10.675  15.999  27.860  1.00  0.00     0.063 C 
ENDROOT
BRANCH   1   2
HETATM    2  N1  UNL     1      -9.561  16.301  26.974  1.00  0.00    -0.323 N 
HETATM    3  C15 UNL     1      -8.959  17.523  26.707  1.00  0.00     0.259 C 
HETATM    4  O2  UNL     1      -9.350  18.578  27.236  1.00  0.00    -0.267 OA
ATOM      5  H1  UNL     1      -9.167  15.501  26.479  1.00  0.00     0.169 HD
BRANCH   3   6
HETATM    6  C14 UNL     1      -7.795  17.638  25.794  1.00  0.00     0.076 A 
HETATM    7  C2  UNL     1      -8.128  17.661  24.420  1.00  0.00     0.085 A 
HETATM    8  C3  UNL     1      -7.126  17.872  23.506  1.00  0.00     0.045 A 
HETATM    9  C4  UNL     1      -5.828  18.063  23.877  1.00  0.00    -0.047 A 
HETATM   10  C9  UNL     1      -5.545  18.029  25.215  1.00  0.00     0.020 A 
HETATM   11  C10 UNL     1      -6.546  17.806  26.217  1.00  0.00    -0.015 A 
BRANCH   7  12
HETATM   12  O1  UNL     1      -9.442  17.472  24.066  1.00  0.00    -0.355 OA
HETATM   13  C1  UNL     1      -9.826  16.477  23.123  1.00  0.00     0.210 C 
ENDBRANCH   7  12
BRANCH   9  14
HETATM   14  C5  UNL     1      -4.764  18.271  22.854  1.00  0.00    -0.024 C 
HETATM   15  C6  UNL     1      -5.111  17.631  21.538  1.00  0.00     0.019 C 
HETATM   16  C7  UNL     1      -3.419  17.756  23.357  1.00  0.00     0.019 C 
HETATM   17  C8  UNL     1      -4.578  19.758  22.595  1.00  0.00     0.019 C 
ENDBRANCH   9  14
BRANCH  11  18
HETATM   18  C11 UNL     1      -5.954  17.586  27.533  1.00  0.00    -0.076 C 
HETATM   19  C12 UNL     1      -4.546  16.990  27.464  1.00  0.00     0.044 C 
HETATM   20  C13 UNL     1      -6.265  18.304  28.756  1.00  0.00     0.044 C 
ENDBRANCH  11  18
ENDBRANCH   3   6
ENDBRANCH   1   2
BRANCH   1  21
HETATM   21  C17 UNL     1     -11.977  15.643  27.346  1.00  0.00     0.063 C 
BRANCH  21  22
HETATM   22  C18 UNL     1     -13.110  16.234  28.184  1.00  0.00     0.026 C 
BRANCH  22  23
HETATM   23  C19 UNL     1     -13.817  15.168  29.005  1.00  0.00     0.124 C 
BRANCH  23  24
HETATM   24  N2  UNL     1     -13.564  15.289  30.421  1.00  0.00    -0.345 N 
HETATM   25  C20 UNL     1     -12.973  14.289  31.228  1.00  0.00     0.328 C 
HETATM   26  N3  UNL     1     -12.731  14.490  32.639  1.00  0.00    -0.040 NA
HETATM   27  O3  UNL     1     -12.636  13.181  30.730  1.00  0.00    -0.251 OA
ATOM     28  H2  UNL     1     -13.830  16.163  30.874  1.00  0.00     0.163 HD
ENDBRANCH  23  24
ENDBRANCH  22  23
ENDBRANCH  21  22
ENDBRANCH   1  21
BRANCH   1  29
HETATM   29  C21 UNL     1     -10.141  15.229  28.999  1.00  0.00     0.161 C 
BRANCH  29  30
HETATM   30  O4  UNL     1     -10.443  13.933  28.949  1.00  0.00    -0.345 OA
ATOM     31  H4  UNL     1     -11.016  13.652  29.654  1.00  0.00     0.219 HD
ENDBRANCH  29  30
BRANCH  29  32
HETATM   32  N4  UNL     1      -9.413  15.549  30.125  1.00  0.00    -0.360 N 
HETATM   33  C22 UNL     1      -9.138  16.873  30.702  1.00  0.00     0.126 C 
HETATM   34  C23 UNL     1      -9.990  16.844  31.988  1.00  0.00     0.034 C 
HETATM   35  C24 UNL     1      -9.193  15.947  32.944  1.00  0.00     0.081 C 
HETATM   36  C30 UNL     1      -9.087  14.550  32.382  1.00  0.00     0.034 C 
HETATM   37  C31 UNL     1      -8.786  14.476  30.939  1.00  0.00     0.126 C 
BRANCH  35  38
HETATM   38  C25 UNL     1      -9.906  15.946  34.253  1.00  0.00     0.222 C 
HETATM   39  O5  UNL     1     -10.019  17.000  34.885  1.00  0.00    -0.273 OA
HETATM   40  N5  UNL     1     -10.444  14.747  34.769  1.00  0.00    -0.353 N 
ATOM     41  H5  UNL     1     -10.352  13.883  34.236  1.00  0.00     0.163 HD
BRANCH  40  42
HETATM   42  C26 UNL     1     -11.136  14.730  36.066  1.00  0.00     0.022 C 
HETATM   43  C27 UNL     1     -10.201  15.259  37.168  1.00  0.00     0.037 C 
HETATM   44  C28 UNL     1     -12.371  15.581  36.009  1.00  0.00     0.037 C 
HETATM   45  C29 UNL     1     -11.525  13.310  36.372  1.00  0.00     0.037 C 
ENDBRANCH  40  42
ENDBRANCH  35  38
ENDBRANCH  29  32
ENDBRANCH   1  29
TORSDOF 14
ENDMDL
MODEL 5
REMARK VINA RESULT: -8.306459118      0.950      2.462
REMARK  14 active torsions:
REMARK  status: ('A' for Active; 'I' for Inactive)
REMARK    1  A    between atoms: O1_2  and  C2_3 
REMARK    2  A    between atoms: C4_5  and  C5_6 
REMARK    3  A    between atoms: C10_11  and  C11_12 
REMARK    4  A    between atoms: C14_15  and  C15_16 
REMARK       I    between atoms: C15_16  and  N1_18 
REMARK    5  A    between atoms: N1_18  and  C16_20 
REMARK    6  A    between atoms: C16_20  and  C17_21 
REMARK    7  A    between atoms: C16_20  and  C21_29 
REMARK    8  A    between atoms: C17_21  and  C18_22 
REMARK    9  A    between atoms: C18_22  and  C19_23 
REMARK   10  A    between atoms: C19_23  and  N2_24 
REMARK       I    between atoms: N2_24  and  C20_26 
REMARK   11  A    between atoms: C21_29  and  O4_30 
REMARK   12  A    between atoms: C21_29  and  N4_32 
REMARK   13  A    between atoms: C24_35  and  C25_36 
REMARK       I    between atoms: C25_36  and  N5_38 
REMARK   14  A    between atoms: N5_38  and  C26_40 
ROOT
HETATM    1  C16 UNL     1     -10.557  16.223  27.617  1.00  0.00     0.063 C 
ENDROOT
BRANCH   1   2
HETATM    2  N1  UNL     1      -9.505  16.553  26.668  1.00  0.00    -0.323 N 
HETATM    3  C15 UNL     1      -9.336  17.704  25.911  1.00  0.00     0.259 C 
HETATM    4  O2  UNL     1     -10.142  18.650  25.964  1.00  0.00    -0.267 OA
ATOM      5  H1  UNL     1      -8.790  15.837  26.542  1.00  0.00     0.169 HD
BRANCH   3   6
HETATM    6  C14 UNL     1      -8.168  17.885  25.014  1.00  0.00     0.076 A 
HETATM    7  C2  UNL     1      -7.017  18.405  25.649  1.00  0.00     0.085 A 
HETATM    8  C3  UNL     1      -5.856  18.506  24.922  1.00  0.00     0.045 A 
HETATM    9  C4  UNL     1      -5.777  18.121  23.617  1.00  0.00    -0.047 A 
HETATM   10  C9  UNL     1      -6.913  17.628  23.036  1.00  0.00     0.020 A 
HETATM   11  C10 UNL     1      -8.156  17.504  23.741  1.00  0.00    -0.015 A 
BRANCH   7  12
HETATM   12  O1  UNL     1      -7.115  18.783  26.967  1.00  0.00    -0.355 OA
HETATM   13  C1  UNL     1      -6.325  18.170  27.980  1.00  0.00     0.210 C 
ENDBRANCH   7  12
BRANCH   9  14
HETATM   14  C5  UNL     1      -4.504  18.264  22.855  1.00  0.00    -0.024 C 
HETATM   15  C6  UNL     1      -3.339  17.645  23.577  1.00  0.00     0.019 C 
HETATM   16  C7  UNL     1      -4.219  19.730  22.544  1.00  0.00     0.019 C 
HETATM   17  C8  UNL     1      -4.623  17.561  21.511  1.00  0.00     0.019 C 
ENDBRANCH   9  14
BRANCH  11  18
HETATM   18  C11 UNL     1      -9.257  17.175  22.840  1.00  0.00    -0.076 C 
HETATM   19  C12 UNL     1      -8.961  17.524  21.380  1.00  0.00     0.044 C 
HETATM   20  C13 UNL     1     -10.267  16.151  23.041  1.00  0.00     0.044 C 
ENDBRANCH  11  18
ENDBRANCH   3   6
ENDBRANCH   1   2
BRANCH   1  21
HETATM   21  C17 UNL     1     -11.893  15.890  27.181  1.00  0.00     0.063 C 
BRANCH  21  22
HETATM   22  C18 UNL     1     -12.960  16.382  28.159  1.00  0.00     0.026 C 
BRANCH  22  23
HETATM   23  C19 UNL     1     -13.692  15.226  28.821  1.00  0.00     0.124 C 
BRANCH  23  24
HETATM   24  N2  UNL     1     -13.505  15.187  30.252  1.00  0.00    -0.345 N 
HETATM   25  C20 UNL     1     -12.746  14.216  30.944  1.00  0.00     0.328 C 
HETATM   26  N3  UNL     1     -12.586  14.253  32.381  1.00  0.00    -0.040 NA
HETATM   27  O3  UNL     1     -12.179  13.280  30.319  1.00  0.00    -0.251 OA
ATOM     28  H2  UNL     1     -13.955  15.916  30.806  1.00  0.00     0.163 HD
ENDBRANCH  23  24
ENDBRANCH  22  23
ENDBRANCH  21  22
ENDBRANCH   1  21
BRANCH   1  29
HETATM   29  C21 UNL     1      -9.951  15.411  28.689  1.00  0.00     0.161 C 
BRANCH  29  30
HETATM   30  O4  UNL     1     -10.114  14.101  28.516  1.00  0.00    -0.345 OA
ATOM     31  H4  UNL     1     -10.002  13.597  29.314  1.00  0.00     0.219 HD
ENDBRANCH  29  30
BRANCH  29  32
HETATM   32  N4  UNL     1      -9.268  15.700  29.851  1.00  0.00    -0.360 N 
HETATM   33  C22 UNL     1      -9.015  17.007  30.474  1.00  0.00     0.126 C 
HETATM   34  C23 UNL     1      -9.917  16.946  31.723  1.00  0.00     0.034 C 
HETATM   35  C24 UNL     1      -9.159  16.023  32.686  1.00  0.00     0.081 C 
HETATM   36  C30 UNL     1      -9.032  14.641  32.091  1.00  0.00     0.034 C 
HETATM   37  C31 UNL     1      -8.674  14.604  30.660  1.00  0.00     0.126 C 
BRANCH  35  38
HETATM   38  C25 UNL     1      -9.923  15.988  33.966  1.00  0.00     0.222 C 
HETATM   39  O5  UNL     1     -10.166  17.044  34.558  1.00  0.00    -0.273 OA
HETATM   40  N5  UNL     1     -10.361  14.757  34.500  1.00  0.00    -0.353 N 
ATOM     41  H5  UNL     1     -10.162  13.891  33.999  1.00  0.00     0.163 HD
BRANCH  40  42
HETATM   42  C26 UNL     1     -11.102  14.708  35.768  1.00  0.00     0.022 C 
HETATM   43  C27 UNL     1     -10.233  15.270  36.907  1.00  0.00     0.037 C 
HETATM   44  C28 UNL     1     -12.367  15.510  35.664  1.00  0.00     0.037 C 
HETATM   45  C29 UNL     1     -11.447  13.273  36.057  1.00  0.00     0.037 C 
ENDBRANCH  40  42
ENDBRANCH  35  38
ENDBRANCH  29  32
ENDBRANCH   1  29
TORSDOF 14
ENDMDL
