MODEL 1
REMARK VINA RESULT: -8.616252197      0.000      0.000
REMARK  17 active torsions:
REMARK  status: ('A' for Active; 'I' for Inactive)
REMARK    1  A    between atoms: C2_2  and  C4_4 
REMARK    2  A    between atoms: C4_4  and  C5_5 
REMARK    3  A    between atoms: C5_5  and  C6_6 
REMARK    4  A    between atoms: C5_5  and  C24_39 
REMARK    5  A    between atoms: C6_6  and  N1_7 
REMARK       I    between atoms: N1_7  and  C7_9 
REMARK    6  A    between atoms: C7_9  and  C8_11 
REMARK    7  A    between atoms: C8_11  and  C9_12 
REMARK    8  A    between atoms: C8_11  and  C21_36 
REMARK    9  A    between atoms: C9_12  and  C10_13 
REMARK   10  A    between atoms: C10_13  and  O2_14 
REMARK   11  A    between atoms: C10_13  and  C11_16 
REMARK   12  A    between atoms: C11_16  and  C12_17 
REMARK   13  A    between atoms: C11_16  and  C13_20 
REMARK   14  A    between atoms: C12_17  and  O3_18 
REMARK   15  A    between atoms: C13_20  and  N2_21 
REMARK   16  A    between atoms: N2_21  and  C14_22 
REMARK   17  A    between atoms: C15_25  and  C16_26 
ROOT
HETATM    1  C10 UNL     1      30.013 -45.935  41.774  1.00  0.00     0.131 C 
ENDROOT
BRANCH   1   2
HETATM    2  C9  UNL     1      29.573 -44.697  42.456  1.00  0.00     0.047 C 
BRANCH   2   3
HETATM    3  C8  UNL     1      29.033 -43.647  41.498  1.00  0.00     0.083 C 
BRANCH   3   4
HETATM    4  C7  UNL     1      29.815 -42.430  41.580  1.00  0.00     0.222 C 
HETATM    5  N1  UNL     1      29.749 -41.430  42.596  1.00  0.00    -0.360 N 
ATOM      6  H1  UNL     1      29.082 -41.543  43.359  1.00  0.00     0.162 HD
HETATM    7  O1  UNL     1      30.682 -42.176  40.661  1.00  0.00    -0.273 OA
BRANCH   5   8
HETATM    8  C6  UNL     1      30.592 -40.271  42.578  1.00  0.00     0.127 C 
BRANCH   8   9
HETATM    9  C5  UNL     1      29.951 -38.944  42.377  1.00  0.00     0.007 C 
BRANCH   9  10
HETATM   10  C4  UNL     1      30.931 -37.810  42.314  1.00  0.00     0.010 C 
BRANCH  10  11
HETATM   11  C2  UNL     1      30.918 -36.639  43.132  1.00  0.00    -0.022 C 
HETATM   12  C1  UNL     1      30.476 -36.767  44.558  1.00  0.00     0.009 C 
HETATM   13  C3  UNL     1      30.180 -35.424  42.583  1.00  0.00     0.009 C 
ENDBRANCH  10  11
ENDBRANCH   9  10
BRANCH   9  14
HETATM   14  C24 UNL     1      29.347 -38.942  40.933  1.00  0.00    -0.017 C 
HETATM   15  C25 UNL     1      30.469 -38.851  39.915  1.00  0.00     0.010 C 
HETATM   16  C26 UNL     1      28.448 -37.805  40.637  1.00  0.00     0.010 C 
ENDBRANCH   9  14
ENDBRANCH   8   9
ENDBRANCH   5   8
ENDBRANCH   3   4
BRANCH   3  17
HETATM   17  C21 UNL     1      27.562 -43.559  41.671  1.00  0.00    -0.010 C 
HETATM   18  C22 UNL     1      27.064 -42.108  41.629  1.00  0.00     0.010 C 
HETATM   19  C23 UNL     1      26.961 -44.231  42.844  1.00  0.00     0.010 C 
ENDBRANCH   3  17
ENDBRANCH   2   3
ENDBRANCH   1   2
BRANCH   1  20
HETATM   20  O2  UNL     1      30.334 -45.704  40.425  1.00  0.00    -0.395 OA
ATOM     21  H2  UNL     1      30.398 -46.514  39.932  1.00  0.00     0.210 HD
ENDBRANCH   1  20
BRANCH   1  22
HETATM   22  C11 UNL     1      29.085 -47.104  41.895  1.00  0.00     0.090 C 
BRANCH  22  23
HETATM   23  C12 UNL     1      29.777 -48.409  42.059  1.00  0.00     0.177 C 
BRANCH  23  24
HETATM   24  O3  UNL     1      31.074 -48.471  41.586  1.00  0.00    -0.400 OA
ATOM     25  H3  UNL     1      31.683 -48.980  42.107  1.00  0.00     0.209 HD
ENDBRANCH  23  24
ENDBRANCH  22  23
BRANCH  22  26
HETATM   26  C13 UNL     1      28.199 -47.175  40.626  1.00  0.00     0.167 C 
BRANCH  26  27
HETATM   27  N2  UNL     1      28.700 -47.823  39.587  1.00  0.00    -0.401 NA
BRANCH  27  28
HETATM   28  C14 UNL     1      29.137 -48.435  38.658  1.00  0.00     0.207 A 
HETATM   29  N3  UNL     1      30.337 -48.180  38.041  1.00  0.00    -0.327 N 
HETATM   30  C15 UNL     1      30.812 -48.854  37.012  1.00  0.00     0.074 A 
ATOM     31  H3  UNL     1      30.902 -47.413  38.405  1.00  0.00     0.168 HD
HETATM   32  C17 UNL     1      30.094 -49.903  36.473  1.00  0.00     0.064 A 
HETATM   33  C18 UNL     1      28.890 -50.203  37.046  1.00  0.00     0.067 A 
HETATM   34  N4  UNL     1      27.986 -51.151  36.742  1.00  0.00    -0.350 N 
HETATM   35  C20 UNL     1      28.408 -49.507  38.103  1.00  0.00     0.119 A 
HETATM   36  C19 UNL     1      26.970 -51.035  37.601  1.00  0.00     0.181 A 
ATOM     37  H4  UNL     1      28.063 -51.836  35.991  1.00  0.00     0.166 HD
HETATM   38  N5  UNL     1      27.222 -50.014  38.453  1.00  0.00    -0.347 N 
ATOM     39  H5  UNL     1      26.623 -49.694  39.215  1.00  0.00     0.167 HD
BRANCH  30  40
HETATM   40  C16 UNL     1      32.093 -48.551  36.385  1.00  0.00     0.288 C 
HETATM   41  O4  UNL     1      33.010 -49.393  36.261  1.00  0.00    -0.300 OA
ENDBRANCH  30  40
ENDBRANCH  27  28
ENDBRANCH  26  27
ENDBRANCH  22  26
ENDBRANCH   1  22
TORSDOF 17
ENDMDL
MODEL 2
REMARK VINA RESULT: -8.440977441      1.351      2.272
REMARK  17 active torsions:
REMARK  status: ('A' for Active; 'I' for Inactive)
REMARK    1  A    between atoms: C2_2  and  C4_4 
REMARK    2  A    between atoms: C4_4  and  C5_5 
REMARK    3  A    between atoms: C5_5  and  C6_6 
REMARK    4  A    between atoms: C5_5  and  C24_39 
REMARK    5  A    between atoms: C6_6  and  N1_7 
REMARK       I    between atoms: N1_7  and  C7_9 
REMARK    6  A    between atoms: C7_9  and  C8_11 
REMARK    7  A    between atoms: C8_11  and  C9_12 
REMARK    8  A    between atoms: C8_11  and  C21_36 
REMARK    9  A    between atoms: C9_12  and  C10_13 
REMARK   10  A    between atoms: C10_13  and  O2_14 
REMARK   11  A    between atoms: C10_13  and  C11_16 
REMARK   12  A    between atoms: C11_16  and  C12_17 
REMARK   13  A    between atoms: C11_16  and  C13_20 
REMARK   14  A    between atoms: C12_17  and  O3_18 
REMARK   15  A    between atoms: C13_20  and  N2_21 
REMARK   16  A    between atoms: N2_21  and  C14_22 
REMARK   17  A    between atoms: C15_25  and  C16_26 
ROOT
HETATM    1  C10 UNL     1      29.973 -45.983  41.748  1.00  0.00     0.131 C 
ENDROOT
BRANCH   1   2
HETATM    2  C9  UNL     1      29.532 -44.752  42.440  1.00  0.00     0.047 C 
BRANCH   2   3
HETATM    3  C8  UNL     1      28.997 -43.692  41.490  1.00  0.00     0.083 C 
BRANCH   3   4
HETATM    4  C7  UNL     1      29.788 -42.481  41.577  1.00  0.00     0.222 C 
HETATM    5  N1  UNL     1      29.692 -41.459  42.569  1.00  0.00    -0.360 N 
ATOM      6  H1  UNL     1      28.994 -41.549  43.307  1.00  0.00     0.162 HD
HETATM    7  O1  UNL     1      30.692 -42.255  40.689  1.00  0.00    -0.273 OA
BRANCH   5   8
HETATM    8  C6  UNL     1      30.547 -40.309  42.560  1.00  0.00     0.127 C 
BRANCH   8   9
HETATM    9  C5  UNL     1      29.923 -38.975  42.347  1.00  0.00     0.007 C 
BRANCH   9  10
HETATM   10  C4  UNL     1      30.914 -37.851  42.299  1.00  0.00     0.010 C 
BRANCH  10  11
HETATM   11  C2  UNL     1      30.920 -36.697  43.141  1.00  0.00    -0.022 C 
HETATM   12  C1  UNL     1      30.483 -36.848  44.566  1.00  0.00     0.009 C 
HETATM   13  C3  UNL     1      30.196 -35.462  42.619  1.00  0.00     0.009 C 
ENDBRANCH  10  11
ENDBRANCH   9  10
BRANCH   9  14
HETATM   14  C24 UNL     1      29.344 -38.969  40.893  1.00  0.00    -0.017 C 
HETATM   15  C25 UNL     1      30.483 -38.878  39.894  1.00  0.00     0.010 C 
HETATM   16  C26 UNL     1      28.452 -37.829  40.584  1.00  0.00     0.010 C 
ENDBRANCH   9  14
ENDBRANCH   8   9
ENDBRANCH   5   8
ENDBRANCH   3   4
BRANCH   3  17
HETATM   17  C21 UNL     1      27.527 -43.594  41.668  1.00  0.00    -0.010 C 
HETATM   18  C22 UNL     1      27.036 -42.141  41.616  1.00  0.00     0.010 C 
HETATM   19  C23 UNL     1      26.926 -44.254  42.848  1.00  0.00     0.010 C 
ENDBRANCH   3  17
ENDBRANCH   2   3
ENDBRANCH   1   2
BRANCH   1  20
HETATM   20  O2  UNL     1      30.193 -45.764  40.377  1.00  0.00    -0.395 OA
ATOM     21  H2  UNL     1      30.818 -46.381  40.015  1.00  0.00     0.210 HD
ENDBRANCH   1  20
BRANCH   1  22
HETATM   22  C11 UNL     1      29.102 -47.184  41.949  1.00  0.00     0.090 C 
BRANCH  22  23
HETATM   23  C12 UNL     1      29.836 -48.476  41.904  1.00  0.00     0.177 C 
BRANCH  23  24
HETATM   24  O3  UNL     1      31.011 -48.480  41.177  1.00  0.00    -0.400 OA
ATOM     25  H3  UNL     1      31.695 -47.901  41.490  1.00  0.00     0.209 HD
ENDBRANCH  23  24
ENDBRANCH  22  23
BRANCH  22  26
HETATM   26  C13 UNL     1      28.010 -47.203  40.850  1.00  0.00     0.167 C 
BRANCH  26  27
HETATM   27  N2  UNL     1      28.207 -48.023  39.830  1.00  0.00    -0.401 NA
BRANCH  27  28
HETATM   28  C14 UNL     1      28.351 -48.768  38.907  1.00  0.00     0.207 A 
HETATM   29  N3  UNL     1      27.496 -49.791  38.580  1.00  0.00    -0.327 N 
HETATM   30  C15 UNL     1      27.663 -50.616  37.564  1.00  0.00     0.074 A 
ATOM     31  H3  UNL     1      26.672 -49.924  39.166  1.00  0.00     0.168 HD
HETATM   32  C17 UNL     1      28.760 -50.489  36.735  1.00  0.00     0.064 A 
HETATM   33  C18 UNL     1      29.647 -49.487  37.012  1.00  0.00     0.067 A 
HETATM   34  N4  UNL     1      30.786 -49.128  36.394  1.00  0.00    -0.350 N 
HETATM   35  C20 UNL     1      29.470 -48.643  38.057  1.00  0.00     0.119 A 
HETATM   36  C19 UNL     1      31.294 -48.081  37.051  1.00  0.00     0.181 A 
ATOM     37  H4  UNL     1      31.189 -49.574  35.570  1.00  0.00     0.166 HD
HETATM   38  N5  UNL     1      30.482 -47.771  38.088  1.00  0.00    -0.347 N 
ATOM     39  H5  UNL     1      30.617 -47.018  38.764  1.00  0.00     0.167 HD
BRANCH  30  40
HETATM   40  C16 UNL     1      26.730 -51.691  37.251  1.00  0.00     0.288 C 
HETATM   41  O4  UNL     1      25.969 -51.668  36.257  1.00  0.00    -0.300 OA
ENDBRANCH  30  40
ENDBRANCH  27  28
ENDBRANCH  26  27
ENDBRANCH  22  26
ENDBRANCH   1  22
TORSDOF 17
ENDMDL
MODEL 3
REMARK VINA RESULT: -8.397127794      1.011      1.187
REMARK  17 active torsions:
REMARK  status: ('A' for Active; 'I' for Inactive)
REMARK    1  A    between atoms: C2_2  and  C4_4 
REMARK    2  A    between atoms: C4_4  and  C5_5 
REMARK    3  A    between atoms: C5_5  and  C6_6 
REMARK    4  A    between atoms: C5_5  and  C24_39 
REMARK    5  A    between atoms: C6_6  and  N1_7 
REMARK       I    between atoms: N1_7  and  C7_9 
REMARK    6  A    between atoms: C7_9  and  C8_11 
REMARK    7  A    between atoms: C8_11  and  C9_12 
REMARK    8  A    between atoms: C8_11  and  C21_36 
REMARK    9  A    between atoms: C9_12  and  C10_13 
REMARK   10  A    between atoms: C10_13  and  O2_14 
REMARK   11  A    between atoms: C10_13  and  C11_16 
REMARK   12  A    between atoms: C11_16  and  C12_17 
REMARK   13  A    between atoms: C11_16  and  C13_20 
REMARK   14  A    between atoms: C12_17  and  O3_18 
REMARK   15  A    between atoms: C13_20  and  N2_21 
REMARK   16  A    between atoms: N2_21  and  C14_22 
REMARK   17  A    between atoms: C15_25  and  C16_26 
ROOT
HETATM    1  C10 UNL     1      30.254 -45.851  41.897  1.00  0.00     0.131 C 
ENDROOT
BRANCH   1   2
HETATM    2  C9  UNL     1      29.643 -44.658  42.525  1.00  0.00     0.047 C 
BRANCH   2   3
HETATM    3  C8  UNL     1      29.111 -43.657  41.511  1.00  0.00     0.083 C 
BRANCH   3   4
HETATM    4  C7  UNL     1      29.879 -42.429  41.556  1.00  0.00     0.222 C 
HETATM    5  N1  UNL     1      29.837 -41.423  42.567  1.00  0.00    -0.360 N 
ATOM      6  H1  UNL     1      29.201 -41.540  43.356  1.00  0.00     0.162 HD
HETATM    7  O1  UNL     1      30.706 -42.169  40.603  1.00  0.00    -0.273 OA
BRANCH   5   8
HETATM    8  C6  UNL     1      30.663 -40.252  42.509  1.00  0.00     0.127 C 
BRANCH   8   9
HETATM    9  C5  UNL     1      29.995 -38.935  42.328  1.00  0.00     0.007 C 
BRANCH   9  10
HETATM   10  C4  UNL     1      30.952 -37.781  42.280  1.00  0.00     0.010 C 
BRANCH  10  11
HETATM   11  C2  UNL     1      30.927 -36.630  43.125  1.00  0.00    -0.022 C 
HETATM   12  C1  UNL     1      30.487 -36.794  44.548  1.00  0.00     0.009 C 
HETATM   13  C3  UNL     1      30.175 -35.411  42.603  1.00  0.00     0.009 C 
ENDBRANCH  10  11
ENDBRANCH   9  10
BRANCH   9  14
HETATM   14  C24 UNL     1      29.390 -38.924  40.885  1.00  0.00    -0.017 C 
HETATM   15  C25 UNL     1      30.509 -38.810  39.867  1.00  0.00     0.010 C 
HETATM   16  C26 UNL     1      28.478 -37.794  40.602  1.00  0.00     0.010 C 
ENDBRANCH   9  14
ENDBRANCH   8   9
ENDBRANCH   5   8
ENDBRANCH   3   4
BRANCH   3  17
HETATM   17  C21 UNL     1      27.636 -43.578  41.652  1.00  0.00    -0.010 C 
HETATM   18  C22 UNL     1      27.151 -42.133  41.826  1.00  0.00     0.010 C 
HETATM   19  C23 UNL     1      26.992 -44.420  42.683  1.00  0.00     0.010 C 
ENDBRANCH   3  17
ENDBRANCH   2   3
ENDBRANCH   1   2
BRANCH   1  20
HETATM   20  O2  UNL     1      30.246 -45.767  40.494  1.00  0.00    -0.395 OA
ATOM     21  H2  UNL     1      29.613 -46.361  40.107  1.00  0.00     0.210 HD
ENDBRANCH   1  20
BRANCH   1  22
HETATM   22  C11 UNL     1      29.703 -47.170  42.342  1.00  0.00     0.090 C 
BRANCH  22  23
HETATM   23  C12 UNL     1      29.611 -47.318  43.818  1.00  0.00     0.177 C 
BRANCH  23  24
HETATM   24  O3  UNL     1      30.766 -47.725  44.459  1.00  0.00    -0.400 OA
ATOM     25  H3  UNL     1      30.943 -48.658  44.445  1.00  0.00     0.209 HD
ENDBRANCH  23  24
ENDBRANCH  22  23
BRANCH  22  26
HETATM   26  C13 UNL     1      30.604 -48.303  41.791  1.00  0.00     0.167 C 
BRANCH  26  27
HETATM   27  N2  UNL     1      30.278 -48.800  40.609  1.00  0.00    -0.401 NA
BRANCH  27  28
HETATM   28  C14 UNL     1      29.969 -49.219  39.533  1.00  0.00     0.207 A 
HETATM   29  N3  UNL     1      30.819 -49.342  38.462  1.00  0.00    -0.327 N 
HETATM   30  C15 UNL     1      30.472 -49.798  37.275  1.00  0.00     0.074 A 
ATOM     31  H3  UNL     1      31.790 -49.059  38.595  1.00  0.00     0.168 HD
HETATM   32  C17 UNL     1      29.172 -50.196  37.032  1.00  0.00     0.064 A 
HETATM   33  C18 UNL     1      28.280 -50.096  38.062  1.00  0.00     0.067 A 
HETATM   34  N4  UNL     1      26.971 -50.400  38.121  1.00  0.00    -0.350 N 
HETATM   35  C20 UNL     1      28.642 -49.627  39.280  1.00  0.00     0.119 A 
HETATM   36  C19 UNL     1      26.544 -50.121  39.356  1.00  0.00     0.181 A 
ATOM     37  H4  UNL     1      26.406 -50.776  37.360  1.00  0.00     0.166 HD
HETATM   38  N5  UNL     1      27.577 -49.639  40.086  1.00  0.00    -0.347 N 
ATOM     39  H5  UNL     1      27.547 -49.342  41.062  1.00  0.00     0.167 HD
BRANCH  30  40
HETATM   40  C16 UNL     1      31.407 -49.913  36.162  1.00  0.00     0.288 C 
HETATM   41  O4  UNL     1      32.650 -49.883  36.308  1.00  0.00    -0.300 OA
ENDBRANCH  30  40
ENDBRANCH  27  28
ENDBRANCH  26  27
ENDBRANCH  22  26
ENDBRANCH   1  22
TORSDOF 17
ENDMDL
MODEL 4
REMARK VINA RESULT: -8.354779753      3.144      4.998
REMARK  17 active torsions:
REMARK  status: ('A' for Active; 'I' for Inactive)
REMARK    1  A    between atoms: C2_2  and  C4_4 
REMARK    2  A    between atoms: C4_4  and  C5_5 
REMARK    3  A    between atoms: C5_5  and  C6_6 
REMARK    4  A    between atoms: C5_5  and  C24_39 
REMARK    5  A    between atoms: C6_6  and  N1_7 
REMARK       I    between atoms: N1_7  and  C7_9 
REMARK    6  A    between atoms: C7_9  and  C8_11 
REMARK    7  A    between atoms: C8_11  and  C9_12 
REMARK    8  A    between atoms: C8_11  and  C21_36 
REMARK    9  A    between atoms: C9_12  and  C10_13 
REMARK   10  A    between atoms: C10_13  and  O2_14 
REMARK   11  A    between atoms: C10_13  and  C11_16 
REMARK   12  A    between atoms: C11_16  and  C12_17 
REMARK   13  A    between atoms: C11_16  and  C13_20 
REMARK   14  A    between atoms: C12_17  and  O3_18 
REMARK   15  A    between atoms: C13_20  and  N2_21 
REMARK   16  A    between atoms: N2_21  and  C14_22 
REMARK   17  A    between atoms: C15_25  and  C16_26 
ROOT
HETATM    1  C10 UNL     1      29.962 -45.899  41.531  1.00  0.00     0.131 C 
ENDROOT
BRANCH   1   2
HETATM    2  C9  UNL     1      29.444 -44.764  42.327  1.00  0.00     0.047 C 
BRANCH   2   3
HETATM    3  C8  UNL     1      28.899 -43.633  41.467  1.00  0.00     0.083 C 
BRANCH   3   4
HETATM    4  C7  UNL     1      29.716 -42.445  41.609  1.00  0.00     0.222 C 
HETATM    5  N1  UNL     1      29.579 -41.416  42.588  1.00  0.00    -0.360 N 
ATOM      6  H1  UNL     1      28.827 -41.483  43.275  1.00  0.00     0.162 HD
HETATM    7  O1  UNL     1      30.688 -42.249  40.787  1.00  0.00    -0.273 OA
BRANCH   5   8
HETATM    8  C6  UNL     1      30.466 -40.291  42.638  1.00  0.00     0.127 C 
BRANCH   8   9
HETATM    9  C5  UNL     1      29.894 -38.939  42.390  1.00  0.00     0.007 C 
BRANCH   9  10
HETATM   10  C4  UNL     1      30.929 -37.856  42.326  1.00  0.00     0.010 C 
BRANCH  10  11
HETATM   11  C2  UNL     1      30.959 -36.671  43.125  1.00  0.00    -0.022 C 
HETATM   12  C1  UNL     1      30.533 -36.763  44.559  1.00  0.00     0.009 C 
HETATM   13  C3  UNL     1      30.246 -35.446  42.564  1.00  0.00     0.009 C 
ENDBRANCH  10  11
ENDBRANCH   9  10
BRANCH   9  14
HETATM   14  C24 UNL     1      29.327 -38.943  40.932  1.00  0.00    -0.017 C 
HETATM   15  C25 UNL     1      30.476 -38.908  39.941  1.00  0.00     0.010 C 
HETATM   16  C26 UNL     1      28.474 -37.783  40.593  1.00  0.00     0.010 C 
ENDBRANCH   9  14
ENDBRANCH   8   9
ENDBRANCH   5   8
ENDBRANCH   3   4
BRANCH   3  17
HETATM   17  C21 UNL     1      27.438 -43.522  41.701  1.00  0.00    -0.010 C 
HETATM   18  C22 UNL     1      26.950 -42.069  41.615  1.00  0.00     0.010 C 
HETATM   19  C23 UNL     1      26.884 -44.134  42.928  1.00  0.00     0.010 C 
ENDBRANCH   3  17
ENDBRANCH   2   3
ENDBRANCH   1   2
BRANCH   1  20
HETATM   20  O2  UNL     1      30.331 -45.505  40.233  1.00  0.00    -0.395 OA
ATOM     21  H2  UNL     1      30.444 -46.250  39.655  1.00  0.00     0.210 HD
ENDBRANCH   1  20
BRANCH   1  22
HETATM   22  C11 UNL     1      29.078 -47.106  41.476  1.00  0.00     0.090 C 
BRANCH  22  23
HETATM   23  C12 UNL     1      27.908 -46.957  40.571  1.00  0.00     0.177 C 
BRANCH  23  24
HETATM   24  O3  UNL     1      28.077 -47.425  39.282  1.00  0.00    -0.400 OA
ATOM     25  H3  UNL     1      28.054 -46.770  38.595  1.00  0.00     0.209 HD
ENDBRANCH  23  24
ENDBRANCH  22  23
BRANCH  22  26
HETATM   26  C13 UNL     1      28.557 -47.413  42.903  1.00  0.00     0.167 C 
BRANCH  26  27
HETATM   27  N2  UNL     1      29.130 -48.421  43.540  1.00  0.00    -0.401 NA
BRANCH  27  28
HETATM   28  C14 UNL     1      29.660 -49.309  44.139  1.00  0.00     0.207 A 
HETATM   29  N3  UNL     1      29.048 -50.099  45.080  1.00  0.00    -0.327 N 
HETATM   30  C15 UNL     1      29.638 -51.074  45.744  1.00  0.00     0.074 A 
ATOM     31  H3  UNL     1      28.064 -49.918  45.282  1.00  0.00     0.168 HD
HETATM   32  C17 UNL     1      30.968 -51.367  45.518  1.00  0.00     0.064 A 
HETATM   33  C18 UNL     1      31.630 -50.612  44.591  1.00  0.00     0.067 A 
HETATM   34  N4  UNL     1      32.906 -50.664  44.168  1.00  0.00    -0.350 N 
HETATM   35  C20 UNL     1      31.018 -49.613  43.912  1.00  0.00     0.119 A 
HETATM   36  C19 UNL     1      33.068 -49.711  43.246  1.00  0.00     0.181 A 
ATOM     37  H4  UNL     1      33.622 -51.314  44.493  1.00  0.00     0.166 HD
HETATM   38  N5  UNL     1      31.899 -49.050  43.079  1.00  0.00    -0.347 N 
ATOM     39  H5  UNL     1      31.723 -48.274  42.441  1.00  0.00     0.167 HD
BRANCH  30  40
HETATM   40  C16 UNL     1      28.950 -51.890  46.738  1.00  0.00     0.288 C 
HETATM   41  O4  UNL     1      29.523 -52.779  47.408  1.00  0.00    -0.300 OA
ENDBRANCH  30  40
ENDBRANCH  27  28
ENDBRANCH  26  27
ENDBRANCH  22  26
ENDBRANCH   1  22
TORSDOF 17
ENDMDL
MODEL 5
REMARK VINA RESULT: -8.341482438      2.391      3.366
REMARK  17 active torsions:
REMARK  status: ('A' for Active; 'I' for Inactive)
REMARK    1  A    between atoms: C2_2  and  C4_4 
REMARK    2  A    between atoms: C4_4  and  C5_5 
REMARK    3  A    between atoms: C5_5  and  C6_6 
REMARK    4  A    between atoms: C5_5  and  C24_39 
REMARK    5  A    between atoms: C6_6  and  N1_7 
REMARK       I    between atoms: N1_7  and  C7_9 
REMARK    6  A    between atoms: C7_9  and  C8_11 
REMARK    7  A    between atoms: C8_11  and  C9_12 
REMARK    8  A    between atoms: C8_11  and  C21_36 
REMARK    9  A    between atoms: C9_12  and  C10_13 
REMARK   10  A    between atoms: C10_13  and  O2_14 
REMARK   11  A    between atoms: C10_13  and  C11_16 
REMARK   12  A    between atoms: C11_16  and  C12_17 
REMARK   13  A    between atoms: C11_16  and  C13_20 
REMARK   14  A    between atoms: C12_17  and  O3_18 
REMARK   15  A    between atoms: C13_20  and  N2_21 
REMARK   16  A    between atoms: N2_21  and  C14_22 
REMARK   17  A    between atoms: C15_25  and  C16_26 
ROOT
HETATM    1  C10 UNL     1      29.694 -45.981  41.580  1.00  0.00     0.131 C 
ENDROOT
BRANCH   1   2
HETATM    2  C9  UNL     1      29.432 -44.734  42.332  1.00  0.00     0.047 C 
BRANCH   2   3
HETATM    3  C8  UNL     1      28.898 -43.610  41.457  1.00  0.00     0.083 C 
BRANCH   3   4
HETATM    4  C7  UNL     1      29.711 -42.420  41.602  1.00  0.00     0.222 C 
HETATM    5  N1  UNL     1      29.554 -41.381  42.568  1.00  0.00    -0.360 N 
ATOM      6  H1  UNL     1      28.789 -41.442  43.240  1.00  0.00     0.162 HD
HETATM    7  O1  UNL     1      30.698 -42.231  40.797  1.00  0.00    -0.273 OA
BRANCH   5   8
HETATM    8  C6  UNL     1      30.439 -40.254  42.623  1.00  0.00     0.127 C 
BRANCH   8   9
HETATM    9  C5  UNL     1      29.870 -38.906  42.353  1.00  0.00     0.007 C 
BRANCH   9  10
HETATM   10  C4  UNL     1      30.907 -37.825  42.272  1.00  0.00     0.010 C 
BRANCH  10  11
HETATM   11  C2  UNL     1      30.958 -36.645  43.075  1.00  0.00    -0.022 C 
HETATM   12  C1  UNL     1      30.584 -36.747  44.523  1.00  0.00     0.009 C 
HETATM   13  C3  UNL     1      30.219 -35.421  42.547  1.00  0.00     0.009 C 
ENDBRANCH  10  11
ENDBRANCH   9  10
BRANCH   9  14
HETATM   14  C24 UNL     1      29.303 -38.932  40.895  1.00  0.00    -0.017 C 
HETATM   15  C25 UNL     1      30.453 -38.897  39.904  1.00  0.00     0.010 C 
HETATM   16  C26 UNL     1      28.439 -37.784  40.543  1.00  0.00     0.010 C 
ENDBRANCH   9  14
ENDBRANCH   8   9
ENDBRANCH   5   8
ENDBRANCH   3   4
BRANCH   3  17
HETATM   17  C21 UNL     1      27.433 -43.499  41.668  1.00  0.00    -0.010 C 
HETATM   18  C22 UNL     1      26.938 -42.055  41.519  1.00  0.00     0.010 C 
HETATM   19  C23 UNL     1      26.867 -44.067  42.911  1.00  0.00     0.010 C 
ENDBRANCH   3  17
ENDBRANCH   2   3
ENDBRANCH   1   2
BRANCH   1  20
HETATM   20  O2  UNL     1      30.447 -45.743  40.417  1.00  0.00    -0.395 OA
ATOM     21  H2  UNL     1      30.060 -45.064  39.876  1.00  0.00     0.210 HD
ENDBRANCH   1  20
BRANCH   1  22
HETATM   22  C11 UNL     1      28.488 -46.807  41.258  1.00  0.00     0.090 C 
BRANCH  22  23
HETATM   23  C12 UNL     1      27.985 -47.612  42.403  1.00  0.00     0.177 C 
BRANCH  23  24
HETATM   24  O3  UNL     1      28.904 -47.894  43.395  1.00  0.00    -0.400 OA
ATOM     25  H3  UNL     1      28.550 -48.247  44.202  1.00  0.00     0.209 HD
ENDBRANCH  23  24
ENDBRANCH  22  23
BRANCH  22  26
HETATM   26  C13 UNL     1      28.835 -47.772  40.097  1.00  0.00     0.167 C 
BRANCH  26  27
HETATM   27  N2  UNL     1      29.547 -48.843  40.406  1.00  0.00    -0.401 NA
BRANCH  27  28
HETATM   28  C14 UNL     1      30.166 -49.830  40.672  1.00  0.00     0.207 A 
HETATM   29  N3  UNL     1      29.976 -51.059  40.091  1.00  0.00    -0.327 N 
HETATM   30  C15 UNL     1      30.656 -52.148  40.393  1.00  0.00     0.074 A 
ATOM     31  H3  UNL     1      29.255 -51.137  39.373  1.00  0.00     0.168 HD
HETATM   32  C17 UNL     1      31.644 -52.109  41.357  1.00  0.00     0.064 A 
HETATM   33  C18 UNL     1      31.878 -50.911  41.971  1.00  0.00     0.067 A 
HETATM   34  N4  UNL     1      32.759 -50.574  42.930  1.00  0.00    -0.350 N 
HETATM   35  C20 UNL     1      31.176 -49.796  41.656  1.00  0.00     0.119 A 
HETATM   36  C19 UNL     1      32.596 -49.275  43.195  1.00  0.00     0.181 A 
ATOM     37  H4  UNL     1      33.431 -51.199  43.376  1.00  0.00     0.166 HD
HETATM   38  N5  UNL     1      31.612 -48.781  42.407  1.00  0.00    -0.347 N 
ATOM     39  H5  UNL     1      31.271 -47.820  42.390  1.00  0.00     0.167 HD
BRANCH  30  40
HETATM   40  C16 UNL     1      30.422 -53.436  39.751  1.00  0.00     0.288 C 
HETATM   41  O4  UNL     1      29.548 -54.244  40.136  1.00  0.00    -0.300 OA
ENDBRANCH  30  40
ENDBRANCH  27  28
ENDBRANCH  26  27
ENDBRANCH  22  26
ENDBRANCH   1  22
TORSDOF 17
ENDMDL
