MODEL 1
REMARK VINA RESULT: -7.472429547      0.000      0.000
REMARK  16 active torsions:
REMARK  status: ('A' for Active; 'I' for Inactive)
REMARK    1  A    between atoms: C2_2  and  C3_3 
REMARK    2  A    between atoms: C3_3  and  C4_4 
REMARK    3  A    between atoms: C4_4  and  N1_5 
REMARK       I    between atoms: C5_7  and  N3_9 
REMARK    4  A    between atoms: C8_12  and  C9_13 
REMARK    5  A    between atoms: C9_13  and  C10_14 
REMARK    6  A    between atoms: C10_14  and  C11_15 
REMARK    7  A    between atoms: C13_17  and  C14_18 
REMARK    8  A    between atoms: C14_18  and  C15_19 
REMARK       I    between atoms: C15_19  and  N4_21 
REMARK    9  A    between atoms: N4_21  and  C16_23 
REMARK   10  A    between atoms: C16_23  and  C17_24 
REMARK   11  A    between atoms: C16_23  and  C24_31 
REMARK   12  A    between atoms: C17_24  and  C18_25 
REMARK   13  A    between atoms: C24_31  and  N5_32 
REMARK   14  A    between atoms: C24_31  and  C25_36 
REMARK   15  A    between atoms: C25_36  and  O2_37 
REMARK   16  A    between atoms: C25_36  and  O3_39 
ROOT
HETATM    1  C15 UNL     1      29.858 -45.312  41.660  1.00  0.00     0.218 C 
HETATM    2  O1  UNL     1      29.978 -45.356  40.414  1.00  0.00    -0.274 OA
HETATM    3  N4  UNL     1      29.528 -44.104  42.263  1.00  0.00    -0.354 N 
ATOM      4  H4  UNL     1      29.432 -44.076  43.277  1.00  0.00     0.162 HD
ENDROOT
BRANCH   1   5
HETATM    5  C14 UNL     1      30.061 -46.502  42.467  1.00  0.00     0.109 C 
BRANCH   5   6
HETATM    6  C13 UNL     1      29.076 -47.649  42.141  1.00  0.00     0.016 C 
HETATM    7  C8  UNL     1      27.710 -47.069  42.110  1.00  0.00    -0.007 C 
HETATM    8  C7  UNL     1      26.766 -47.368  43.191  1.00  0.00     0.025 C 
HETATM    9  C6  UNL     1      27.416 -48.126  44.356  1.00  0.00     0.126 C 
HETATM   10  N3  UNL     1      28.215 -49.212  43.763  1.00  0.00    -0.355 N 
HETATM   11  C5  UNL     1      27.827 -50.557  43.879  1.00  0.00     0.186 C 
HETATM   12  C26 UNL     1      29.397 -48.740  43.075  1.00  0.00     0.131 C 
HETATM   13  N1  UNL     1      26.698 -50.825  44.425  1.00  0.00    -0.365 N 
HETATM   14  N2  UNL     1      28.707 -51.550  43.383  1.00  0.00    -0.064 NA
ATOM     15  H1  UNL     1      26.128 -50.044  44.754  1.00  0.00     0.162 HD
BRANCH   7  16
HETATM   16  C9  UNL     1      27.127 -47.361  40.758  1.00  0.00     0.005 C 
BRANCH  16  17
HETATM   17  C10 UNL     1      26.099 -48.386  40.602  1.00  0.00     0.000 C 
BRANCH  17  18
HETATM   18  C11 UNL     1      26.416 -49.669  39.928  1.00  0.00    -0.005 C 
HETATM   19  C12 UNL     1      26.022 -50.846  40.851  1.00  0.00     0.005 C 
ENDBRANCH  17  18
ENDBRANCH  16  17
ENDBRANCH   7  16
BRANCH  13  20
HETATM   20  C4  UNL     1      26.184 -52.159  44.604  1.00  0.00     0.122 C 
BRANCH  20  21
HETATM   21  C3  UNL     1      24.682 -52.228  44.416  1.00  0.00     0.019 C 
BRANCH  21  22
HETATM   22  C2  UNL     1      24.143 -50.822  44.615  1.00  0.00    -0.003 C 
HETATM   23  C1  UNL     1      23.288 -50.493  43.396  1.00  0.00     0.005 C 
ENDBRANCH  21  22
ENDBRANCH  20  21
ENDBRANCH  13  20
ENDBRANCH   5   6
ENDBRANCH   1   5
BRANCH   3  24
HETATM   24  C16 UNL     1      29.305 -42.835  41.485  1.00  0.00     0.120 C 
BRANCH  24  25
HETATM   25  C17 UNL     1      30.052 -41.784  42.216  1.00  0.00     0.032 C 
BRANCH  25  26
HETATM   26  C18 UNL     1      29.652 -40.377  42.123  1.00  0.00    -0.013 C 
HETATM   27  C19 UNL     1      30.042 -39.685  40.841  1.00  0.00     0.005 C 
HETATM   28  C20 UNL     1      29.234 -38.396  40.776  1.00  0.00     0.000 C 
HETATM   29  C21 UNL     1      29.586 -37.603  42.008  1.00  0.00     0.000 C 
HETATM   30  C22 UNL     1      30.711 -38.210  42.808  1.00  0.00     0.000 C 
HETATM   31  C23 UNL     1      30.482 -39.627  43.207  1.00  0.00     0.005 C 
ENDBRANCH  25  26
ENDBRANCH  24  25
BRANCH  24  32
HETATM   32  C24 UNL     1      27.812 -42.712  41.476  1.00  0.00     0.260 C 
BRANCH  32  33
HETATM   33  N5  UNL     1      27.140 -43.663  40.616  1.00  0.00    -0.068 N 
ATOM     34  H53 UNL     1      26.177 -43.372  40.449  1.00  0.00     0.275 HD
ATOM     35  H52 UNL     1      27.507 -43.605  39.666  1.00  0.00     0.275 HD
ATOM     36  H51 UNL     1      27.167 -44.626  40.951  1.00  0.00     0.275 HD
ENDBRANCH  32  33
BRANCH  32  37
HETATM   37  C25 UNL     1      27.135 -42.589  42.805  1.00  0.00     0.286 C 
BRANCH  37  38
HETATM   38  O2  UNL     1      26.557 -43.849  43.158  1.00  0.00    -0.369 OA
ATOM     39  H2  UNL     1      26.318 -43.836  44.077  1.00  0.00     0.212 HD
ENDBRANCH  37  38
BRANCH  37  40
HETATM   40  O3  UNL     1      26.023 -41.729  42.725  1.00  0.00    -0.369 OA
ATOM     41  H3  UNL     1      25.954 -41.190  43.504  1.00  0.00     0.212 HD
ENDBRANCH  37  40
ENDBRANCH  32  37
ENDBRANCH  24  32
ENDBRANCH   3  24
TORSDOF 16
ENDMDL
MODEL 2
REMARK VINA RESULT: -7.448700090      2.605      3.443
REMARK  16 active torsions:
REMARK  status: ('A' for Active; 'I' for Inactive)
REMARK    1  A    between atoms: C2_2  and  C3_3 
REMARK    2  A    between atoms: C3_3  and  C4_4 
REMARK    3  A    between atoms: C4_4  and  N1_5 
REMARK       I    between atoms: C5_7  and  N3_9 
REMARK    4  A    between atoms: C8_12  and  C9_13 
REMARK    5  A    between atoms: C9_13  and  C10_14 
REMARK    6  A    between atoms: C10_14  and  C11_15 
REMARK    7  A    between atoms: C13_17  and  C14_18 
REMARK    8  A    between atoms: C14_18  and  C15_19 
REMARK       I    between atoms: C15_19  and  N4_21 
REMARK    9  A    between atoms: N4_21  and  C16_23 
REMARK   10  A    between atoms: C16_23  and  C17_24 
REMARK   11  A    between atoms: C16_23  and  C24_31 
REMARK   12  A    between atoms: C17_24  and  C18_25 
REMARK   13  A    between atoms: C24_31  and  N5_32 
REMARK   14  A    between atoms: C24_31  and  C25_36 
REMARK   15  A    between atoms: C25_36  and  O2_37 
REMARK   16  A    between atoms: C25_36  and  O3_39 
ROOT
HETATM    1  C15 UNL     1      30.144 -45.295  41.598  1.00  0.00     0.218 C 
HETATM    2  O1  UNL     1      30.276 -45.246  40.353  1.00  0.00    -0.274 OA
HETATM    3  N4  UNL     1      29.591 -44.204  42.260  1.00  0.00    -0.354 N 
ATOM      4  H4  UNL     1      29.487 -44.252  43.273  1.00  0.00     0.162 HD
ENDROOT
BRANCH   1   5
HETATM    5  C14 UNL     1      30.561 -46.469  42.343  1.00  0.00     0.109 C 
BRANCH   5   6
HETATM    6  C13 UNL     1      30.405 -47.792  41.555  1.00  0.00     0.016 C 
HETATM    7  C8  UNL     1      28.952 -48.042  41.388  1.00  0.00    -0.007 C 
HETATM    8  C7  UNL     1      28.303 -49.115  42.149  1.00  0.00     0.025 C 
HETATM    9  C6  UNL     1      29.227 -49.738  43.203  1.00  0.00     0.126 C 
HETATM   10  N3  UNL     1      30.519 -49.989  42.542  1.00  0.00    -0.355 N 
HETATM   11  C5  UNL     1      30.952 -51.293  42.248  1.00  0.00     0.186 C 
HETATM   12  C26 UNL     1      31.252 -48.778  42.244  1.00  0.00     0.131 C 
HETATM   13  N1  UNL     1      30.152 -52.270  42.472  1.00  0.00    -0.365 N 
HETATM   14  N2  UNL     1      32.255 -51.459  41.718  1.00  0.00    -0.064 NA
ATOM     15  H1  UNL     1      29.231 -52.056  42.856  1.00  0.00     0.162 HD
BRANCH   7  16
HETATM   16  C9  UNL     1      28.681 -48.156  39.916  1.00  0.00     0.005 C 
BRANCH  16  17
HETATM   17  C10 UNL     1      29.757 -48.493  38.989  1.00  0.00     0.000 C 
BRANCH  17  18
HETATM   18  C11 UNL     1      30.176 -49.904  38.808  1.00  0.00    -0.005 C 
HETATM   19  C12 UNL     1      28.948 -50.831  38.963  1.00  0.00     0.005 C 
ENDBRANCH  17  18
ENDBRANCH  16  17
ENDBRANCH   7  16
BRANCH  13  20
HETATM   20  C4  UNL     1      30.473 -53.651  42.215  1.00  0.00     0.122 C 
BRANCH  20  21
HETATM   21  C3  UNL     1      30.049 -54.093  40.829  1.00  0.00     0.019 C 
BRANCH  21  22
HETATM   22  C2  UNL     1      31.304 -54.548  40.104  1.00  0.00    -0.003 C 
HETATM   23  C1  UNL     1      31.461 -53.656  38.877  1.00  0.00     0.005 C 
ENDBRANCH  21  22
ENDBRANCH  20  21
ENDBRANCH  13  20
ENDBRANCH   5   6
ENDBRANCH   1   5
BRANCH   3  24
HETATM   24  C16 UNL     1      29.140 -42.958  41.549  1.00  0.00     0.120 C 
BRANCH  24  25
HETATM   25  C17 UNL     1      30.101 -41.903  41.946  1.00  0.00     0.032 C 
BRANCH  25  26
HETATM   26  C18 UNL     1      29.708 -40.491  41.948  1.00  0.00    -0.013 C 
HETATM   27  C19 UNL     1      30.148 -39.702  40.739  1.00  0.00     0.005 C 
HETATM   28  C20 UNL     1      29.346 -38.409  40.745  1.00  0.00     0.000 C 
HETATM   29  C21 UNL     1      29.651 -37.716  42.047  1.00  0.00     0.000 C 
HETATM   30  C22 UNL     1      30.743 -38.389  42.840  1.00  0.00     0.000 C 
HETATM   31  C23 UNL     1      30.495 -39.832  43.119  1.00  0.00     0.005 C 
ENDBRANCH  25  26
ENDBRANCH  24  25
BRANCH  24  32
HETATM   32  C24 UNL     1      27.730 -42.796  42.032  1.00  0.00     0.260 C 
BRANCH  32  33
HETATM   33  N5  UNL     1      27.080 -41.584  41.582  1.00  0.00    -0.068 N 
ATOM     34  H53 UNL     1      26.074 -41.639  41.743  1.00  0.00     0.275 HD
ATOM     35  H52 UNL     1      27.313 -40.805  42.198  1.00  0.00     0.275 HD
ATOM     36  H51 UNL     1      27.271 -41.339  40.610  1.00  0.00     0.275 HD
ENDBRANCH  32  33
BRANCH  32  37
HETATM   37  C25 UNL     1      26.833 -43.987  41.910  1.00  0.00     0.286 C 
BRANCH  37  38
HETATM   38  O2  UNL     1      26.984 -44.811  43.070  1.00  0.00    -0.369 OA
ATOM     39  H2  UNL     1      26.445 -44.466  43.771  1.00  0.00     0.212 HD
ENDBRANCH  37  38
BRANCH  37  40
HETATM   40  O3  UNL     1      27.248 -44.824  40.857  1.00  0.00    -0.369 OA
ATOM     41  H3  UNL     1      27.232 -44.360  40.029  1.00  0.00     0.212 HD
ENDBRANCH  37  40
ENDBRANCH  32  37
ENDBRANCH  24  32
ENDBRANCH   3  24
TORSDOF 16
ENDMDL
MODEL 3
REMARK VINA RESULT: -7.386580218      0.926      1.439
REMARK  16 active torsions:
REMARK  status: ('A' for Active; 'I' for Inactive)
REMARK    1  A    between atoms: C2_2  and  C3_3 
REMARK    2  A    between atoms: C3_3  and  C4_4 
REMARK    3  A    between atoms: C4_4  and  N1_5 
REMARK       I    between atoms: C5_7  and  N3_9 
REMARK    4  A    between atoms: C8_12  and  C9_13 
REMARK    5  A    between atoms: C9_13  and  C10_14 
REMARK    6  A    between atoms: C10_14  and  C11_15 
REMARK    7  A    between atoms: C13_17  and  C14_18 
REMARK    8  A    between atoms: C14_18  and  C15_19 
REMARK       I    between atoms: C15_19  and  N4_21 
REMARK    9  A    between atoms: N4_21  and  C16_23 
REMARK   10  A    between atoms: C16_23  and  C17_24 
REMARK   11  A    between atoms: C16_23  and  C24_31 
REMARK   12  A    between atoms: C17_24  and  C18_25 
REMARK   13  A    between atoms: C24_31  and  N5_32 
REMARK   14  A    between atoms: C24_31  and  C25_36 
REMARK   15  A    between atoms: C25_36  and  O2_37 
REMARK   16  A    between atoms: C25_36  and  O3_39 
ROOT
HETATM    1  C15 UNL     1      29.948 -45.402  41.668  1.00  0.00     0.218 C 
HETATM    2  O1  UNL     1      30.011 -45.470  40.418  1.00  0.00    -0.274 OA
HETATM    3  N4  UNL     1      29.615 -44.189  42.260  1.00  0.00    -0.354 N 
ATOM      4  H4  UNL     1      29.565 -44.142  43.277  1.00  0.00     0.162 HD
ENDROOT
BRANCH   1   5
HETATM    5  C14 UNL     1      30.219 -46.568  42.489  1.00  0.00     0.109 C 
BRANCH   5   6
HETATM    6  C13 UNL     1      29.138 -47.669  42.379  1.00  0.00     0.016 C 
HETATM    7  C8  UNL     1      28.187 -47.474  43.501  1.00  0.00    -0.007 C 
HETATM    8  C7  UNL     1      28.180 -48.415  44.625  1.00  0.00     0.025 C 
HETATM    9  C6  UNL     1      29.343 -49.414  44.571  1.00  0.00     0.126 C 
HETATM   10  N3  UNL     1      29.401 -49.925  43.191  1.00  0.00    -0.355 N 
HETATM   11  C5  UNL     1      29.030 -51.244  42.879  1.00  0.00     0.186 C 
HETATM   12  C26 UNL     1      29.866 -48.941  42.238  1.00  0.00     0.131 C 
HETATM   13  N1  UNL     1      28.534 -51.977  43.808  1.00  0.00    -0.365 N 
HETATM   14  N2  UNL     1      29.224 -51.694  41.551  1.00  0.00    -0.064 NA
ATOM     15  H1  UNL     1      28.431 -51.567  44.737  1.00  0.00     0.162 HD
BRANCH   7  16
HETATM   16  C9  UNL     1      26.819 -47.300  42.907  1.00  0.00     0.005 C 
BRANCH  16  17
HETATM   17  C10 UNL     1      25.890 -48.423  42.848  1.00  0.00     0.000 C 
BRANCH  17  18
HETATM   18  C11 UNL     1      25.883 -49.332  41.675  1.00  0.00    -0.005 C 
HETATM   19  C12 UNL     1      26.031 -48.501  40.379  1.00  0.00     0.005 C 
ENDBRANCH  17  18
ENDBRANCH  16  17
ENDBRANCH   7  16
BRANCH  13  20
HETATM   20  C4  UNL     1      28.114 -53.342  43.620  1.00  0.00     0.122 C 
BRANCH  20  21
HETATM   21  C3  UNL     1      26.615 -53.508  43.762  1.00  0.00     0.019 C 
BRANCH  21  22
HETATM   22  C2  UNL     1      26.125 -52.387  44.662  1.00  0.00    -0.003 C 
HETATM   23  C1  UNL     1      24.764 -51.949  44.132  1.00  0.00     0.005 C 
ENDBRANCH  21  22
ENDBRANCH  20  21
ENDBRANCH  13  20
ENDBRANCH   5   6
ENDBRANCH   1   5
BRANCH   3  24
HETATM   24  C16 UNL     1      29.324 -42.943  41.468  1.00  0.00     0.120 C 
BRANCH  24  25
HETATM   25  C17 UNL     1      30.044 -41.851  42.164  1.00  0.00     0.032 C 
BRANCH  25  26
HETATM   26  C18 UNL     1      29.624 -40.456  42.007  1.00  0.00    -0.013 C 
HETATM   27  C19 UNL     1      30.168 -39.757  40.786  1.00  0.00     0.005 C 
HETATM   28  C20 UNL     1      29.343 -38.491  40.603  1.00  0.00     0.000 C 
HETATM   29  C21 UNL     1      29.500 -37.685  41.866  1.00  0.00     0.000 C 
HETATM   30  C22 UNL     1      30.520 -38.259  42.817  1.00  0.00     0.000 C 
HETATM   31  C23 UNL     1      30.275 -39.681  43.190  1.00  0.00     0.005 C 
ENDBRANCH  25  26
ENDBRANCH  24  25
BRANCH  24  32
HETATM   32  C24 UNL     1      27.827 -42.881  41.492  1.00  0.00     0.260 C 
BRANCH  32  33
HETATM   33  N5  UNL     1      27.173 -43.917  40.722  1.00  0.00    -0.068 N 
ATOM     34  H53 UNL     1      26.936 -43.572  39.792  1.00  0.00     0.275 HD
ATOM     35  H52 UNL     1      27.838 -44.649  40.473  1.00  0.00     0.275 HD
ATOM     36  H51 UNL     1      26.351 -44.320  41.171  1.00  0.00     0.275 HD
ENDBRANCH  32  33
BRANCH  32  37
HETATM   37  C25 UNL     1      27.179 -42.688  42.828  1.00  0.00     0.286 C 
BRANCH  37  38
HETATM   38  O2  UNL     1      26.498 -43.889  43.198  1.00  0.00    -0.369 OA
ATOM     39  H2  UNL     1      26.680 -44.563  42.554  1.00  0.00     0.212 HD
ENDBRANCH  37  38
BRANCH  37  40
HETATM   40  O3  UNL     1      26.146 -41.735  42.752  1.00  0.00    -0.369 OA
ATOM     41  H3  UNL     1      25.662 -41.694  43.568  1.00  0.00     0.212 HD
ENDBRANCH  37  40
ENDBRANCH  32  37
ENDBRANCH  24  32
ENDBRANCH   3  24
TORSDOF 16
ENDMDL
MODEL 4
REMARK VINA RESULT: -7.291186783      2.564      3.637
REMARK  16 active torsions:
REMARK  status: ('A' for Active; 'I' for Inactive)
REMARK    1  A    between atoms: C2_2  and  C3_3 
REMARK    2  A    between atoms: C3_3  and  C4_4 
REMARK    3  A    between atoms: C4_4  and  N1_5 
REMARK       I    between atoms: C5_7  and  N3_9 
REMARK    4  A    between atoms: C8_12  and  C9_13 
REMARK    5  A    between atoms: C9_13  and  C10_14 
REMARK    6  A    between atoms: C10_14  and  C11_15 
REMARK    7  A    between atoms: C13_17  and  C14_18 
REMARK    8  A    between atoms: C14_18  and  C15_19 
REMARK       I    between atoms: C15_19  and  N4_21 
REMARK    9  A    between atoms: N4_21  and  C16_23 
REMARK   10  A    between atoms: C16_23  and  C17_24 
REMARK   11  A    between atoms: C16_23  and  C24_31 
REMARK   12  A    between atoms: C17_24  and  C18_25 
REMARK   13  A    between atoms: C24_31  and  N5_32 
REMARK   14  A    between atoms: C24_31  and  C25_36 
REMARK   15  A    between atoms: C25_36  and  O2_37 
REMARK   16  A    between atoms: C25_36  and  O3_39 
ROOT
HETATM    1  C15 UNL     1      30.067 -45.202  41.649  1.00  0.00     0.218 C 
HETATM    2  O1  UNL     1      30.119 -45.219  40.397  1.00  0.00    -0.274 OA
HETATM    3  N4  UNL     1      29.592 -44.062  42.288  1.00  0.00    -0.354 N 
ATOM      4  H4  UNL     1      29.552 -44.056  43.307  1.00  0.00     0.162 HD
ENDROOT
BRANCH   1   5
HETATM    5  C14 UNL     1      30.496 -46.351  42.426  1.00  0.00     0.109 C 
BRANCH   5   6
HETATM    6  C13 UNL     1      29.661 -47.626  42.160  1.00  0.00     0.016 C 
HETATM    7  C8  UNL     1      29.222 -48.153  43.476  1.00  0.00    -0.007 C 
HETATM    8  C7  UNL     1      29.824 -49.380  44.009  1.00  0.00     0.025 C 
HETATM    9  C6  UNL     1      31.015 -49.869  43.174  1.00  0.00     0.126 C 
HETATM   10  N3  UNL     1      30.597 -49.813  41.763  1.00  0.00    -0.355 N 
HETATM   11  C5  UNL     1      30.357 -50.982  41.022  1.00  0.00     0.186 C 
HETATM   12  C26 UNL     1      30.470 -48.463  41.260  1.00  0.00     0.131 C 
HETATM   13  N1  UNL     1      30.405 -52.112  41.626  1.00  0.00    -0.365 N 
HETATM   14  N2  UNL     1      30.072 -50.848  39.641  1.00  0.00    -0.064 NA
ATOM     15  H1  UNL     1      30.617 -52.112  42.624  1.00  0.00     0.162 HD
BRANCH   7  16
HETATM   16  C9  UNL     1      27.723 -48.228  43.455  1.00  0.00     0.005 C 
BRANCH  16  17
HETATM   17  C10 UNL     1      27.038 -49.087  42.494  1.00  0.00     0.000 C 
BRANCH  17  18
HETATM   18  C11 UNL     1      25.827 -48.605  41.786  1.00  0.00    -0.005 C 
HETATM   19  C12 UNL     1      26.195 -48.233  40.330  1.00  0.00     0.005 C 
ENDBRANCH  17  18
ENDBRANCH  16  17
ENDBRANCH   7  16
BRANCH  13  20
HETATM   20  C4  UNL     1      30.177 -53.381  40.983  1.00  0.00     0.122 C 
BRANCH  20  21
HETATM   21  C3  UNL     1      31.469 -54.082  40.618  1.00  0.00     0.019 C 
BRANCH  21  22
HETATM   22  C2  UNL     1      31.229 -54.801  39.301  1.00  0.00    -0.003 C 
HETATM   23  C1  UNL     1      31.519 -53.803  38.186  1.00  0.00     0.005 C 
ENDBRANCH  21  22
ENDBRANCH  20  21
ENDBRANCH  13  20
ENDBRANCH   5   6
ENDBRANCH   1   5
BRANCH   3  24
HETATM   24  C16 UNL     1      29.133 -42.837  41.544  1.00  0.00     0.120 C 
BRANCH  24  25
HETATM   25  C17 UNL     1      30.091 -41.767  41.910  1.00  0.00     0.032 C 
BRANCH  25  26
HETATM   26  C18 UNL     1      29.676 -40.362  41.922  1.00  0.00    -0.013 C 
HETATM   27  C19 UNL     1      30.108 -39.556  40.722  1.00  0.00     0.005 C 
HETATM   28  C20 UNL     1      29.286 -38.275  40.736  1.00  0.00     0.000 C 
HETATM   29  C21 UNL     1      29.576 -37.588  42.045  1.00  0.00     0.000 C 
HETATM   30  C22 UNL     1      30.676 -38.252  42.836  1.00  0.00     0.000 C 
HETATM   31  C23 UNL     1      30.450 -39.701  43.101  1.00  0.00     0.005 C 
ENDBRANCH  25  26
ENDBRANCH  24  25
BRANCH  24  32
HETATM   32  C24 UNL     1      27.724 -42.669  42.024  1.00  0.00     0.260 C 
BRANCH  32  33
HETATM   33  N5  UNL     1      27.069 -41.469  41.548  1.00  0.00    -0.068 N 
ATOM     34  H53 UNL     1      26.066 -41.517  41.727  1.00  0.00     0.275 HD
ATOM     35  H52 UNL     1      27.314 -40.673  42.136  1.00  0.00     0.275 HD
ATOM     36  H51 UNL     1      27.246 -41.255  40.567  1.00  0.00     0.275 HD
ENDBRANCH  32  33
BRANCH  32  37
HETATM   37  C25 UNL     1      26.830 -43.866  41.930  1.00  0.00     0.286 C 
BRANCH  37  38
HETATM   38  O2  UNL     1      26.996 -44.670  43.101  1.00  0.00    -0.369 OA
ATOM     39  H2  UNL     1      26.376 -45.389  43.076  1.00  0.00     0.212 HD
ENDBRANCH  37  38
BRANCH  37  40
HETATM   40  O3  UNL     1      27.238 -44.717  40.886  1.00  0.00    -0.369 OA
ATOM     41  H3  UNL     1      26.673 -45.478  40.829  1.00  0.00     0.212 HD
ENDBRANCH  37  40
ENDBRANCH  32  37
ENDBRANCH  24  32
ENDBRANCH   3  24
TORSDOF 16
ENDMDL
MODEL 5
REMARK VINA RESULT: -7.285592951      2.013      2.884
REMARK  16 active torsions:
REMARK  status: ('A' for Active; 'I' for Inactive)
REMARK    1  A    between atoms: C2_2  and  C3_3 
REMARK    2  A    between atoms: C3_3  and  C4_4 
REMARK    3  A    between atoms: C4_4  and  N1_5 
REMARK       I    between atoms: C5_7  and  N3_9 
REMARK    4  A    between atoms: C8_12  and  C9_13 
REMARK    5  A    between atoms: C9_13  and  C10_14 
REMARK    6  A    between atoms: C10_14  and  C11_15 
REMARK    7  A    between atoms: C13_17  and  C14_18 
REMARK    8  A    between atoms: C14_18  and  C15_19 
REMARK       I    between atoms: C15_19  and  N4_21 
REMARK    9  A    between atoms: N4_21  and  C16_23 
REMARK   10  A    between atoms: C16_23  and  C17_24 
REMARK   11  A    between atoms: C16_23  and  C24_31 
REMARK   12  A    between atoms: C17_24  and  C18_25 
REMARK   13  A    between atoms: C24_31  and  N5_32 
REMARK   14  A    between atoms: C24_31  and  C25_36 
REMARK   15  A    between atoms: C25_36  and  O2_37 
REMARK   16  A    between atoms: C25_36  and  O3_39 
ROOT
HETATM    1  C15 UNL     1      30.068 -45.255  41.695  1.00  0.00     0.218 C 
HETATM    2  O1  UNL     1      30.109 -45.299  40.444  1.00  0.00    -0.274 OA
HETATM    3  N4  UNL     1      29.601 -44.101  42.314  1.00  0.00    -0.354 N 
ATOM      4  H4  UNL     1      29.570 -44.073  43.332  1.00  0.00     0.162 HD
ENDROOT
BRANCH   1   5
HETATM    5  C14 UNL     1      30.500 -46.389  42.492  1.00  0.00     0.109 C 
BRANCH   5   6
HETATM    6  C13 UNL     1      29.777 -47.710  42.136  1.00  0.00     0.016 C 
HETATM    7  C8  UNL     1      29.001 -48.129  43.330  1.00  0.00    -0.007 C 
HETATM    8  C7  UNL     1      29.445 -49.282  44.120  1.00  0.00     0.025 C 
HETATM    9  C6  UNL     1      30.821 -49.805  43.688  1.00  0.00     0.126 C 
HETATM   10  N3  UNL     1      30.801 -49.892  42.218  1.00  0.00    -0.355 N 
HETATM   11  C5  UNL     1      30.778 -51.130  41.555  1.00  0.00     0.186 C 
HETATM   12  C26 UNL     1      30.805 -48.598  41.571  1.00  0.00     0.131 C 
HETATM   13  N1  UNL     1      30.668 -52.199  42.256  1.00  0.00    -0.365 N 
HETATM   14  N2  UNL     1      30.877 -51.132  40.142  1.00  0.00    -0.064 NA
ATOM     15  H1  UNL     1      30.603 -52.101  43.269  1.00  0.00     0.162 HD
BRANCH   7  16
HETATM   16  C9  UNL     1      27.564 -48.254  42.913  1.00  0.00     0.005 C 
BRANCH  16  17
HETATM   17  C10 UNL     1      27.089 -49.463  42.249  1.00  0.00     0.000 C 
BRANCH  17  18
HETATM   18  C11 UNL     1      25.922 -49.409  41.335  1.00  0.00    -0.005 C 
HETATM   19  C12 UNL     1      26.106 -48.244  40.334  1.00  0.00     0.005 C 
ENDBRANCH  17  18
ENDBRANCH  16  17
ENDBRANCH   7  16
BRANCH  13  20
HETATM   20  C4  UNL     1      30.632 -53.528  41.700  1.00  0.00     0.122 C 
BRANCH  20  21
HETATM   21  C3  UNL     1      29.254 -54.150  41.783  1.00  0.00     0.019 C 
BRANCH  21  22
HETATM   22  C2  UNL     1      28.614 -53.998  40.413  1.00  0.00    -0.003 C 
HETATM   23  C1  UNL     1      27.554 -52.910  40.531  1.00  0.00     0.005 C 
ENDBRANCH  21  22
ENDBRANCH  20  21
ENDBRANCH  13  20
ENDBRANCH   5   6
ENDBRANCH   1   5
BRANCH   3  24
HETATM   24  C16 UNL     1      29.140 -42.891  41.548  1.00  0.00     0.120 C 
BRANCH  24  25
HETATM   25  C17 UNL     1      30.098 -41.813  41.891  1.00  0.00     0.032 C 
BRANCH  25  26
HETATM   26  C18 UNL     1      29.679 -40.409  41.889  1.00  0.00    -0.013 C 
HETATM   27  C19 UNL     1      30.173 -39.595  40.718  1.00  0.00     0.005 C 
HETATM   28  C20 UNL     1      29.348 -38.316  40.694  1.00  0.00     0.000 C 
HETATM   29  C21 UNL     1      29.565 -37.636  42.022  1.00  0.00     0.000 C 
HETATM   30  C22 UNL     1      30.622 -38.302  42.867  1.00  0.00     0.000 C 
HETATM   31  C23 UNL     1      30.386 -39.752  43.112  1.00  0.00     0.005 C 
ENDBRANCH  25  26
ENDBRANCH  24  25
BRANCH  24  32
HETATM   32  C24 UNL     1      27.732 -42.715  42.028  1.00  0.00     0.260 C 
BRANCH  32  33
HETATM   33  N5  UNL     1      27.082 -41.514  41.548  1.00  0.00    -0.068 N 
ATOM     34  H53 UNL     1      26.751 -41.647  40.593  1.00  0.00     0.275 HD
ATOM     35  H52 UNL     1      26.190 -41.376  42.024  1.00  0.00     0.275 HD
ATOM     36  H51 UNL     1      27.654 -40.671  41.612  1.00  0.00     0.275 HD
ENDBRANCH  32  33
BRANCH  32  37
HETATM   37  C25 UNL     1      26.833 -43.907  41.939  1.00  0.00     0.286 C 
BRANCH  37  38
HETATM   38  O2  UNL     1      26.983 -44.700  43.121  1.00  0.00    -0.369 OA
ATOM     39  H2  UNL     1      26.175 -45.170  43.287  1.00  0.00     0.212 HD
ENDBRANCH  37  38
BRANCH  37  40
HETATM   40  O3  UNL     1      27.246 -44.773  40.909  1.00  0.00    -0.369 OA
ATOM     41  H3  UNL     1      26.753 -44.613  40.113  1.00  0.00     0.212 HD
ENDBRANCH  37  40
ENDBRANCH  32  37
ENDBRANCH  24  32
ENDBRANCH   3  24
TORSDOF 16
ENDMDL
