MODEL 1
REMARK VINA RESULT: -7.145174957      0.000      0.000
REMARK  18 active torsions:
REMARK  status: ('A' for Active; 'I' for Inactive)
REMARK    1  A    between atoms: C2_2  and  C3_3 
REMARK    2  A    between atoms: C3_3  and  C4_4 
REMARK    3  A    between atoms: C4_4  and  N1_5 
REMARK    4  A    between atoms: C7_8  and  C8_9 
REMARK    5  A    between atoms: C8_9  and  C9_10 
REMARK    6  A    between atoms: C9_10  and  C10_11 
REMARK    7  A    between atoms: C12_13  and  C13_14 
REMARK    8  A    between atoms: C13_14  and  O1_15 
REMARK    9  A    between atoms: C13_14  and  C14_17 
REMARK   10  A    between atoms: C14_17  and  C15_18 
REMARK   11  A    between atoms: C15_18  and  C16_19 
REMARK   12  A    between atoms: C16_19  and  C17_20 
REMARK   13  A    between atoms: C17_20  and  C18_21 
REMARK   14  A    between atoms: C19_23  and  C20_24 
REMARK   15  A    between atoms: C20_24  and  O3_25 
REMARK   16  A    between atoms: C21_27  and  O4_28 
REMARK   17  A    between atoms: C22_30  and  O5_31 
REMARK   18  A    between atoms: C23_33  and  N2_34 
REMARK       I    between atoms: N2_34  and  C24_36 
ROOT
HETATM    1  C16 UNL     1      31.085 -49.786  41.242  1.00  0.00     0.003 C 
ENDROOT
BRANCH   1   2
HETATM    2  C15 UNL     1      30.242 -48.598  41.597  1.00  0.00     0.002 C 
BRANCH   2   3
HETATM    3  C14 UNL     1      30.868 -47.254  41.435  1.00  0.00     0.032 C 
BRANCH   3   4
HETATM    4  C13 UNL     1      30.029 -46.151  40.917  1.00  0.00     0.124 C 
BRANCH   4   5
HETATM    5  C12 UNL     1      29.473 -45.262  42.044  1.00  0.00     0.036 C 
HETATM    6  C7  UNL     1      28.141 -45.705  42.507  1.00  0.00    -0.005 C 
HETATM    7  C6  UNL     1      27.058 -44.692  42.616  1.00  0.00     0.025 C 
HETATM    8  C5  UNL     1      27.289 -43.604  41.591  1.00  0.00     0.122 C 
HETATM    9  N1  UNL     1      28.532 -43.007  41.951  1.00  0.00    -0.393 N 
HETATM   10  C26 UNL     1      29.593 -43.854  41.566  1.00  0.00     0.129 C 
BRANCH   6  11
HETATM   11  C8  UNL     1      28.215 -46.487  43.814  1.00  0.00     0.005 C 
BRANCH  11  12
HETATM   12  C9  UNL     1      27.496 -47.795  43.791  1.00  0.00     0.000 C 
BRANCH  12  13
HETATM   13  C10 UNL     1      28.330 -48.755  44.654  1.00  0.00    -0.005 C 
HETATM   14  C11 UNL     1      29.566 -48.102  45.180  1.00  0.00     0.005 C 
ENDBRANCH  12  13
ENDBRANCH  11  12
ENDBRANCH   6  11
BRANCH   9  15
HETATM   15  C4  UNL     1      28.686 -41.632  41.895  1.00  0.00     0.061 C 
BRANCH  15  16
HETATM   16  C3  UNL     1      30.018 -41.047  41.579  1.00  0.00     0.070 C 
BRANCH  16  17
HETATM   17  C2  UNL     1      30.069 -39.572  41.524  1.00  0.00    -0.032 C 
HETATM   18  C1  UNL     1      30.274 -38.943  40.379  1.00  0.00     0.007 C 
ENDBRANCH  16  17
ENDBRANCH  15  16
ENDBRANCH   9  15
ENDBRANCH   4   5
BRANCH   4  19
HETATM   19  O1  UNL     1      28.941 -46.680  40.187  1.00  0.00    -0.395 OA
ATOM     20  H1  UNL     1      29.285 -47.190  39.464  1.00  0.00     0.210 HD
ENDBRANCH   4  19
ENDBRANCH   3   4
ENDBRANCH   2   3
ENDBRANCH   1   2
BRANCH   1  21
HETATM   21  C17 UNL     1      30.298 -50.711  40.272  1.00  0.00     0.034 C 
BRANCH  21  22
HETATM   22  C18 UNL     1      30.039 -49.849  39.057  1.00  0.00     0.147 C 
HETATM   23  O2  UNL     1      30.790 -50.266  37.968  1.00  0.00    -0.374 OA
HETATM   24  C19 UNL     1      30.442 -51.546  37.545  1.00  0.00     0.176 C 
HETATM   25  C21 UNL     1      28.992 -51.666  37.196  1.00  0.00     0.180 C 
HETATM   26  C22 UNL     1      28.276 -50.357  37.338  1.00  0.00     0.174 C 
HETATM   27  C23 UNL     1      28.577 -49.764  38.698  1.00  0.00     0.144 C 
BRANCH  24  28
HETATM   28  C20 UNL     1      31.265 -51.832  36.299  1.00  0.00     0.198 C 
BRANCH  28  29
HETATM   29  O3  UNL     1      32.392 -51.017  36.289  1.00  0.00    -0.398 OA
ATOM     30  H3  UNL     1      33.106 -51.468  35.852  1.00  0.00     0.209 HD
ENDBRANCH  28  29
ENDBRANCH  24  28
BRANCH  25  31
HETATM   31  O4  UNL     1      28.347 -52.690  37.913  1.00  0.00    -0.390 OA
ATOM     32  H4  UNL     1      27.631 -53.081  37.427  1.00  0.00     0.210 HD
ENDBRANCH  25  31
BRANCH  26  33
HETATM   33  O5  UNL     1      28.691 -49.510  36.312  1.00  0.00    -0.391 OA
ATOM     34  H5  UNL     1      28.668 -48.615  36.630  1.00  0.00     0.210 HD
ENDBRANCH  26  33
BRANCH  27  35
HETATM   35  N2  UNL     1      27.730 -50.400  39.657  1.00  0.00    -0.352 N 
HETATM   36  C24 UNL     1      26.776 -49.629  40.369  1.00  0.00     0.214 C 
HETATM   37  C25 UNL     1      25.862 -50.208  41.377  1.00  0.00     0.117 C 
HETATM   38  O6  UNL     1      26.686 -48.397  40.148  1.00  0.00    -0.274 OA
ATOM     39  H2  UNL     1      27.810 -51.402  39.829  1.00  0.00     0.163 HD
ENDBRANCH  27  35
ENDBRANCH  21  22
ENDBRANCH   1  21
TORSDOF 18
ENDMDL
MODEL 2
REMARK VINA RESULT: -7.091862742      1.252      1.396
REMARK  18 active torsions:
REMARK  status: ('A' for Active; 'I' for Inactive)
REMARK    1  A    between atoms: C2_2  and  C3_3 
REMARK    2  A    between atoms: C3_3  and  C4_4 
REMARK    3  A    between atoms: C4_4  and  N1_5 
REMARK    4  A    between atoms: C7_8  and  C8_9 
REMARK    5  A    between atoms: C8_9  and  C9_10 
REMARK    6  A    between atoms: C9_10  and  C10_11 
REMARK    7  A    between atoms: C12_13  and  C13_14 
REMARK    8  A    between atoms: C13_14  and  O1_15 
REMARK    9  A    between atoms: C13_14  and  C14_17 
REMARK   10  A    between atoms: C14_17  and  C15_18 
REMARK   11  A    between atoms: C15_18  and  C16_19 
REMARK   12  A    between atoms: C16_19  and  C17_20 
REMARK   13  A    between atoms: C17_20  and  C18_21 
REMARK   14  A    between atoms: C19_23  and  C20_24 
REMARK   15  A    between atoms: C20_24  and  O3_25 
REMARK   16  A    between atoms: C21_27  and  O4_28 
REMARK   17  A    between atoms: C22_30  and  O5_31 
REMARK   18  A    between atoms: C23_33  and  N2_34 
REMARK       I    between atoms: N2_34  and  C24_36 
ROOT
HETATM    1  C16 UNL     1      30.522 -49.756  41.350  1.00  0.00     0.003 C 
ENDROOT
BRANCH   1   2
HETATM    2  C15 UNL     1      30.672 -48.518  40.517  1.00  0.00     0.002 C 
BRANCH   2   3
HETATM    3  C14 UNL     1      30.744 -47.219  41.247  1.00  0.00     0.032 C 
BRANCH   3   4
HETATM    4  C13 UNL     1      29.854 -46.123  40.808  1.00  0.00     0.124 C 
BRANCH   4   5
HETATM    5  C12 UNL     1      29.383 -45.247  41.984  1.00  0.00     0.036 C 
HETATM    6  C7  UNL     1      28.067 -45.668  42.509  1.00  0.00    -0.005 C 
HETATM    7  C6  UNL     1      27.019 -44.632  42.700  1.00  0.00     0.025 C 
HETATM    8  C5  UNL     1      27.221 -43.525  41.689  1.00  0.00     0.122 C 
HETATM    9  N1  UNL     1      28.497 -42.968  41.994  1.00  0.00    -0.393 N 
HETATM   10  C26 UNL     1      29.513 -43.832  41.532  1.00  0.00     0.129 C 
BRANCH   6  11
HETATM   11  C8  UNL     1      28.192 -46.484  43.792  1.00  0.00     0.005 C 
BRANCH  11  12
HETATM   12  C9  UNL     1      28.127 -47.962  43.592  1.00  0.00     0.000 C 
BRANCH  12  13
HETATM   13  C10 UNL     1      29.165 -48.566  44.551  1.00  0.00    -0.005 C 
HETATM   14  C11 UNL     1      30.055 -47.524  45.141  1.00  0.00     0.005 C 
ENDBRANCH  12  13
ENDBRANCH  11  12
ENDBRANCH   6  11
BRANCH   9  15
HETATM   15  C4  UNL     1      28.684 -41.596  41.961  1.00  0.00     0.061 C 
BRANCH  15  16
HETATM   16  C3  UNL     1      29.888 -41.028  41.296  1.00  0.00     0.070 C 
BRANCH  16  17
HETATM   17  C2  UNL     1      30.584 -39.961  42.044  1.00  0.00    -0.032 C 
HETATM   18  C1  UNL     1      31.373 -40.252  43.064  1.00  0.00     0.007 C 
ENDBRANCH  16  17
ENDBRANCH  15  16
ENDBRANCH   9  15
ENDBRANCH   4   5
BRANCH   4  19
HETATM   19  O1  UNL     1      28.715 -46.658  40.166  1.00  0.00    -0.395 OA
ATOM     20  H1  UNL     1      28.447 -47.441  40.633  1.00  0.00     0.210 HD
ENDBRANCH   4  19
ENDBRANCH   3   4
ENDBRANCH   2   3
ENDBRANCH   1   2
BRANCH   1  21
HETATM   21  C17 UNL     1      29.202 -50.482  40.969  1.00  0.00     0.034 C 
BRANCH  21  22
HETATM   22  C18 UNL     1      28.926 -50.044  39.549  1.00  0.00     0.147 C 
HETATM   23  O2  UNL     1      29.457 -50.935  38.629  1.00  0.00    -0.374 OA
HETATM   24  C19 UNL     1      28.862 -52.191  38.707  1.00  0.00     0.176 C 
HETATM   25  C21 UNL     1      27.379 -52.142  38.520  1.00  0.00     0.180 C 
HETATM   26  C22 UNL     1      26.899 -50.750  38.240  1.00  0.00     0.174 C 
HETATM   27  C23 UNL     1      27.462 -49.806  39.281  1.00  0.00     0.144 C 
BRANCH  24  28
HETATM   28  C20 UNL     1      29.464 -53.029  37.589  1.00  0.00     0.198 C 
BRANCH  28  29
HETATM   29  O3  UNL     1      29.580 -52.255  36.439  1.00  0.00    -0.398 OA
ATOM     30  H3  UNL     1      29.709 -52.822  35.687  1.00  0.00     0.209 HD
ENDBRANCH  28  29
ENDBRANCH  24  28
BRANCH  25  31
HETATM   31  O4  UNL     1      26.679 -52.725  39.593  1.00  0.00    -0.390 OA
ATOM     32  H4  UNL     1      25.931 -52.207  39.865  1.00  0.00     0.210 HD
ENDBRANCH  25  31
BRANCH  26  33
HETATM   33  O5  UNL     1      27.306 -50.389  36.956  1.00  0.00    -0.391 OA
ATOM     34  H5  UNL     1      28.075 -49.835  37.027  1.00  0.00     0.210 HD
ENDBRANCH  26  33
BRANCH  27  35
HETATM   35  N2  UNL     1      26.656 -49.911  40.457  1.00  0.00    -0.352 N 
HETATM   36  C24 UNL     1      25.873 -48.804  40.871  1.00  0.00     0.214 C 
HETATM   37  C25 UNL     1      25.013 -48.829  42.074  1.00  0.00     0.117 C 
HETATM   38  O6  UNL     1      25.896 -47.744  40.200  1.00  0.00    -0.274 OA
ATOM     39  H2  UNL     1      26.644 -50.778  40.996  1.00  0.00     0.163 HD
ENDBRANCH  27  35
ENDBRANCH  21  22
ENDBRANCH   1  21
TORSDOF 18
ENDMDL
MODEL 3
REMARK VINA RESULT: -6.926695675      1.600      1.861
REMARK  18 active torsions:
REMARK  status: ('A' for Active; 'I' for Inactive)
REMARK    1  A    between atoms: C2_2  and  C3_3 
REMARK    2  A    between atoms: C3_3  and  C4_4 
REMARK    3  A    between atoms: C4_4  and  N1_5 
REMARK    4  A    between atoms: C7_8  and  C8_9 
REMARK    5  A    between atoms: C8_9  and  C9_10 
REMARK    6  A    between atoms: C9_10  and  C10_11 
REMARK    7  A    between atoms: C12_13  and  C13_14 
REMARK    8  A    between atoms: C13_14  and  O1_15 
REMARK    9  A    between atoms: C13_14  and  C14_17 
REMARK   10  A    between atoms: C14_17  and  C15_18 
REMARK   11  A    between atoms: C15_18  and  C16_19 
REMARK   12  A    between atoms: C16_19  and  C17_20 
REMARK   13  A    between atoms: C17_20  and  C18_21 
REMARK   14  A    between atoms: C19_23  and  C20_24 
REMARK   15  A    between atoms: C20_24  and  O3_25 
REMARK   16  A    between atoms: C21_27  and  O4_28 
REMARK   17  A    between atoms: C22_30  and  O5_31 
REMARK   18  A    between atoms: C23_33  and  N2_34 
REMARK       I    between atoms: N2_34  and  C24_36 
ROOT
HETATM    1  C16 UNL     1      31.387 -50.102  42.221  1.00  0.00     0.003 C 
ENDROOT
BRANCH   1   2
HETATM    2  C15 UNL     1      31.507 -48.609  42.294  1.00  0.00     0.002 C 
BRANCH   2   3
HETATM    3  C14 UNL     1      30.477 -47.813  41.566  1.00  0.00     0.032 C 
BRANCH   3   4
HETATM    4  C13 UNL     1      30.689 -46.355  41.432  1.00  0.00     0.124 C 
BRANCH   4   5
HETATM    5  C12 UNL     1      29.793 -45.545  42.386  1.00  0.00     0.036 C 
HETATM    6  C7  UNL     1      28.506 -46.218  42.659  1.00  0.00    -0.005 C 
HETATM    7  C6  UNL     1      27.253 -45.431  42.517  1.00  0.00     0.025 C 
HETATM    8  C5  UNL     1      27.451 -44.363  41.465  1.00  0.00     0.122 C 
HETATM    9  N1  UNL     1      28.482 -43.521  41.976  1.00  0.00    -0.393 N 
HETATM   10  C26 UNL     1      29.732 -44.162  41.830  1.00  0.00     0.129 C 
BRANCH   6  11
HETATM   11  C8  UNL     1      28.497 -46.916  44.016  1.00  0.00     0.005 C 
BRANCH  11  12
HETATM   12  C9  UNL     1      27.929 -48.297  43.995  1.00  0.00     0.000 C 
BRANCH  12  13
HETATM   13  C10 UNL     1      28.849 -49.148  44.884  1.00  0.00    -0.005 C 
HETATM   14  C11 UNL     1      29.867 -48.317  45.592  1.00  0.00     0.005 C 
ENDBRANCH  12  13
ENDBRANCH  11  12
ENDBRANCH   6  11
BRANCH   9  15
HETATM   15  C4  UNL     1      28.387 -42.146  41.843  1.00  0.00     0.061 C 
BRANCH  15  16
HETATM   16  C3  UNL     1      29.594 -41.350  41.487  1.00  0.00     0.070 C 
BRANCH  16  17
HETATM   17  C2  UNL     1      29.958 -40.284  42.442  1.00  0.00    -0.032 C 
HETATM   18  C1  UNL     1      31.210 -40.126  42.838  1.00  0.00     0.007 C 
ENDBRANCH  16  17
ENDBRANCH  15  16
ENDBRANCH   9  15
ENDBRANCH   4   5
BRANCH   4  19
HETATM   19  O1  UNL     1      30.412 -45.951  40.107  1.00  0.00    -0.395 OA
ATOM     20  H1  UNL     1      31.096 -46.287  39.541  1.00  0.00     0.210 HD
ENDBRANCH   4  19
ENDBRANCH   3   4
ENDBRANCH   2   3
ENDBRANCH   1   2
BRANCH   1  21
HETATM   21  C17 UNL     1      30.073 -50.482  41.482  1.00  0.00     0.034 C 
BRANCH  21  22
HETATM   22  C18 UNL     1      30.476 -50.594  40.029  1.00  0.00     0.147 C 
HETATM   23  O2  UNL     1      31.164 -51.773  39.781  1.00  0.00    -0.374 OA
HETATM   24  C19 UNL     1      30.373 -52.899  39.992  1.00  0.00     0.176 C 
HETATM   25  C21 UNL     1      29.126 -52.894  39.166  1.00  0.00     0.180 C 
HETATM   26  C22 UNL     1      29.058 -51.695  38.270  1.00  0.00     0.174 C 
HETATM   27  C23 UNL     1      29.312 -50.444  39.083  1.00  0.00     0.144 C 
BRANCH  24  28
HETATM   28  C20 UNL     1      31.213 -54.102  39.592  1.00  0.00     0.198 C 
BRANCH  28  29
HETATM   29  O3  UNL     1      32.126 -54.389  40.603  1.00  0.00    -0.398 OA
ATOM     30  H3  UNL     1      33.009 -54.337  40.257  1.00  0.00     0.209 HD
ENDBRANCH  28  29
ENDBRANCH  24  28
BRANCH  25  31
HETATM   31  O4  UNL     1      27.962 -53.025  39.945  1.00  0.00    -0.390 OA
ATOM     32  H4  UNL     1      27.892 -52.354  40.614  1.00  0.00     0.210 HD
ENDBRANCH  25  31
BRANCH  26  33
HETATM   33  O5  UNL     1      30.005 -51.843  37.257  1.00  0.00    -0.391 OA
ATOM     34  H5  UNL     1      29.856 -52.674  36.822  1.00  0.00     0.210 HD
ENDBRANCH  26  33
BRANCH  27  35
HETATM   35  N2  UNL     1      28.096 -50.091  39.747  1.00  0.00    -0.352 N 
HETATM   36  C24 UNL     1      27.634 -48.752  39.696  1.00  0.00     0.214 C 
HETATM   37  C25 UNL     1      26.388 -48.303  40.355  1.00  0.00     0.117 C 
HETATM   38  O6  UNL     1      28.297 -47.891  39.069  1.00  0.00    -0.274 OA
ATOM     39  H2  UNL     1      27.564 -50.799  40.254  1.00  0.00     0.163 HD
ENDBRANCH  27  35
ENDBRANCH  21  22
ENDBRANCH   1  21
TORSDOF 18
ENDMDL
MODEL 4
REMARK VINA RESULT: -6.865939945      1.767      3.020
REMARK  18 active torsions:
REMARK  status: ('A' for Active; 'I' for Inactive)
REMARK    1  A    between atoms: C2_2  and  C3_3 
REMARK    2  A    between atoms: C3_3  and  C4_4 
REMARK    3  A    between atoms: C4_4  and  N1_5 
REMARK    4  A    between atoms: C7_8  and  C8_9 
REMARK    5  A    between atoms: C8_9  and  C9_10 
REMARK    6  A    between atoms: C9_10  and  C10_11 
REMARK    7  A    between atoms: C12_13  and  C13_14 
REMARK    8  A    between atoms: C13_14  and  O1_15 
REMARK    9  A    between atoms: C13_14  and  C14_17 
REMARK   10  A    between atoms: C14_17  and  C15_18 
REMARK   11  A    between atoms: C15_18  and  C16_19 
REMARK   12  A    between atoms: C16_19  and  C17_20 
REMARK   13  A    between atoms: C17_20  and  C18_21 
REMARK   14  A    between atoms: C19_23  and  C20_24 
REMARK   15  A    between atoms: C20_24  and  O3_25 
REMARK   16  A    between atoms: C21_27  and  O4_28 
REMARK   17  A    between atoms: C22_30  and  O5_31 
REMARK   18  A    between atoms: C23_33  and  N2_34 
REMARK       I    between atoms: N2_34  and  C24_36 
ROOT
HETATM    1  C16 UNL     1      29.558 -50.464  40.392  1.00  0.00     0.003 C 
ENDROOT
BRANCH   1   2
HETATM    2  C15 UNL     1      30.315 -49.276  40.905  1.00  0.00     0.002 C 
BRANCH   2   3
HETATM    3  C14 UNL     1      29.678 -47.939  40.721  1.00  0.00     0.032 C 
BRANCH   3   4
HETATM    4  C13 UNL     1      30.437 -46.741  41.141  1.00  0.00     0.124 C 
BRANCH   4   5
HETATM    5  C12 UNL     1      29.674 -45.902  42.182  1.00  0.00     0.036 C 
HETATM    6  C7  UNL     1      28.335 -46.452  42.478  1.00  0.00    -0.005 C 
HETATM    7  C6  UNL     1      27.168 -45.531  42.440  1.00  0.00     0.025 C 
HETATM    8  C5  UNL     1      27.437 -44.426  41.443  1.00  0.00     0.122 C 
HETATM    9  N1  UNL     1      28.573 -43.730  41.951  1.00  0.00    -0.393 N 
HETATM   10  C26 UNL     1      29.739 -44.488  41.709  1.00  0.00     0.129 C 
BRANCH   6  11
HETATM   11  C8  UNL     1      28.307 -47.228  43.791  1.00  0.00     0.005 C 
BRANCH  11  12
HETATM   12  C9  UNL     1      29.580 -47.169  44.568  1.00  0.00     0.000 C 
BRANCH  12  13
HETATM   13  C10 UNL     1      30.068 -48.621  44.695  1.00  0.00    -0.005 C 
HETATM   14  C11 UNL     1      28.982 -49.602  44.400  1.00  0.00     0.005 C 
ENDBRANCH  12  13
ENDBRANCH  11  12
ENDBRANCH   6  11
BRANCH   9  15
HETATM   15  C4  UNL     1      28.622 -42.347  41.902  1.00  0.00     0.061 C 
BRANCH  15  16
HETATM   16  C3  UNL     1      29.927 -41.657  41.715  1.00  0.00     0.070 C 
BRANCH  16  17
HETATM   17  C2  UNL     1      30.018 -40.300  42.290  1.00  0.00    -0.032 C 
HETATM   18  C1  UNL     1      31.080 -39.927  42.984  1.00  0.00     0.007 C 
ENDBRANCH  16  17
ENDBRANCH  15  16
ENDBRANCH   9  15
ENDBRANCH   4   5
BRANCH   4  19
HETATM   19  O1  UNL     1      30.705 -45.926  40.019  1.00  0.00    -0.395 OA
ATOM     20  H1  UNL     1      29.931 -45.908  39.469  1.00  0.00     0.210 HD
ENDBRANCH   4  19
ENDBRANCH   3   4
ENDBRANCH   2   3
ENDBRANCH   1   2
BRANCH   1  21
HETATM   21  C17 UNL     1      30.330 -51.097  39.201  1.00  0.00     0.034 C 
BRANCH  21  22
HETATM   22  C18 UNL     1      29.491 -50.763  37.988  1.00  0.00     0.147 C 
HETATM   23  O2  UNL     1      29.772 -49.492  37.509  1.00  0.00    -0.374 OA
HETATM   24  C19 UNL     1      31.080 -49.380  37.046  1.00  0.00     0.176 C 
HETATM   25  C21 UNL     1      31.403 -50.373  35.975  1.00  0.00     0.180 C 
HETATM   26  C22 UNL     1      30.216 -51.217  35.623  1.00  0.00     0.174 C 
HETATM   27  C23 UNL     1      29.612 -51.788  36.889  1.00  0.00     0.144 C 
BRANCH  24  28
HETATM   28  C20 UNL     1      31.219 -47.981  36.466  1.00  0.00     0.198 C 
BRANCH  28  29
HETATM   29  O3  UNL     1      30.705 -47.052  37.365  1.00  0.00    -0.398 OA
ATOM     30  H3  UNL     1      29.868 -46.732  37.048  1.00  0.00     0.209 HD
ENDBRANCH  28  29
ENDBRANCH  24  28
BRANCH  25  31
HETATM   31  O4  UNL     1      32.524 -51.162  36.290  1.00  0.00    -0.390 OA
ATOM     32  H4  UNL     1      32.456 -52.046  35.950  1.00  0.00     0.210 HD
ENDBRANCH  25  31
BRANCH  26  33
HETATM   33  O5  UNL     1      29.296 -50.427  34.936  1.00  0.00    -0.391 OA
ATOM     34  H5  UNL     1      28.430 -50.801  35.049  1.00  0.00     0.210 HD
ENDBRANCH  26  33
BRANCH  27  35
HETATM   35  N2  UNL     1      30.384 -52.928  37.273  1.00  0.00    -0.352 N 
HETATM   36  C24 UNL     1      29.842 -54.228  37.110  1.00  0.00     0.214 C 
HETATM   37  C25 UNL     1      30.573 -55.459  37.482  1.00  0.00     0.117 C 
HETATM   38  O6  UNL     1      28.691 -54.363  36.629  1.00  0.00    -0.274 OA
ATOM     39  H2  UNL     1      31.319 -52.808  37.663  1.00  0.00     0.163 HD
ENDBRANCH  27  35
ENDBRANCH  21  22
ENDBRANCH   1  21
TORSDOF 18
ENDMDL
MODEL 5
REMARK VINA RESULT: -6.864388146      2.238      3.457
REMARK  18 active torsions:
REMARK  status: ('A' for Active; 'I' for Inactive)
REMARK    1  A    between atoms: C2_2  and  C3_3 
REMARK    2  A    between atoms: C3_3  and  C4_4 
REMARK    3  A    between atoms: C4_4  and  N1_5 
REMARK    4  A    between atoms: C7_8  and  C8_9 
REMARK    5  A    between atoms: C8_9  and  C9_10 
REMARK    6  A    between atoms: C9_10  and  C10_11 
REMARK    7  A    between atoms: C12_13  and  C13_14 
REMARK    8  A    between atoms: C13_14  and  O1_15 
REMARK    9  A    between atoms: C13_14  and  C14_17 
REMARK   10  A    between atoms: C14_17  and  C15_18 
REMARK   11  A    between atoms: C15_18  and  C16_19 
REMARK   12  A    between atoms: C16_19  and  C17_20 
REMARK   13  A    between atoms: C17_20  and  C18_21 
REMARK   14  A    between atoms: C19_23  and  C20_24 
REMARK   15  A    between atoms: C20_24  and  O3_25 
REMARK   16  A    between atoms: C21_27  and  O4_28 
REMARK   17  A    between atoms: C22_30  and  O5_31 
REMARK   18  A    between atoms: C23_33  and  N2_34 
REMARK       I    between atoms: N2_34  and  C24_36 
ROOT
HETATM    1  C16 UNL     1      28.706 -48.907  39.655  1.00  0.00     0.003 C 
ENDROOT
BRANCH   1   2
HETATM    2  C15 UNL     1      29.895 -48.069  39.295  1.00  0.00     0.002 C 
BRANCH   2   3
HETATM    3  C14 UNL     1      30.109 -46.824  40.090  1.00  0.00     0.032 C 
BRANCH   3   4
HETATM    4  C13 UNL     1      30.498 -46.963  41.510  1.00  0.00     0.124 C 
BRANCH   4   5
HETATM    5  C12 UNL     1      29.692 -46.027  42.429  1.00  0.00     0.036 C 
HETATM    6  C7  UNL     1      28.341 -46.550  42.721  1.00  0.00    -0.005 C 
HETATM    7  C6  UNL     1      27.178 -45.640  42.543  1.00  0.00     0.025 C 
HETATM    8  C5  UNL     1      27.490 -44.639  41.454  1.00  0.00     0.122 C 
HETATM    9  N1  UNL     1      28.604 -43.892  41.939  1.00  0.00    -0.393 N 
HETATM   10  C26 UNL     1      29.778 -44.667  41.823  1.00  0.00     0.129 C 
BRANCH   6  11
HETATM   11  C8  UNL     1      28.256 -47.192  44.102  1.00  0.00     0.005 C 
BRANCH  11  12
HETATM   12  C9  UNL     1      28.507 -48.664  44.113  1.00  0.00     0.000 C 
BRANCH  12  13
HETATM   13  C10 UNL     1      29.446 -48.926  45.301  1.00  0.00    -0.005 C 
HETATM   14  C11 UNL     1      30.189 -47.697  45.707  1.00  0.00     0.005 C 
ENDBRANCH  12  13
ENDBRANCH  11  12
ENDBRANCH   6  11
BRANCH   9  15
HETATM   15  C4  UNL     1      28.656 -42.521  41.756  1.00  0.00     0.061 C 
BRANCH  15  16
HETATM   16  C3  UNL     1      29.973 -41.839  41.631  1.00  0.00     0.070 C 
BRANCH  16  17
HETATM   17  C2  UNL     1      30.071 -40.519  42.289  1.00  0.00    -0.032 C 
HETATM   18  C1  UNL     1      31.204 -40.120  42.841  1.00  0.00     0.007 C 
ENDBRANCH  16  17
ENDBRANCH  15  16
ENDBRANCH   9  15
ENDBRANCH   4   5
BRANCH   4  19
HETATM   19  O1  UNL     1      31.870 -46.664  41.662  1.00  0.00    -0.395 OA
ATOM     20  H1  UNL     1      32.360 -47.477  41.627  1.00  0.00     0.210 HD
ENDBRANCH   4  19
ENDBRANCH   3   4
ENDBRANCH   2   3
ENDBRANCH   1   2
BRANCH   1  21
HETATM   21  C17 UNL     1      29.086 -49.882  40.804  1.00  0.00     0.034 C 
BRANCH  21  22
HETATM   22  C18 UNL     1      30.363 -50.541  40.332  1.00  0.00     0.147 C 
HETATM   23  O2  UNL     1      31.432 -50.228  41.157  1.00  0.00    -0.374 OA
HETATM   24  C19 UNL     1      31.265 -50.720  42.448  1.00  0.00     0.176 C 
HETATM   25  C21 UNL     1      31.058 -52.201  42.481  1.00  0.00     0.180 C 
HETATM   26  C22 UNL     1      31.134 -52.804  41.111  1.00  0.00     0.174 C 
HETATM   27  C23 UNL     1      30.229 -52.035  40.172  1.00  0.00     0.144 C 
BRANCH  24  28
HETATM   28  C20 UNL     1      32.540 -50.393  43.208  1.00  0.00     0.198 C 
BRANCH  28  29
HETATM   29  O3  UNL     1      32.616 -49.020  43.420  1.00  0.00    -0.398 OA
ATOM     30  H3  UNL     1      32.302 -48.815  44.294  1.00  0.00     0.209 HD
ENDBRANCH  28  29
ENDBRANCH  24  28
BRANCH  25  31
HETATM   31  O4  UNL     1      29.871 -52.567  43.142  1.00  0.00    -0.390 OA
ATOM     32  H4  UNL     1      29.841 -53.492  43.353  1.00  0.00     0.210 HD
ENDBRANCH  25  31
BRANCH  26  33
HETATM   33  O5  UNL     1      32.460 -52.765  40.681  1.00  0.00    -0.391 OA
ATOM     34  H5  UNL     1      32.775 -51.871  40.750  1.00  0.00     0.210 HD
ENDBRANCH  26  33
BRANCH  27  35
HETATM   35  N2  UNL     1      28.891 -52.499  40.367  1.00  0.00    -0.352 N 
HETATM   36  C24 UNL     1      28.136 -52.946  39.254  1.00  0.00     0.214 C 
HETATM   37  C25 UNL     1      26.747 -53.441  39.367  1.00  0.00     0.117 C 
HETATM   38  O6  UNL     1      28.651 -52.930  38.109  1.00  0.00    -0.274 OA
ATOM     39  H2  UNL     1      28.482 -52.508  41.301  1.00  0.00     0.163 HD
ENDBRANCH  27  35
ENDBRANCH  21  22
ENDBRANCH   1  21
TORSDOF 18
ENDMDL
