MODEL 1
REMARK VINA RESULT: -8.152505372      0.000      0.000
REMARK  10 active torsions:
REMARK  status: ('A' for Active; 'I' for Inactive)
REMARK    1  A    between atoms: C7_10  and  N2_11 
REMARK    2  A    between atoms: N2_11  and  C8_13 
REMARK    3  A    between atoms: C16_23  and  C17_24 
REMARK    4  A    between atoms: C17_24  and  C18_25 
REMARK    5  A    between atoms: C18_25  and  N4_26 
REMARK    6  A    between atoms: N4_26  and  S2_28 
REMARK    7  A    between atoms: S2_28  and  N5_30 
REMARK    8  A    between atoms: S2_28  and  N6_35 
REMARK    9  A    between atoms: N5_30  and  C19_32 
REMARK   10  A    between atoms: N6_35  and  O2_37 
ROOT
HETATM    1  C1  UNL     1      48.413 -41.371  45.872  1.00  0.00     0.068 C 
HETATM    2  C2  UNL     1      48.498 -41.457  47.373  1.00  0.00     0.014 A 
HETATM    3  N1  UNL     1      47.978 -42.548  47.949  1.00  0.00    -0.358 N 
ATOM      4  H1  UNL     1      47.567 -43.264  47.349  1.00  0.00     0.166 HD
HETATM    5  C3  UNL     1      47.970 -42.749  49.296  1.00  0.00     0.052 A 
HETATM    6  C4  UNL     1      47.483 -43.805  49.954  1.00  0.00     0.038 A 
HETATM    7  C5  UNL     1      47.591 -43.809  51.321  1.00  0.00     0.053 A 
HETATM    8  S1  UNL     1      48.368 -42.334  51.638  1.00  0.00    -0.097 SA
HETATM    9  C6  UNL     1      48.540 -41.743  50.026  1.00  0.00     0.058 A 
HETATM   10  C7  UNL     1      49.091 -40.602  49.473  1.00  0.00     0.060 A 
HETATM   11  C16 UNL     1      49.080 -40.427  48.059  1.00  0.00    -0.006 A 
ENDROOT
BRANCH  11  12
HETATM   12  C17 UNL     1      49.796 -39.300  47.493  1.00  0.00     0.063 C 
BRANCH  12  13
HETATM   13  C18 UNL     1      49.100 -38.075  47.047  1.00  0.00     0.137 C 
BRANCH  13  14
HETATM   14  N4  UNL     1      50.033 -36.937  47.316  1.00  0.00    -0.318 N 
ATOM     15  H4  UNL     1      50.712 -36.928  48.076  1.00  0.00     0.172 HD
BRANCH  14  16
HETATM   16  S2  UNL     1      49.835 -35.668  46.216  1.00  0.00     0.217 S 
HETATM   17  O1  UNL     1      48.537 -34.995  46.256  1.00  0.00    -0.204 OA
BRANCH  16  18
HETATM   18  N5  UNL     1      51.098 -34.513  46.526  1.00  0.00    -0.283 N 
ATOM     19  H5  UNL     1      52.055 -34.813  46.712  1.00  0.00     0.179 HD
BRANCH  18  20
HETATM   20  C19 UNL     1      50.771 -33.222  46.512  1.00  0.00     0.042 A 
HETATM   21  C20 UNL     1      51.642 -32.206  47.053  1.00  0.00     0.032 A 
HETATM   22  C21 UNL     1      50.443 -31.921  46.499  1.00  0.00     0.032 A 
ENDBRANCH  18  20
ENDBRANCH  16  18
BRANCH  16  23
HETATM   23  N6  UNL     1      50.048 -36.192  44.733  1.00  0.00    -0.195 N 
ATOM     24  H6  UNL     1      49.364 -36.843  44.347  1.00  0.00     0.207 HD
BRANCH  23  25
HETATM   25  O2  UNL     1      51.092 -35.822  43.953  1.00  0.00    -0.280 OA
ATOM     26  H2  UNL     1      51.792 -36.411  43.701  1.00  0.00     0.245 HD
ENDBRANCH  23  25
ENDBRANCH  16  23
ENDBRANCH  14  16
ENDBRANCH  13  14
ENDBRANCH  12  13
ENDBRANCH  11  12
BRANCH  10  27
HETATM   27  N2  UNL     1      49.691 -39.744  50.158  1.00  0.00    -0.355 N 
ATOM     28  H2  UNL     1      50.690 -39.924  50.262  1.00  0.00     0.166 HD
BRANCH  27  29
HETATM   29  C8  UNL     1      49.256 -38.592  50.805  1.00  0.00     0.033 A 
HETATM   30  C9  UNL     1      50.078 -37.901  51.660  1.00  0.00     0.032 A 
HETATM   31  C10 UNL     1      49.611 -36.768  52.298  1.00  0.00     0.033 A 
HETATM   32  C11 UNL     1      48.309 -36.339  52.066  1.00  0.00     0.042 A 
HETATM   33  N3  UNL     1      47.598 -35.306  52.509  1.00  0.00    -0.365 N 
HETATM   34  C14 UNL     1      47.491 -37.041  51.205  1.00  0.00    -0.006 A 
HETATM   35  C12 UNL     1      46.349 -35.320  51.965  1.00  0.00     0.089 A 
ATOM     36  H3  UNL     1      47.940 -34.603  53.165  1.00  0.00     0.165 HD
HETATM   37  C13 UNL     1      46.267 -36.423  51.128  1.00  0.00     0.030 A 
HETATM   38  C15 UNL     1      47.956 -38.161  50.575  1.00  0.00     0.043 A 
ENDBRANCH  27  29
ENDBRANCH  10  27
TORSDOF 10
ENDMDL
MODEL 2
REMARK VINA RESULT: -8.125785490      4.209      7.854
REMARK  10 active torsions:
REMARK  status: ('A' for Active; 'I' for Inactive)
REMARK    1  A    between atoms: C7_10  and  N2_11 
REMARK    2  A    between atoms: N2_11  and  C8_13 
REMARK    3  A    between atoms: C16_23  and  C17_24 
REMARK    4  A    between atoms: C17_24  and  C18_25 
REMARK    5  A    between atoms: C18_25  and  N4_26 
REMARK    6  A    between atoms: N4_26  and  S2_28 
REMARK    7  A    between atoms: S2_28  and  N5_30 
REMARK    8  A    between atoms: S2_28  and  N6_35 
REMARK    9  A    between atoms: N5_30  and  C19_32 
REMARK   10  A    between atoms: N6_35  and  O2_37 
ROOT
HETATM    1  C1  UNL     1      49.509 -43.819  47.513  1.00  0.00     0.068 C 
HETATM    2  C2  UNL     1      49.306 -42.327  47.486  1.00  0.00     0.014 A 
HETATM    3  N1  UNL     1      49.729 -41.676  46.395  1.00  0.00    -0.358 N 
ATOM      4  H1  UNL     1      50.151 -42.216  45.641  1.00  0.00     0.166 HD
HETATM    5  C3  UNL     1      49.625 -40.326  46.246  1.00  0.00     0.052 A 
HETATM    6  C4  UNL     1      50.010 -39.596  45.194  1.00  0.00     0.038 A 
HETATM    7  C5  UNL     1      49.798 -38.242  45.246  1.00  0.00     0.053 A 
HETATM    8  S1  UNL     1      49.069 -38.037  46.765  1.00  0.00    -0.097 SA
HETATM    9  C6  UNL     1      49.048 -39.677  47.301  1.00  0.00     0.058 A 
HETATM   10  C7  UNL     1      48.594 -40.310  48.444  1.00  0.00     0.060 A 
HETATM   11  C16 UNL     1      48.721 -41.723  48.565  1.00  0.00    -0.006 A 
ENDROOT
BRANCH  11  12
HETATM   12  C17 UNL     1      48.104 -42.381  49.701  1.00  0.00     0.063 C 
BRANCH  12  13
HETATM   13  C18 UNL     1      48.904 -42.955  50.803  1.00  0.00     0.137 C 
BRANCH  13  14
HETATM   14  N4  UNL     1      47.931 -43.366  51.862  1.00  0.00    -0.318 N 
ATOM     15  H4  UNL     1      47.590 -42.741  52.592  1.00  0.00     0.172 HD
BRANCH  14  16
HETATM   16  S2  UNL     1      47.459 -44.983  51.711  1.00  0.00     0.217 S 
HETATM   17  O1  UNL     1      46.177 -45.207  51.044  1.00  0.00    -0.204 OA
BRANCH  16  18
HETATM   18  N5  UNL     1      48.718 -45.810  50.843  1.00  0.00    -0.283 N 
ATOM     19  H5  UNL     1      49.073 -45.451  49.956  1.00  0.00     0.179 HD
BRANCH  18  20
HETATM   20  C19 UNL     1      49.204 -46.930  51.376  1.00  0.00     0.042 A 
HETATM   21  C20 UNL     1      50.341 -47.616  50.811  1.00  0.00     0.032 A 
HETATM   22  C21 UNL     1      49.694 -48.059  51.911  1.00  0.00     0.032 A 
ENDBRANCH  18  20
ENDBRANCH  16  18
BRANCH  16  23
HETATM   23  N6  UNL     1      47.370 -45.661  53.143  1.00  0.00    -0.195 N 
ATOM     24  H6  UNL     1      48.161 -45.556  53.778  1.00  0.00     0.207 HD
BRANCH  23  25
HETATM   25  O2  UNL     1      46.298 -46.372  53.567  1.00  0.00    -0.280 OA
ATOM     26  H2  UNL     1      46.268 -46.827  54.400  1.00  0.00     0.245 HD
ENDBRANCH  23  25
ENDBRANCH  16  23
ENDBRANCH  14  16
ENDBRANCH  13  14
ENDBRANCH  12  13
ENDBRANCH  11  12
BRANCH  10  27
HETATM   27  N2  UNL     1      47.984 -39.703  49.352  1.00  0.00    -0.355 N 
ATOM     28  H2  UNL     1      47.000 -39.960  49.431  1.00  0.00     0.166 HD
BRANCH  27  29
HETATM   29  C8  UNL     1      48.392 -38.744  50.274  1.00  0.00     0.033 A 
HETATM   30  C9  UNL     1      49.686 -38.699  50.729  1.00  0.00     0.032 A 
HETATM   31  C10 UNL     1      50.056 -37.742  51.655  1.00  0.00     0.033 A 
HETATM   32  C11 UNL     1      49.110 -36.834  52.117  1.00  0.00     0.042 A 
HETATM   33  N3  UNL     1      49.166 -35.818  52.974  1.00  0.00    -0.365 N 
HETATM   34  C14 UNL     1      47.813 -36.888  51.653  1.00  0.00    -0.006 A 
HETATM   35  C12 UNL     1      47.948 -35.217  53.079  1.00  0.00     0.089 A 
ATOM     36  H3  UNL     1      50.003 -35.529  53.481  1.00  0.00     0.165 HD
HETATM   37  C13 UNL     1      47.073 -35.891  52.240  1.00  0.00     0.030 A 
HETATM   38  C15 UNL     1      47.449 -37.835  50.737  1.00  0.00     0.043 A 
ENDBRANCH  27  29
ENDBRANCH  10  27
TORSDOF 10
ENDMDL
MODEL 3
REMARK VINA RESULT: -8.040038270      3.170      7.185
REMARK  10 active torsions:
REMARK  status: ('A' for Active; 'I' for Inactive)
REMARK    1  A    between atoms: C7_10  and  N2_11 
REMARK    2  A    between atoms: N2_11  and  C8_13 
REMARK    3  A    between atoms: C16_23  and  C17_24 
REMARK    4  A    between atoms: C17_24  and  C18_25 
REMARK    5  A    between atoms: C18_25  and  N4_26 
REMARK    6  A    between atoms: N4_26  and  S2_28 
REMARK    7  A    between atoms: S2_28  and  N5_30 
REMARK    8  A    between atoms: S2_28  and  N6_35 
REMARK    9  A    between atoms: N5_30  and  C19_32 
REMARK   10  A    between atoms: N6_35  and  O2_37 
ROOT
HETATM    1  C1  UNL     1      49.732 -39.935  46.985  1.00  0.00     0.068 C 
HETATM    2  C2  UNL     1      49.732 -38.826  45.967  1.00  0.00     0.014 A 
HETATM    3  N1  UNL     1      50.321 -39.081  44.791  1.00  0.00    -0.358 N 
ATOM      4  H1  UNL     1      50.722 -40.006  44.640  1.00  0.00     0.166 HD
HETATM    5  C3  UNL     1      50.409 -38.164  43.787  1.00  0.00     0.052 A 
HETATM    6  C4  UNL     1      50.967 -38.332  42.585  1.00  0.00     0.038 A 
HETATM    7  C5  UNL     1      50.934 -37.274  41.713  1.00  0.00     0.053 A 
HETATM    8  S1  UNL     1      50.125 -36.080  42.608  1.00  0.00    -0.097 SA
HETATM    9  C6  UNL     1      49.845 -36.952  44.071  1.00  0.00     0.058 A 
HETATM   10  C7  UNL     1      49.226 -36.647  45.268  1.00  0.00     0.060 A 
HETATM   11  C16 UNL     1      49.153 -37.631  46.295  1.00  0.00    -0.006 A 
ENDROOT
BRANCH  11  12
HETATM   12  C17 UNL     1      48.369 -37.342  47.480  1.00  0.00     0.063 C 
BRANCH  12  13
HETATM   13  C18 UNL     1      48.994 -36.900  48.744  1.00  0.00     0.137 C 
BRANCH  13  14
HETATM   14  N4  UNL     1      48.329 -37.673  49.838  1.00  0.00    -0.318 N 
ATOM     15  H4  UNL     1      47.322 -37.675  50.000  1.00  0.00     0.172 HD
BRANCH  14  16
HETATM   16  S2  UNL     1      49.434 -38.545  50.776  1.00  0.00     0.217 S 
HETATM   17  O1  UNL     1      50.682 -38.907  50.106  1.00  0.00    -0.204 OA
BRANCH  16  18
HETATM   18  N5  UNL     1      49.787 -37.586  52.183  1.00  0.00    -0.283 N 
ATOM     19  H5  UNL     1      50.651 -37.716  52.709  1.00  0.00     0.179 HD
BRANCH  18  20
HETATM   20  C19 UNL     1      48.888 -36.674  52.551  1.00  0.00     0.042 A 
HETATM   21  C20 UNL     1      49.216 -35.271  52.646  1.00  0.00     0.032 A 
HETATM   22  C21 UNL     1      47.985 -35.754  52.921  1.00  0.00     0.032 A 
ENDBRANCH  18  20
ENDBRANCH  16  18
BRANCH  16  23
HETATM   23  N6  UNL     1      48.769 -39.889  51.294  1.00  0.00    -0.195 N 
ATOM     24  H6  UNL     1      49.361 -40.568  51.772  1.00  0.00     0.207 HD
BRANCH  23  25
HETATM   25  O2  UNL     1      47.457 -40.183  51.133  1.00  0.00    -0.280 OA
ATOM     26  H2  UNL     1      47.090 -41.044  51.297  1.00  0.00     0.245 HD
ENDBRANCH  23  25
ENDBRANCH  16  23
ENDBRANCH  14  16
ENDBRANCH  13  14
ENDBRANCH  12  13
ENDBRANCH  11  12
BRANCH  10  27
HETATM   27  N2  UNL     1      48.634 -35.561  45.463  1.00  0.00    -0.355 N 
ATOM     28  H2  UNL     1      47.625 -35.655  45.573  1.00  0.00     0.166 HD
BRANCH  27  29
HETATM   29  C8  UNL     1      49.092 -34.251  45.559  1.00  0.00     0.033 A 
HETATM   30  C9  UNL     1      48.498 -33.236  44.850  1.00  0.00     0.032 A 
HETATM   31  C10 UNL     1      48.985 -31.947  44.957  1.00  0.00     0.033 A 
HETATM   32  C11 UNL     1      50.074 -31.692  45.783  1.00  0.00     0.042 A 
HETATM   33  N3  UNL     1      50.741 -30.584  46.095  1.00  0.00    -0.365 N 
HETATM   34  C14 UNL     1      50.662 -32.719  46.491  1.00  0.00    -0.006 A 
HETATM   35  C12 UNL     1      51.740 -30.864  46.977  1.00  0.00     0.089 A 
ATOM     36  H3  UNL     1      50.533 -29.656  45.724  1.00  0.00     0.165 HD
HETATM   37  C13 UNL     1      51.701 -32.225  47.240  1.00  0.00     0.030 A 
HETATM   38  C15 UNL     1      50.179 -33.993  46.384  1.00  0.00     0.043 A 
ENDBRANCH  27  29
ENDBRANCH  10  27
TORSDOF 10
ENDMDL
MODEL 4
REMARK VINA RESULT: -7.931380629      3.273      6.889
REMARK  10 active torsions:
REMARK  status: ('A' for Active; 'I' for Inactive)
REMARK    1  A    between atoms: C7_10  and  N2_11 
REMARK    2  A    between atoms: N2_11  and  C8_13 
REMARK    3  A    between atoms: C16_23  and  C17_24 
REMARK    4  A    between atoms: C17_24  and  C18_25 
REMARK    5  A    between atoms: C18_25  and  N4_26 
REMARK    6  A    between atoms: N4_26  and  S2_28 
REMARK    7  A    between atoms: S2_28  and  N5_30 
REMARK    8  A    between atoms: S2_28  and  N6_35 
REMARK    9  A    between atoms: N5_30  and  C19_32 
REMARK   10  A    between atoms: N6_35  and  O2_37 
ROOT
HETATM    1  C1  UNL     1      49.872 -40.417  47.593  1.00  0.00     0.068 C 
HETATM    2  C2  UNL     1      49.794 -39.352  46.532  1.00  0.00     0.014 A 
HETATM    3  N1  UNL     1      50.327 -39.644  45.338  1.00  0.00    -0.358 N 
ATOM      4  H1  UNL     1      50.741 -40.566  45.205  1.00  0.00     0.166 HD
HETATM    5  C3  UNL     1      50.342 -38.769  44.294  1.00  0.00     0.052 A 
HETATM    6  C4  UNL     1      50.841 -38.976  43.072  1.00  0.00     0.038 A 
HETATM    7  C5  UNL     1      50.740 -37.956  42.161  1.00  0.00     0.053 A 
HETATM    8  S1  UNL     1      49.951 -36.742  43.047  1.00  0.00    -0.097 SA
HETATM    9  C6  UNL     1      49.767 -37.557  44.557  1.00  0.00     0.058 A 
HETATM   10  C7  UNL     1      49.203 -37.215  45.772  1.00  0.00     0.060 A 
HETATM   11  C16 UNL     1      49.206 -38.157  46.841  1.00  0.00    -0.006 A 
ENDROOT
BRANCH  11  12
HETATM   12  C17 UNL     1      48.477 -37.834  48.053  1.00  0.00     0.063 C 
BRANCH  12  13
HETATM   13  C18 UNL     1      49.161 -37.357  49.273  1.00  0.00     0.137 C 
BRANCH  13  14
HETATM   14  N4  UNL     1      48.270 -36.320  49.879  1.00  0.00    -0.318 N 
ATOM     15  H4  UNL     1      48.291 -35.334  49.621  1.00  0.00     0.172 HD
BRANCH  14  16
HETATM   16  S2  UNL     1      47.224 -36.966  51.040  1.00  0.00     0.217 S 
HETATM   17  O1  UNL     1      47.145 -38.426  51.075  1.00  0.00    -0.204 OA
BRANCH  16  18
HETATM   18  N5  UNL     1      47.744 -36.375  52.591  1.00  0.00    -0.283 N 
ATOM     19  H5  UNL     1      47.165 -36.492  53.422  1.00  0.00     0.179 HD
BRANCH  18  20
HETATM   20  C19 UNL     1      48.926 -35.765  52.654  1.00  0.00     0.042 A 
HETATM   21  C20 UNL     1      50.140 -36.478  52.974  1.00  0.00     0.032 A 
HETATM   22  C21 UNL     1      50.118 -35.151  52.720  1.00  0.00     0.032 A 
ENDBRANCH  18  20
ENDBRANCH  16  18
BRANCH  16  23
HETATM   23  N6  UNL     1      45.752 -36.421  50.812  1.00  0.00    -0.195 N 
ATOM     24  H6  UNL     1      45.257 -36.703  49.967  1.00  0.00     0.207 HD
BRANCH  23  25
HETATM   25  O2  UNL     1      45.117 -35.599  51.682  1.00  0.00    -0.280 OA
ATOM     26  H2  UNL     1      44.335 -35.846  52.160  1.00  0.00     0.245 HD
ENDBRANCH  23  25
ENDBRANCH  16  23
ENDBRANCH  14  16
ENDBRANCH  13  14
ENDBRANCH  12  13
ENDBRANCH  11  12
BRANCH  10  27
HETATM   27  N2  UNL     1      48.598 -36.135  45.953  1.00  0.00    -0.355 N 
ATOM     28  H2  UNL     1      47.619 -36.249  46.217  1.00  0.00     0.166 HD
BRANCH  27  29
HETATM   29  C8  UNL     1      49.006 -34.808  45.864  1.00  0.00     0.033 A 
HETATM   30  C9  UNL     1      48.327 -33.905  45.083  1.00  0.00     0.032 A 
HETATM   31  C10 UNL     1      48.766 -32.597  45.005  1.00  0.00     0.033 A 
HETATM   32  C11 UNL     1      49.893 -32.209  45.720  1.00  0.00     0.042 A 
HETATM   33  N3  UNL     1      50.532 -31.050  45.853  1.00  0.00    -0.365 N 
HETATM   34  C14 UNL     1      50.567 -33.124  46.501  1.00  0.00    -0.006 A 
HETATM   35  C12 UNL     1      51.596 -31.188  46.692  1.00  0.00     0.089 A 
ATOM     36  H3  UNL     1      50.263 -30.180  45.392  1.00  0.00     0.165 HD
HETATM   37  C13 UNL     1      51.631 -32.509  47.114  1.00  0.00     0.030 A 
HETATM   38  C15 UNL     1      50.131 -34.417  46.577  1.00  0.00     0.043 A 
ENDBRANCH  27  29
ENDBRANCH  10  27
TORSDOF 10
ENDMDL
MODEL 5
REMARK VINA RESULT: -7.923669685      3.700      6.554
REMARK  10 active torsions:
REMARK  status: ('A' for Active; 'I' for Inactive)
REMARK    1  A    between atoms: C7_10  and  N2_11 
REMARK    2  A    between atoms: N2_11  and  C8_13 
REMARK    3  A    between atoms: C16_23  and  C17_24 
REMARK    4  A    between atoms: C17_24  and  C18_25 
REMARK    5  A    between atoms: C18_25  and  N4_26 
REMARK    6  A    between atoms: N4_26  and  S2_28 
REMARK    7  A    between atoms: S2_28  and  N5_30 
REMARK    8  A    between atoms: S2_28  and  N6_35 
REMARK    9  A    between atoms: N5_30  and  C19_32 
REMARK   10  A    between atoms: N6_35  and  O2_37 
ROOT
HETATM    1  C1  UNL     1      48.812 -42.222  44.894  1.00  0.00     0.068 C 
HETATM    2  C2  UNL     1      49.565 -42.975  45.960  1.00  0.00     0.014 A 
HETATM    3  N1  UNL     1      50.510 -43.829  45.548  1.00  0.00    -0.358 N 
ATOM      4  H1  UNL     1      50.680 -43.918  44.546  1.00  0.00     0.166 HD
HETATM    5  C3  UNL     1      51.254 -44.587  46.401  1.00  0.00     0.052 A 
HETATM    6  C4  UNL     1      52.218 -45.455  46.081  1.00  0.00     0.038 A 
HETATM    7  C5  UNL     1      52.854 -46.108  47.106  1.00  0.00     0.053 A 
HETATM    8  S1  UNL     1      52.078 -45.485  48.481  1.00  0.00    -0.097 SA
HETATM    9  C6  UNL     1      50.963 -44.408  47.724  1.00  0.00     0.058 A 
HETATM   10  C7  UNL     1      49.999 -43.535  48.194  1.00  0.00     0.060 A 
HETATM   11  C16 UNL     1      49.240 -42.760  47.271  1.00  0.00    -0.006 A 
ENDROOT
BRANCH  11  12
HETATM   12  C17 UNL     1      48.345 -41.744  47.790  1.00  0.00     0.063 C 
BRANCH  12  13
HETATM   13  C18 UNL     1      48.825 -40.400  48.175  1.00  0.00     0.137 C 
BRANCH  13  14
HETATM   14  N4  UNL     1      47.827 -39.857  49.146  1.00  0.00    -0.318 N 
ATOM     15  H4  UNL     1      46.868 -40.196  49.225  1.00  0.00     0.172 HD
BRANCH  14  16
HETATM   16  S2  UNL     1      48.465 -38.615  50.101  1.00  0.00     0.217 S 
HETATM   17  O1  UNL     1      49.332 -37.666  49.404  1.00  0.00    -0.204 OA
BRANCH  16  18
HETATM   18  N5  UNL     1      47.124 -37.765  50.809  1.00  0.00    -0.283 N 
ATOM     19  H5  UNL     1      46.162 -38.058  50.637  1.00  0.00     0.179 HD
BRANCH  18  20
HETATM   20  C19 UNL     1      47.397 -36.717  51.585  1.00  0.00     0.042 A 
HETATM   21  C20 UNL     1      46.529 -35.565  51.648  1.00  0.00     0.032 A 
HETATM   22  C21 UNL     1      47.670 -35.660  52.365  1.00  0.00     0.032 A 
ENDBRANCH  18  20
ENDBRANCH  16  18
BRANCH  16  23
HETATM   23  N6  UNL     1      49.304 -39.226  51.301  1.00  0.00    -0.195 N 
ATOM     24  H6  UNL     1      49.038 -40.143  51.660  1.00  0.00     0.207 HD
BRANCH  23  25
HETATM   25  O2  UNL     1      50.356 -38.594  51.875  1.00  0.00    -0.280 OA
ATOM     26  H2  UNL     1      51.212 -38.526  51.467  1.00  0.00     0.245 HD
ENDBRANCH  23  25
ENDBRANCH  16  23
ENDBRANCH  14  16
ENDBRANCH  13  14
ENDBRANCH  12  13
ENDBRANCH  11  12
BRANCH  10  27
HETATM   27  N2  UNL     1      49.822 -43.321  49.414  1.00  0.00    -0.355 N 
ATOM     28  H2  UNL     1      50.367 -42.542  49.780  1.00  0.00     0.166 HD
BRANCH  27  29
HETATM   29  C8  UNL     1      49.021 -43.945  50.366  1.00  0.00     0.033 A 
HETATM   30  C9  UNL     1      48.543 -43.259  51.454  1.00  0.00     0.032 A 
HETATM   31  C10 UNL     1      47.761 -43.910  52.389  1.00  0.00     0.033 A 
HETATM   32  C11 UNL     1      47.466 -45.258  52.216  1.00  0.00     0.042 A 
HETATM   33  N3  UNL     1      46.748 -46.130  52.918  1.00  0.00    -0.365 N 
HETATM   34  C14 UNL     1      47.952 -45.937  51.118  1.00  0.00    -0.006 A 
HETATM   35  C12 UNL     1      46.756 -47.349  52.310  1.00  0.00     0.089 A 
ATOM     36  H3  UNL     1      46.260 -45.916  53.788  1.00  0.00     0.165 HD
HETATM   37  C13 UNL     1      47.521 -47.241  51.158  1.00  0.00     0.030 A 
HETATM   38  C15 UNL     1      48.724 -45.291  50.195  1.00  0.00     0.043 A 
ENDBRANCH  27  29
ENDBRANCH  10  27
TORSDOF 10
ENDMDL
