MODEL 1
REMARK VINA RESULT: -8.694984216      0.000      0.000
REMARK  7 active torsions:
REMARK  status: ('A' for Active; 'I' for Inactive)
REMARK    1  A    between atoms: N1_2  and  N2_3 
REMARK    2  A    between atoms: N2_3  and  C3_5 
REMARK    3  A    between atoms: N5_13  and  C7_15 
REMARK    4  A    between atoms: C7_15  and  C8_16 
REMARK    5  A    between atoms: C9_19  and  N7_20 
REMARK    6  A    between atoms: C10_25  and  N9_26 
REMARK    7  A    between atoms: C11_29  and  N10_30 
ROOT
HETATM    1  C8  UNL     1      27.825  15.865   8.645  1.00  0.00     0.081 A 
HETATM    2  N6  UNL     1      29.072  15.426   8.282  1.00  0.00    -0.192 N 
ATOM      3  H6  UNL     1      29.161  14.774   7.502  1.00  0.00     0.184 HD
HETATM    4  C9  UNL     1      30.174  15.828   8.920  1.00  0.00     0.677 A 
HETATM    5  N8  UNL     1      30.033  16.675   9.928  1.00  0.00    -0.175 N 
ATOM      6  H8  UNL     1      30.869  16.988  10.421  1.00  0.00     0.186 HD
HETATM    7  C10 UNL     1      28.802  17.157  10.344  1.00  0.00     0.150 A 
HETATM    8  C11 UNL     1      27.651  16.748   9.692  1.00  0.00     0.171 A 
ENDROOT
BRANCH   1   9
HETATM    9  C7  UNL     1      26.632  15.378   7.881  1.00  0.00     0.181 C 
BRANCH   9  10
HETATM   10  N5  UNL     1      26.484  13.981   8.224  1.00  0.00    -0.366 N 
HETATM   11  C6  UNL     1      25.410  13.294   8.246  1.00  0.00     0.187 A 
HETATM   12  C5  UNL     1      24.184  13.824   7.925  1.00  0.00     0.306 A 
HETATM   13  N11 UNL     1      25.474  11.984   8.637  1.00  0.00    -0.169 N 
HETATM   14  N4  UNL     1      23.109  13.009   8.016  1.00  0.00    -0.244 N 
HETATM   15  O1  UNL     1      24.020  15.010   7.557  1.00  0.00    -0.262 OA
HETATM   16  N3  UNL     1      23.198  11.745   8.396  1.00  0.00    -0.126 N 
HETATM   17  C4  UNL     1      21.801  13.544   7.690  1.00  0.00     0.182 C 
HETATM   18  C3  UNL     1      24.403  11.198   8.721  1.00  0.00     0.712 A 
ATOM     19  H3  UNL     1      22.354  11.174   8.447  1.00  0.00     0.206 HD
ATOM     20  H11 UNL     1      26.384  11.591   8.876  1.00  0.00     0.186 HD
ATOM     21  H5  UNL     1      27.339  13.487   8.478  1.00  0.00     0.161 HD
BRANCH  18  22
HETATM   22  N2  UNL     1      24.414   9.850   9.141  1.00  0.00    -0.132 N 
HETATM   23  C2  UNL     1      23.188   9.115   9.411  1.00  0.00     0.192 C 
BRANCH  22  24
HETATM   24  N1  UNL     1      25.635   9.193   9.297  1.00  0.00    -0.129 NA
HETATM   25  C1  UNL     1      25.492   7.977  10.078  1.00  0.00     0.159 C 
ENDBRANCH  22  24
ENDBRANCH  18  22
ENDBRANCH   9  10
ENDBRANCH   1   9
BRANCH   8  26
HETATM   26  N10 UNL     1      26.345  17.164  10.045  1.00  0.00    -0.110 N 
HETATM   27  O2  UNL     1      25.730  16.741  11.047  1.00  0.00    -0.532 OA
HETATM   28  O3  UNL     1      25.602  18.069   9.321  1.00  0.00    -0.532 OA
ENDBRANCH   8  26
BRANCH   4  29
HETATM   29  N7  UNL     1      31.325  15.372   8.525  1.00  0.00    -0.234 N 
ATOM     30  H72 UNL     1      31.527  15.118   7.558  1.00  0.00     0.174 HD
ATOM     31  H71 UNL     1      32.070  15.260   9.213  1.00  0.00     0.174 HD
ENDBRANCH   4  29
BRANCH   7  32
HETATM   32  N9  UNL     1      28.774  17.952  11.307  1.00  0.00    -0.383 N 
ATOM     33  H92 UNL     1      29.607  18.178  11.849  1.00  0.00     0.157 HD
ATOM     34  H91 UNL     1      27.882  18.385  11.549  1.00  0.00     0.157 HD
ENDBRANCH   7  32
TORSDOF 7
ENDMDL
MODEL 2
REMARK VINA RESULT: -8.062361988      1.713      2.790
REMARK  7 active torsions:
REMARK  status: ('A' for Active; 'I' for Inactive)
REMARK    1  A    between atoms: N1_2  and  N2_3 
REMARK    2  A    between atoms: N2_3  and  C3_5 
REMARK    3  A    between atoms: N5_13  and  C7_15 
REMARK    4  A    between atoms: C7_15  and  C8_16 
REMARK    5  A    between atoms: C9_19  and  N7_20 
REMARK    6  A    between atoms: C10_25  and  N9_26 
REMARK    7  A    between atoms: C11_29  and  N10_30 
ROOT
HETATM    1  C8  UNL     1      26.911  16.589   8.762  1.00  0.00     0.081 A 
HETATM    2  N6  UNL     1      25.829  16.931   9.532  1.00  0.00    -0.192 N 
ATOM      3  H6  UNL     1      24.898  16.631   9.241  1.00  0.00     0.184 HD
HETATM    4  C9  UNL     1      25.959  17.646  10.652  1.00  0.00     0.677 A 
HETATM    5  N8  UNL     1      27.178  18.022  11.009  1.00  0.00    -0.175 N 
ATOM      6  H8  UNL     1      27.287  18.568  11.864  1.00  0.00     0.186 HD
HETATM    7  C10 UNL     1      28.312  17.710  10.276  1.00  0.00     0.150 A 
HETATM    8  C11 UNL     1      28.191  16.970   9.111  1.00  0.00     0.171 A 
ENDROOT
BRANCH   1   9
HETATM    9  C7  UNL     1      26.692  15.781   7.519  1.00  0.00     0.181 C 
BRANCH   9  10
HETATM   10  N5  UNL     1      26.691  14.397   7.940  1.00  0.00    -0.366 N 
HETATM   11  C6  UNL     1      25.690  13.615   8.040  1.00  0.00     0.187 A 
HETATM   12  C5  UNL     1      24.408  14.008   7.741  1.00  0.00     0.306 A 
HETATM   13  N11 UNL     1      25.893  12.340   8.496  1.00  0.00    -0.169 N 
HETATM   14  N4  UNL     1      23.421  13.101   7.916  1.00  0.00    -0.244 N 
HETATM   15  O1  UNL     1      24.119  15.151   7.318  1.00  0.00    -0.262 OA
HETATM   16  N3  UNL     1      23.644  11.874   8.357  1.00  0.00    -0.126 N 
HETATM   17  C4  UNL     1      22.058  13.491   7.615  1.00  0.00     0.182 C 
HETATM   18  C3  UNL     1      24.907  11.462   8.663  1.00  0.00     0.712 A 
ATOM     19  H3  UNL     1      22.862  11.230   8.471  1.00  0.00     0.206 HD
ATOM     20  H11 UNL     1      26.845  12.049   8.718  1.00  0.00     0.186 HD
ATOM     21  H5  UNL     1      27.598  14.001   8.185  1.00  0.00     0.161 HD
BRANCH  18  22
HETATM   22  N2  UNL     1      25.062  10.146   9.151  1.00  0.00    -0.132 N 
HETATM   23  C2  UNL     1      26.373   9.541   9.334  1.00  0.00     0.192 C 
BRANCH  22  24
HETATM   24  N1  UNL     1      23.930   9.401   9.477  1.00  0.00    -0.129 NA
HETATM   25  C1  UNL     1      24.281   8.152  10.130  1.00  0.00     0.159 C 
ENDBRANCH  22  24
ENDBRANCH  18  22
ENDBRANCH   9  10
ENDBRANCH   1   9
BRANCH   8  26
HETATM   26  N10 UNL     1      29.279  16.611   8.280  1.00  0.00    -0.110 N 
HETATM   27  O2  UNL     1      29.845  17.404   7.498  1.00  0.00    -0.532 OA
HETATM   28  O3  UNL     1      29.826  15.348   8.229  1.00  0.00    -0.532 OA
ENDBRANCH   8  26
BRANCH   4  29
HETATM   29  N7  UNL     1      24.893  17.935  11.335  1.00  0.00    -0.234 N 
ATOM     30  H72 UNL     1      24.583  18.890  11.515  1.00  0.00     0.174 HD
ATOM     31  H71 UNL     1      24.332  17.173  11.715  1.00  0.00     0.174 HD
ENDBRANCH   4  29
BRANCH   7  32
HETATM   32  N9  UNL     1      29.417  18.113  10.696  1.00  0.00    -0.383 N 
ATOM     33  H92 UNL     1      29.816  19.005  10.404  1.00  0.00     0.157 HD
ATOM     34  H91 UNL     1      29.928  17.523  11.353  1.00  0.00     0.157 HD
ENDBRANCH   7  32
TORSDOF 7
ENDMDL
MODEL 3
REMARK VINA RESULT: -7.902712745      4.885      6.526
REMARK  7 active torsions:
REMARK  status: ('A' for Active; 'I' for Inactive)
REMARK    1  A    between atoms: N1_2  and  N2_3 
REMARK    2  A    between atoms: N2_3  and  C3_5 
REMARK    3  A    between atoms: N5_13  and  C7_15 
REMARK    4  A    between atoms: C7_15  and  C8_16 
REMARK    5  A    between atoms: C9_19  and  N7_20 
REMARK    6  A    between atoms: C10_25  and  N9_26 
REMARK    7  A    between atoms: C11_29  and  N10_30 
ROOT
HETATM    1  C8  UNL     1      25.832  18.477   4.200  1.00  0.00     0.081 A 
HETATM    2  N6  UNL     1      24.804  19.130   4.830  1.00  0.00    -0.192 N 
ATOM      3  H6  UNL     1      24.663  18.985   5.830  1.00  0.00     0.184 HD
HETATM    4  C9  UNL     1      23.982  19.952   4.171  1.00  0.00     0.677 A 
HETATM    5  N8  UNL     1      24.186  20.124   2.875  1.00  0.00    -0.175 N 
ATOM      6  H8  UNL     1      23.564  20.750   2.364  1.00  0.00     0.186 HD
HETATM    7  C10 UNL     1      25.206  19.494   2.179  1.00  0.00     0.150 A 
HETATM    8  C11 UNL     1      26.065  18.639   2.849  1.00  0.00     0.171 A 
ENDROOT
BRANCH   1   9
HETATM    9  C7  UNL     1      26.719  17.574   5.001  1.00  0.00     0.181 C 
BRANCH   9  10
HETATM   10  N5  UNL     1      25.874  16.497   5.467  1.00  0.00    -0.366 N 
HETATM   11  C6  UNL     1      25.743  16.071   6.661  1.00  0.00     0.187 A 
HETATM   12  C5  UNL     1      26.425  16.614   7.722  1.00  0.00     0.306 A 
HETATM   13  N11 UNL     1      24.914  15.007   6.893  1.00  0.00    -0.169 N 
HETATM   14  N4  UNL     1      26.232  16.059   8.938  1.00  0.00    -0.244 N 
HETATM   15  O1  UNL     1      27.207  17.587   7.613  1.00  0.00    -0.262 OA
HETATM   16  N3  UNL     1      25.423  15.030   9.137  1.00  0.00    -0.126 N 
HETATM   17  C4  UNL     1      26.944  16.608  10.076  1.00  0.00     0.182 C 
HETATM   18  C3  UNL     1      24.737  14.473   8.100  1.00  0.00     0.712 A 
ATOM     19  H3  UNL     1      25.313  14.650  10.077  1.00  0.00     0.206 HD
ATOM     20  H11 UNL     1      24.407  14.603   6.105  1.00  0.00     0.186 HD
ATOM     21  H5  UNL     1      25.318  16.022   4.756  1.00  0.00     0.161 HD
BRANCH  18  22
HETATM   22  N2  UNL     1      23.912  13.363   8.386  1.00  0.00    -0.132 N 
HETATM   23  C2  UNL     1      22.772  13.013   7.552  1.00  0.00     0.192 C 
BRANCH  22  24
HETATM   24  N1  UNL     1      24.198  12.568   9.496  1.00  0.00    -0.129 NA
HETATM   25  C1  UNL     1      23.143  11.603   9.748  1.00  0.00     0.159 C 
ENDBRANCH  22  24
ENDBRANCH  18  22
ENDBRANCH   9  10
ENDBRANCH   1   9
BRANCH   8  26
HETATM   26  N10 UNL     1      27.126  17.933   2.233  1.00  0.00    -0.110 N 
HETATM   27  O2  UNL     1      28.201  18.464   1.881  1.00  0.00    -0.532 OA
HETATM   28  O3  UNL     1      27.088  16.588   1.940  1.00  0.00    -0.532 OA
ENDBRANCH   8  26
BRANCH   4  29
HETATM   29  N7  UNL     1      23.029  20.539   4.830  1.00  0.00    -0.234 N 
ATOM     30  H72 UNL     1      22.093  20.147   4.932  1.00  0.00     0.174 HD
ATOM     31  H71 UNL     1      23.219  21.440   5.269  1.00  0.00     0.174 HD
ENDBRANCH   4  29
BRANCH   7  32
HETATM   32  N9  UNL     1      25.315  19.721   0.955  1.00  0.00    -0.383 N 
ATOM     33  H92 UNL     1      24.518  19.669   0.320  1.00  0.00     0.157 HD
ATOM     34  H91 UNL     1      26.235  19.967   0.590  1.00  0.00     0.157 HD
ENDBRANCH   7  32
TORSDOF 7
ENDMDL
MODEL 4
REMARK VINA RESULT: -7.664264466      2.396      3.804
REMARK  7 active torsions:
REMARK  status: ('A' for Active; 'I' for Inactive)
REMARK    1  A    between atoms: N1_2  and  N2_3 
REMARK    2  A    between atoms: N2_3  and  C3_5 
REMARK    3  A    between atoms: N5_13  and  C7_15 
REMARK    4  A    between atoms: C7_15  and  C8_16 
REMARK    5  A    between atoms: C9_19  and  N7_20 
REMARK    6  A    between atoms: C10_25  and  N9_26 
REMARK    7  A    between atoms: C11_29  and  N10_30 
ROOT
HETATM    1  C8  UNL     1      25.135  15.016   7.285  1.00  0.00     0.081 A 
HETATM    2  N6  UNL     1      24.692  15.202   6.001  1.00  0.00    -0.192 N 
ATOM      3  H6  UNL     1      23.904  14.650   5.663  1.00  0.00     0.184 HD
HETATM    4  C9  UNL     1      25.265  16.087   5.180  1.00  0.00     0.677 A 
HETATM    5  N8  UNL     1      26.286  16.792   5.643  1.00  0.00    -0.175 N 
ATOM      6  H8  UNL     1      26.728  17.470   5.023  1.00  0.00     0.186 HD
HETATM    7  C10 UNL     1      26.781  16.651   6.930  1.00  0.00     0.150 A 
HETATM    8  C11 UNL     1      26.198  15.737   7.791  1.00  0.00     0.171 A 
ENDROOT
BRANCH   1   9
HETATM    9  C7  UNL     1      24.443  14.009   8.153  1.00  0.00     0.181 C 
BRANCH   9  10
HETATM   10  N5  UNL     1      25.424  12.986   8.436  1.00  0.00    -0.366 N 
HETATM   11  C6  UNL     1      25.212  11.761   8.718  1.00  0.00     0.187 A 
HETATM   12  C5  UNL     1      23.950  11.224   8.792  1.00  0.00     0.306 A 
HETATM   13  N11 UNL     1      26.283  10.953   8.992  1.00  0.00    -0.169 N 
HETATM   14  N4  UNL     1      23.845   9.921   9.132  1.00  0.00    -0.244 N 
HETATM   15  O1  UNL     1      22.907  11.879   8.560  1.00  0.00    -0.262 OA
HETATM   16  N3  UNL     1      24.896   9.160   9.391  1.00  0.00    -0.126 N 
HETATM   17  C4  UNL     1      22.524   9.329   9.224  1.00  0.00     0.182 C 
HETATM   18  C3  UNL     1      26.158   9.671   9.326  1.00  0.00     0.712 A 
ATOM     19  H3  UNL     1      24.760   8.181   9.643  1.00  0.00     0.206 HD
ATOM     20  H11 UNL     1      27.220  11.352   8.937  1.00  0.00     0.186 HD
ATOM     21  H5  UNL     1      26.400  13.277   8.405  1.00  0.00     0.161 HD
BRANCH  18  22
HETATM   22  N2  UNL     1      27.228   8.804   9.640  1.00  0.00    -0.132 N 
HETATM   23  C2  UNL     1      27.012   7.490  10.226  1.00  0.00     0.192 C 
BRANCH  22  24
HETATM   24  N1  UNL     1      28.536   9.211   9.375  1.00  0.00    -0.129 NA
HETATM   25  C1  UNL     1      29.179   8.342   8.403  1.00  0.00     0.159 C 
ENDBRANCH  22  24
ENDBRANCH  18  22
ENDBRANCH   9  10
ENDBRANCH   1   9
BRANCH   8  26
HETATM   26  N10 UNL     1      26.635  15.502   9.116  1.00  0.00    -0.110 N 
HETATM   27  O2  UNL     1      27.637  14.813   9.405  1.00  0.00    -0.532 OA
HETATM   28  O3  UNL     1      26.000  15.992  10.236  1.00  0.00    -0.532 OA
ENDBRANCH   8  26
BRANCH   4  29
HETATM   29  N7  UNL     1      24.796  16.214   3.976  1.00  0.00    -0.234 N 
ATOM     30  H72 UNL     1      24.351  15.453   3.462  1.00  0.00     0.174 HD
ATOM     31  H71 UNL     1      24.873  17.120   3.513  1.00  0.00     0.174 HD
ENDBRANCH   4  29
BRANCH   7  32
HETATM   32  N9  UNL     1      27.750  17.362   7.271  1.00  0.00    -0.383 N 
ATOM     33  H92 UNL     1      27.933  18.271   6.846  1.00  0.00     0.157 HD
ATOM     34  H91 UNL     1      28.371  17.012   8.000  1.00  0.00     0.157 HD
ENDBRANCH   7  32
TORSDOF 7
ENDMDL
MODEL 5
REMARK VINA RESULT: -7.647859398      4.748      7.965
REMARK  7 active torsions:
REMARK  status: ('A' for Active; 'I' for Inactive)
REMARK    1  A    between atoms: N1_2  and  N2_3 
REMARK    2  A    between atoms: N2_3  and  C3_5 
REMARK    3  A    between atoms: N5_13  and  C7_15 
REMARK    4  A    between atoms: C7_15  and  C8_16 
REMARK    5  A    between atoms: C9_19  and  N7_20 
REMARK    6  A    between atoms: C10_25  and  N9_26 
REMARK    7  A    between atoms: C11_29  and  N10_30 
ROOT
HETATM    1  C8  UNL     1      24.890  18.152   5.105  1.00  0.00     0.081 A 
HETATM    2  N6  UNL     1      24.087  19.093   5.695  1.00  0.00    -0.192 N 
ATOM      3  H6  UNL     1      23.856  18.999   6.684  1.00  0.00     0.184 HD
HETATM    4  C9  UNL     1      23.597  20.131   5.010  1.00  0.00     0.677 A 
HETATM    5  N8  UNL     1      23.912  20.231   3.728  1.00  0.00    -0.175 N 
ATOM      6  H8  UNL     1      23.544  21.021   3.198  1.00  0.00     0.186 HD
HETATM    7  C10 UNL     1      24.719  19.314   3.073  1.00  0.00     0.150 A 
HETATM    8  C11 UNL     1      25.233  18.234   3.770  1.00  0.00     0.171 A 
ENDROOT
BRANCH   1   9
HETATM    9  C7  UNL     1      25.408  17.016   5.934  1.00  0.00     0.181 C 
BRANCH   9  10
HETATM   10  N5  UNL     1      26.835  17.222   6.042  1.00  0.00    -0.366 N 
HETATM   11  C6  UNL     1      27.547  17.203   7.100  1.00  0.00     0.187 A 
HETATM   12  C5  UNL     1      27.017  16.968   8.346  1.00  0.00     0.306 A 
HETATM   13  N11 UNL     1      28.887  17.460   6.998  1.00  0.00    -0.169 N 
HETATM   14  N4  UNL     1      27.863  17.004   9.399  1.00  0.00    -0.244 N 
HETATM   15  O1  UNL     1      25.805  16.724   8.545  1.00  0.00    -0.262 OA
HETATM   16  N3  UNL     1      29.156  17.254   9.274  1.00  0.00    -0.126 N 
HETATM   17  C4  UNL     1      27.330  16.767  10.727  1.00  0.00     0.182 C 
HETATM   18  C3  UNL     1      29.703  17.492   8.048  1.00  0.00     0.712 A 
ATOM     19  H3  UNL     1      29.749  17.269  10.103  1.00  0.00     0.206 HD
ATOM     20  H11 UNL     1      29.280  17.634   6.072  1.00  0.00     0.186 HD
ATOM     21  H5  UNL     1      27.332  17.403   5.170  1.00  0.00     0.161 HD
BRANCH  18  22
HETATM   22  N2  UNL     1      31.086  17.775   7.997  1.00  0.00    -0.132 N 
HETATM   23  C2  UNL     1      31.826  18.227   9.165  1.00  0.00     0.192 C 
BRANCH  22  24
HETATM   24  N1  UNL     1      31.772  17.609   6.793  1.00  0.00    -0.129 NA
HETATM   25  C1  UNL     1      32.538  16.374   6.780  1.00  0.00     0.159 C 
ENDBRANCH  22  24
ENDBRANCH  18  22
ENDBRANCH   9  10
ENDBRANCH   1   9
BRANCH   8  26
HETATM   26  N10 UNL     1      26.051  17.232   3.195  1.00  0.00    -0.110 N 
HETATM   27  O2  UNL     1      27.259  17.395   2.921  1.00  0.00    -0.532 OA
HETATM   28  O3  UNL     1      25.606  15.971   2.862  1.00  0.00    -0.532 OA
ENDBRANCH   8  26
BRANCH   4  29
HETATM   29  N7  UNL     1      22.842  20.986   5.630  1.00  0.00    -0.234 N 
ATOM     30  H72 UNL     1      22.779  21.047   6.646  1.00  0.00     0.174 HD
ATOM     31  H71 UNL     1      22.279  21.633   5.078  1.00  0.00     0.174 HD
ENDBRANCH   4  29
BRANCH   7  32
HETATM   32  N9  UNL     1      24.957  19.497   1.860  1.00  0.00    -0.383 N 
ATOM     33  H92 UNL     1      24.595  18.876   1.136  1.00  0.00     0.157 HD
ATOM     34  H91 UNL     1      25.533  20.297   1.597  1.00  0.00     0.157 HD
ENDBRANCH   7  32
TORSDOF 7
ENDMDL
