MODEL 1
REMARK VINA RESULT: -9.326023963      0.000      0.000
REMARK  8 active torsions:
REMARK  status: ('A' for Active; 'I' for Inactive)
REMARK    1  A    between atoms: N1_2  and  C2_4 
REMARK    2  A    between atoms: C4_8  and  C5_9 
REMARK    3  A    between atoms: C5_9  and  N3_10 
REMARK    4  A    between atoms: N3_10  and  C6_12 
REMARK    5  A    between atoms: C9_16  and  C10_17 
REMARK    6  A    between atoms: C10_17  and  N4_18 
REMARK    7  A    between atoms: N4_18  and  C11_19 
REMARK       I    between atoms: N4_18  and  C18_26 
REMARK    8  A    between atoms: C11_19  and  C12_20 
REMARK       I    between atoms: C18_26  and  N5_28 
ROOT
HETATM    1  C6  UNL     1      20.487  25.184  17.759  1.00  0.00     0.115 C 
HETATM    2  C7  UNL     1      19.175  25.933  17.315  1.00  0.00     0.056 C 
HETATM    3  C8  UNL     1      18.184  25.075  16.656  1.00  0.00     0.173 C 
HETATM    4  O1  UNL     1      18.233  23.742  17.044  1.00  0.00    -0.359 OA
HETATM    5  C9  UNL     1      17.078  23.609  17.941  1.00  0.00     0.284 C 
HETATM    6  O3  UNL     1      17.533  24.250  19.114  1.00  0.00    -0.318 OA
HETATM    7  C20 UNL     1      18.833  24.333  19.668  1.00  0.00     0.087 A 
HETATM    8  C21 UNL     1      18.709  24.144  21.026  1.00  0.00    -0.027 A 
HETATM    9  C22 UNL     1      17.348  24.018  21.607  1.00  0.00     0.051 C 
HETATM   10  C23 UNL     1      19.838  24.151  21.790  1.00  0.00     0.017 A 
HETATM   11  C24 UNL     1      21.079  24.332  21.197  1.00  0.00    -0.055 A 
HETATM   12  C25 UNL     1      22.317  24.404  22.006  1.00  0.00     0.049 C 
HETATM   13  C26 UNL     1      21.216  24.527  19.804  1.00  0.00    -0.045 A 
HETATM   14  C27 UNL     1      22.532  24.512  19.198  1.00  0.00     0.049 C 
HETATM   15  C28 UNL     1      20.082  24.533  19.098  1.00  0.00     0.005 A 
ENDROOT
BRANCH   1  16
HETATM   16  N3  UNL     1      21.282  26.290  18.199  1.00  0.00    -0.408 N 
ATOM     17  H3  UNL     1      21.731  26.228  19.112  1.00  0.00     0.154 HD
BRANCH  16  18
HETATM   18  C5  UNL     1      21.481  27.470  17.431  1.00  0.00     0.175 C 
BRANCH  18  19
HETATM   19  C4  UNL     1      22.930  27.390  17.009  1.00  0.00     0.068 A 
HETATM   20  N2  UNL     1      23.899  27.835  17.787  1.00  0.00    -0.362 N 
HETATM   21  C3  UNL     1      25.204  27.728  17.472  1.00  0.00     0.136 A 
ATOM     22  H2  UNL     1      23.647  28.282  18.669  1.00  0.00     0.165 HD
HETATM   23  C2  UNL     1      25.532  27.116  16.279  1.00  0.00     0.117 A 
HETATM   24  N7  UNL     1      24.574  26.647  15.464  1.00  0.00    -0.328 N 
HETATM   25  C29 UNL     1      23.253  26.781  15.829  1.00  0.00     0.142 A 
ATOM     26  H7  UNL     1      24.822  26.196  14.584  1.00  0.00     0.168 HD
HETATM   27  N6  UNL     1      22.287  26.315  14.901  1.00  0.00    -0.081 NA
BRANCH  23  28
HETATM   28  N1  UNL     1      26.779  27.066  15.946  1.00  0.00    -0.380 N 
HETATM   29  C1  UNL     1      27.477  28.031  15.108  1.00  0.00     0.147 C 
ATOM     30  H1  UNL     1      27.323  26.279  16.302  1.00  0.00     0.160 HD
ENDBRANCH  23  28
ENDBRANCH  18  19
ENDBRANCH  16  18
ENDBRANCH   1  16
BRANCH   5  31
HETATM   31  C10 UNL     1      16.791  22.163  17.964  1.00  0.00     0.188 C 
BRANCH  31  32
HETATM   32  N4  UNL     1      15.573  21.634  17.446  1.00  0.00    -0.329 N 
HETATM   33  C18 UNL     1      15.334  21.359  16.120  1.00  0.00     0.318 C 
HETATM   34  O2  UNL     1      16.178  21.754  15.237  1.00  0.00    -0.247 OA
HETATM   35  N5  UNL     1      14.207  20.645  15.598  1.00  0.00    -0.347 N 
HETATM   36  C19 UNL     1      14.117  20.444  14.143  1.00  0.00     0.151 C 
ATOM     37  H5  UNL     1      13.484  20.284  16.220  1.00  0.00     0.163 HD
BRANCH  32  38
HETATM   38  C11 UNL     1      14.452  21.492  18.427  1.00  0.00     0.132 C 
BRANCH  38  39
HETATM   39  C12 UNL     1      14.580  20.191  19.091  1.00  0.00     0.004 C 
HETATM   40  C13 UNL     1      15.001  20.235  20.509  1.00  0.00     0.006 C 
HETATM   41  C14 UNL     1      14.377  19.090  21.311  1.00  0.00     0.000 C 
HETATM   42  C15 UNL     1      14.388  17.826  20.511  1.00  0.00     0.000 C 
HETATM   43  C16 UNL     1      13.760  17.894  19.167  1.00  0.00     0.000 C 
HETATM   44  C17 UNL     1      13.321  19.345  18.886  1.00  0.00     0.006 C 
ENDBRANCH  38  39
ENDBRANCH  32  38
ENDBRANCH  31  32
ENDBRANCH   5  31
TORSDOF 8
ENDMDL
MODEL 2
REMARK VINA RESULT: -9.169468557      2.670     10.018
REMARK  8 active torsions:
REMARK  status: ('A' for Active; 'I' for Inactive)
REMARK    1  A    between atoms: N1_2  and  C2_4 
REMARK    2  A    between atoms: C4_8  and  C5_9 
REMARK    3  A    between atoms: C5_9  and  N3_10 
REMARK    4  A    between atoms: N3_10  and  C6_12 
REMARK    5  A    between atoms: C9_16  and  C10_17 
REMARK    6  A    between atoms: C10_17  and  N4_18 
REMARK    7  A    between atoms: N4_18  and  C11_19 
REMARK       I    between atoms: N4_18  and  C18_26 
REMARK    8  A    between atoms: C11_19  and  C12_20 
REMARK       I    between atoms: C18_26  and  N5_28 
ROOT
HETATM    1  C6  UNL     1      18.504  23.720  18.218  1.00  0.00     0.115 C 
HETATM    2  C7  UNL     1      18.615  24.344  19.659  1.00  0.00     0.056 C 
HETATM    3  C8  UNL     1      19.765  23.868  20.436  1.00  0.00     0.173 C 
HETATM    4  O1  UNL     1      20.853  23.473  19.667  1.00  0.00    -0.359 OA
HETATM    5  C9  UNL     1      21.794  24.589  19.816  1.00  0.00     0.284 C 
HETATM    6  O3  UNL     1      21.221  25.580  18.989  1.00  0.00    -0.318 OA
HETATM    7  C20 UNL     1      20.480  25.456  17.788  1.00  0.00     0.087 A 
HETATM    8  C21 UNL     1      20.935  26.430  16.928  1.00  0.00    -0.027 A 
HETATM    9  C22 UNL     1      21.940  27.406  17.422  1.00  0.00     0.051 C 
HETATM   10  C23 UNL     1      20.392  26.501  15.681  1.00  0.00     0.017 A 
HETATM   11  C24 UNL     1      19.413  25.597  15.294  1.00  0.00    -0.055 A 
HETATM   12  C25 UNL     1      18.762  25.686  13.968  1.00  0.00     0.049 C 
HETATM   13  C26 UNL     1      18.940  24.594  16.171  1.00  0.00    -0.045 A 
HETATM   14  C27 UNL     1      18.068  23.550  15.671  1.00  0.00     0.049 C 
HETATM   15  C28 UNL     1      19.486  24.575  17.390  1.00  0.00     0.005 A 
ENDROOT
BRANCH   1  16
HETATM   16  N3  UNL     1      17.238  24.243  17.804  1.00  0.00    -0.408 N 
ATOM     17  H3  UNL     1      17.138  24.557  16.839  1.00  0.00     0.154 HD
BRANCH  16  18
HETATM   18  C5  UNL     1      16.112  24.350  18.666  1.00  0.00     0.175 C 
BRANCH  18  19
HETATM   19  C4  UNL     1      15.477  22.981  18.606  1.00  0.00     0.068 A 
HETATM   20  N2  UNL     1      15.633  22.106  19.583  1.00  0.00    -0.362 N 
HETATM   21  C3  UNL     1      15.035  20.899  19.592  1.00  0.00     0.136 A 
ATOM     22  H2  UNL     1      16.234  22.357  20.368  1.00  0.00     0.165 HD
HETATM   23  C2  UNL     1      14.219  20.574  18.528  1.00  0.00     0.117 A 
HETATM   24  N7  UNL     1      14.034  21.439  17.519  1.00  0.00    -0.328 N 
HETATM   25  C29 UNL     1      14.667  22.661  17.553  1.00  0.00     0.142 A 
ATOM     26  H7  UNL     1      13.430  21.193  16.734  1.00  0.00     0.168 HD
HETATM   27  N6  UNL     1      14.474  23.508  16.432  1.00  0.00    -0.081 NA
BRANCH  23  28
HETATM   28  N1  UNL     1      13.694  19.394  18.505  1.00  0.00    -0.380 N 
HETATM   29  C1  UNL     1      14.338  18.165  18.949  1.00  0.00     0.147 C 
ATOM     30  H1  UNL     1      12.743  19.317  18.144  1.00  0.00     0.160 HD
ENDBRANCH  23  28
ENDBRANCH  18  19
ENDBRANCH  16  18
ENDBRANCH   1  16
BRANCH   5  31
HETATM   31  C10 UNL     1      23.107  24.016  19.466  1.00  0.00     0.188 C 
BRANCH  31  32
HETATM   32  N4  UNL     1      24.306  24.453  20.099  1.00  0.00    -0.329 N 
HETATM   33  C18 UNL     1      24.411  24.820  21.421  1.00  0.00     0.318 C 
HETATM   34  O2  UNL     1      23.343  24.957  22.118  1.00  0.00    -0.247 OA
HETATM   35  N5  UNL     1      25.631  25.066  22.132  1.00  0.00    -0.347 N 
HETATM   36  C19 UNL     1      25.550  25.451  23.549  1.00  0.00     0.151 C 
ATOM     37  H5  UNL     1      26.534  24.976  21.666  1.00  0.00     0.163 HD
BRANCH  32  38
HETATM   38  C11 UNL     1      25.492  24.629  19.203  1.00  0.00     0.132 C 
BRANCH  38  39
HETATM   39  C12 UNL     1      25.240  25.772  18.321  1.00  0.00     0.004 C 
HETATM   40  C13 UNL     1      25.553  27.102  18.892  1.00  0.00     0.006 C 
HETATM   41  C14 UNL     1      26.035  28.072  17.811  1.00  0.00     0.000 C 
HETATM   42  C15 UNL     1      25.228  27.907  16.563  1.00  0.00     0.000 C 
HETATM   43  C16 UNL     1      25.157  26.532  16.004  1.00  0.00     0.000 C 
HETATM   44  C17 UNL     1      25.890  25.562  16.952  1.00  0.00     0.006 C 
ENDBRANCH  38  39
ENDBRANCH  32  38
ENDBRANCH  31  32
ENDBRANCH   5  31
TORSDOF 8
ENDMDL
MODEL 3
REMARK VINA RESULT: -9.142295228      2.895     10.024
REMARK  8 active torsions:
REMARK  status: ('A' for Active; 'I' for Inactive)
REMARK    1  A    between atoms: N1_2  and  C2_4 
REMARK    2  A    between atoms: C4_8  and  C5_9 
REMARK    3  A    between atoms: C5_9  and  N3_10 
REMARK    4  A    between atoms: N3_10  and  C6_12 
REMARK    5  A    between atoms: C9_16  and  C10_17 
REMARK    6  A    between atoms: C10_17  and  N4_18 
REMARK    7  A    between atoms: N4_18  and  C11_19 
REMARK       I    between atoms: N4_18  and  C18_26 
REMARK    8  A    between atoms: C11_19  and  C12_20 
REMARK       I    between atoms: C18_26  and  N5_28 
ROOT
HETATM    1  C6  UNL     1      18.543  23.888  18.265  1.00  0.00     0.115 C 
HETATM    2  C7  UNL     1      18.673  24.483  19.717  1.00  0.00     0.056 C 
HETATM    3  C8  UNL     1      19.809  23.960  20.484  1.00  0.00     0.173 C 
HETATM    4  O1  UNL     1      20.885  23.549  19.706  1.00  0.00    -0.359 OA
HETATM    5  C9  UNL     1      21.857  24.635  19.874  1.00  0.00     0.284 C 
HETATM    6  O3  UNL     1      21.312  25.656  19.066  1.00  0.00    -0.318 OA
HETATM    7  C20 UNL     1      20.567  25.575  17.864  1.00  0.00     0.087 A 
HETATM    8  C21 UNL     1      21.049  26.550  17.021  1.00  0.00    -0.027 A 
HETATM    9  C22 UNL     1      22.082  27.489  17.531  1.00  0.00     0.051 C 
HETATM   10  C23 UNL     1      20.508  26.660  15.775  1.00  0.00     0.017 A 
HETATM   11  C24 UNL     1      19.503  25.791  15.374  1.00  0.00    -0.055 A 
HETATM   12  C25 UNL     1      18.853  25.922  14.050  1.00  0.00     0.049 C 
HETATM   13  C26 UNL     1      19.002  24.786  16.233  1.00  0.00    -0.045 A 
HETATM   14  C27 UNL     1      18.100  23.777  15.716  1.00  0.00     0.049 C 
HETATM   15  C28 UNL     1      19.548  24.730  17.451  1.00  0.00     0.005 A 
ENDROOT
BRANCH   1  16
HETATM   16  N3  UNL     1      17.292  24.455  17.862  1.00  0.00    -0.408 N 
ATOM     17  H3  UNL     1      17.258  24.977  16.987  1.00  0.00     0.154 HD
BRANCH  16  18
HETATM   18  C5  UNL     1      16.092  24.329  18.617  1.00  0.00     0.175 C 
BRANCH  18  19
HETATM   19  C4  UNL     1      15.345  23.211  17.927  1.00  0.00     0.068 A 
HETATM   20  N2  UNL     1      14.635  23.428  16.836  1.00  0.00    -0.362 N 
HETATM   21  C3  UNL     1      14.005  22.448  16.161  1.00  0.00     0.136 A 
ATOM     22  H2  UNL     1      14.561  24.384  16.487  1.00  0.00     0.165 HD
HETATM   23  C2  UNL     1      14.118  21.158  16.639  1.00  0.00     0.117 A 
HETATM   24  N7  UNL     1      14.835  20.899  17.744  1.00  0.00    -0.328 N 
HETATM   25  C29 UNL     1      15.461  21.934  18.400  1.00  0.00     0.142 A 
ATOM     26  H7  UNL     1      14.915  19.944  18.093  1.00  0.00     0.168 HD
HETATM   27  N6  UNL     1      16.158  21.603  19.591  1.00  0.00    -0.081 NA
BRANCH  23  28
HETATM   28  N1  UNL     1      13.465  20.226  16.029  1.00  0.00    -0.380 N 
HETATM   29  C1  UNL     1      12.153  20.367  15.412  1.00  0.00     0.147 C 
ATOM     30  H1  UNL     1      13.908  19.309  15.974  1.00  0.00     0.160 HD
ENDBRANCH  23  28
ENDBRANCH  18  19
ENDBRANCH  16  18
ENDBRANCH   1  16
BRANCH   5  31
HETATM   31  C10 UNL     1      23.153  24.031  19.512  1.00  0.00     0.188 C 
BRANCH  31  32
HETATM   32  N4  UNL     1      24.367  24.432  20.142  1.00  0.00    -0.329 N 
HETATM   33  C18 UNL     1      24.485  24.801  21.461  1.00  0.00     0.318 C 
HETATM   34  O2  UNL     1      23.423  24.976  22.160  1.00  0.00    -0.247 OA
HETATM   35  N5  UNL     1      25.713  25.012  22.170  1.00  0.00    -0.347 N 
HETATM   36  C19 UNL     1      25.647  25.406  23.586  1.00  0.00     0.151 C 
ATOM     37  H5  UNL     1      26.612  24.891  21.704  1.00  0.00     0.163 HD
BRANCH  32  38
HETATM   38  C11 UNL     1      25.557  24.565  19.244  1.00  0.00     0.132 C 
BRANCH  38  39
HETATM   39  C12 UNL     1      25.338  25.709  18.352  1.00  0.00     0.004 C 
HETATM   40  C13 UNL     1      25.646  27.037  18.929  1.00  0.00     0.006 C 
HETATM   41  C14 UNL     1      26.165  28.000  17.860  1.00  0.00     0.000 C 
HETATM   42  C15 UNL     1      25.391  27.839  16.590  1.00  0.00     0.000 C 
HETATM   43  C16 UNL     1      25.324  26.464  16.033  1.00  0.00     0.000 C 
HETATM   44  C17 UNL     1      26.023  25.490  17.002  1.00  0.00     0.006 C 
ENDBRANCH  38  39
ENDBRANCH  32  38
ENDBRANCH  31  32
ENDBRANCH   5  31
TORSDOF 8
ENDMDL
MODEL 4
REMARK VINA RESULT: -9.052483951      1.566      3.311
REMARK  8 active torsions:
REMARK  status: ('A' for Active; 'I' for Inactive)
REMARK    1  A    between atoms: N1_2  and  C2_4 
REMARK    2  A    between atoms: C4_8  and  C5_9 
REMARK    3  A    between atoms: C5_9  and  N3_10 
REMARK    4  A    between atoms: N3_10  and  C6_12 
REMARK    5  A    between atoms: C9_16  and  C10_17 
REMARK    6  A    between atoms: C10_17  and  N4_18 
REMARK    7  A    between atoms: N4_18  and  C11_19 
REMARK       I    between atoms: N4_18  and  C18_26 
REMARK    8  A    between atoms: C11_19  and  C12_20 
REMARK       I    between atoms: C18_26  and  N5_28 
ROOT
HETATM    1  C6  UNL     1      20.732  24.796  17.347  1.00  0.00     0.115 C 
HETATM    2  C7  UNL     1      20.113  25.845  16.349  1.00  0.00     0.056 C 
HETATM    3  C8  UNL     1      19.448  25.249  15.184  1.00  0.00     0.173 C 
HETATM    4  O1  UNL     1      18.931  23.978  15.408  1.00  0.00    -0.359 OA
HETATM    5  C9  UNL     1      17.489  24.219  15.536  1.00  0.00     0.284 C 
HETATM    6  O3  UNL     1      17.391  24.783  16.827  1.00  0.00    -0.318 OA
HETATM    7  C20 UNL     1      18.158  24.544  17.993  1.00  0.00     0.087 A 
HETATM    8  C21 UNL     1      17.281  24.479  19.051  1.00  0.00    -0.027 A 
HETATM    9  C22 UNL     1      15.843  24.762  18.804  1.00  0.00     0.051 C 
HETATM   10  C23 UNL     1      17.778  24.227  20.294  1.00  0.00     0.017 A 
HETATM   11  C24 UNL     1      19.139  24.028  20.473  1.00  0.00    -0.055 A 
HETATM   12  C25 UNL     1      19.717  23.811  21.818  1.00  0.00     0.049 C 
HETATM   13  C26 UNL     1      20.048  24.093  19.392  1.00  0.00    -0.045 A 
HETATM   14  C27 UNL     1      21.426  23.685  19.581  1.00  0.00     0.049 C 
HETATM   15  C28 UNL     1      19.518  24.363  18.196  1.00  0.00     0.005 A 
ENDROOT
BRANCH   1  16
HETATM   16  N3  UNL     1      21.422  25.670  18.247  1.00  0.00    -0.408 N 
ATOM     17  H3  UNL     1      21.702  25.303  19.156  1.00  0.00     0.154 HD
BRANCH  16  18
HETATM   18  C5  UNL     1      21.738  27.023  17.942  1.00  0.00     0.175 C 
BRANCH  18  19
HETATM   19  C4  UNL     1      23.087  26.938  17.267  1.00  0.00     0.068 A 
HETATM   20  N2  UNL     1      23.268  27.374  16.033  1.00  0.00    -0.362 N 
HETATM   21  C3  UNL     1      24.467  27.368  15.420  1.00  0.00     0.136 A 
ATOM     22  H2  UNL     1      22.462  27.731  15.521  1.00  0.00     0.165 HD
HETATM   23  C2  UNL     1      25.552  26.888  16.125  1.00  0.00     0.117 A 
HETATM   24  N7  UNL     1      25.406  26.441  17.383  1.00  0.00    -0.328 N 
HETATM   25  C29 UNL     1      24.161  26.465  17.967  1.00  0.00     0.142 A 
ATOM     26  H7  UNL     1      26.211  26.086  17.899  1.00  0.00     0.168 HD
HETATM   27  N6  UNL     1      24.062  25.929  19.277  1.00  0.00    -0.081 NA
BRANCH  23  28
HETATM   28  N1  UNL     1      26.690  26.826  15.519  1.00  0.00    -0.380 N 
HETATM   29  C1  UNL     1      27.477  27.963  15.062  1.00  0.00     0.147 C 
ATOM     30  H1  UNL     1      27.072  25.896  15.344  1.00  0.00     0.160 HD
ENDBRANCH  23  28
ENDBRANCH  18  19
ENDBRANCH  16  18
ENDBRANCH   1  16
BRANCH   5  31
HETATM   31  C10 UNL     1      16.869  22.909  15.263  1.00  0.00     0.188 C 
BRANCH  31  32
HETATM   32  N4  UNL     1      15.754  22.438  16.015  1.00  0.00    -0.329 N 
HETATM   33  C18 UNL     1      15.837  21.633  17.128  1.00  0.00     0.318 C 
HETATM   34  O2  UNL     1      16.967  21.108  17.437  1.00  0.00    -0.247 OA
HETATM   35  N5  UNL     1      14.760  21.311  18.016  1.00  0.00    -0.347 N 
HETATM   36  C19 UNL     1      15.036  20.429  19.161  1.00  0.00     0.151 C 
ATOM     37  H5  UNL     1      13.825  21.685  17.859  1.00  0.00     0.163 HD
BRANCH  32  38
HETATM   38  C11 UNL     1      14.405  22.762  15.456  1.00  0.00     0.132 C 
BRANCH  38  39
HETATM   39  C12 UNL     1      13.869  21.558  14.812  1.00  0.00     0.004 C 
HETATM   40  C13 UNL     1      12.462  21.233  15.135  1.00  0.00     0.006 C 
HETATM   41  C14 UNL     1      11.759  20.566  13.950  1.00  0.00     0.000 C 
HETATM   42  C15 UNL     1      12.674  19.589  13.283  1.00  0.00     0.000 C 
HETATM   43  C16 UNL     1      13.993  20.116  12.849  1.00  0.00     0.000 C 
HETATM   44  C17 UNL     1      14.127  21.582  13.304  1.00  0.00     0.006 C 
ENDBRANCH  38  39
ENDBRANCH  32  38
ENDBRANCH  31  32
ENDBRANCH   5  31
TORSDOF 8
ENDMDL
MODEL 5
REMARK VINA RESULT: -9.024801062      1.562      2.668
REMARK  8 active torsions:
REMARK  status: ('A' for Active; 'I' for Inactive)
REMARK    1  A    between atoms: N1_2  and  C2_4 
REMARK    2  A    between atoms: C4_8  and  C5_9 
REMARK    3  A    between atoms: C5_9  and  N3_10 
REMARK    4  A    between atoms: N3_10  and  C6_12 
REMARK    5  A    between atoms: C9_16  and  C10_17 
REMARK    6  A    between atoms: C10_17  and  N4_18 
REMARK    7  A    between atoms: N4_18  and  C11_19 
REMARK       I    between atoms: N4_18  and  C18_26 
REMARK    8  A    between atoms: C11_19  and  C12_20 
REMARK       I    between atoms: C18_26  and  N5_28 
ROOT
HETATM    1  C6  UNL     1      18.952  24.126  16.430  1.00  0.00     0.115 C 
HETATM    2  C7  UNL     1      17.859  24.847  15.554  1.00  0.00     0.056 C 
HETATM    3  C8  UNL     1      17.145  23.958  14.630  1.00  0.00     0.173 C 
HETATM    4  O1  UNL     1      17.066  22.637  15.053  1.00  0.00    -0.359 OA
HETATM    5  C9  UNL     1      15.680  22.515  15.520  1.00  0.00     0.284 C 
HETATM    6  O3  UNL     1      15.718  23.194  16.757  1.00  0.00    -0.318 OA
HETATM    7  C20 UNL     1      16.761  23.309  17.709  1.00  0.00     0.087 A 
HETATM    8  C21 UNL     1      16.194  23.156  18.953  1.00  0.00    -0.027 A 
HETATM    9  C22 UNL     1      14.718  23.029  19.055  1.00  0.00     0.051 C 
HETATM   10  C23 UNL     1      17.005  23.199  20.048  1.00  0.00     0.017 A 
HETATM   11  C24 UNL     1      18.373  23.378  19.895  1.00  0.00    -0.055 A 
HETATM   12  C25 UNL     1      19.272  23.489  21.065  1.00  0.00     0.049 C 
HETATM   13  C26 UNL     1      18.963  23.536  18.620  1.00  0.00    -0.045 A 
HETATM   14  C27 UNL     1      20.406  23.521  18.485  1.00  0.00     0.049 C 
HETATM   15  C28 UNL     1      18.127  23.509  17.578  1.00  0.00     0.005 A 
ENDROOT
BRANCH   1  16
HETATM   16  N3  UNL     1      19.553  25.254  17.075  1.00  0.00    -0.408 N 
ATOM     17  H3  UNL     1      19.797  25.173  18.061  1.00  0.00     0.154 HD
BRANCH  16  18
HETATM   18  C5  UNL     1      19.829  26.483  16.413  1.00  0.00     0.175 C 
BRANCH  18  19
HETATM   19  C4  UNL     1      21.328  26.634  16.539  1.00  0.00     0.068 A 
HETATM   20  N2  UNL     1      22.137  26.315  15.545  1.00  0.00    -0.362 N 
HETATM   21  C3  UNL     1      23.471  26.490  15.598  1.00  0.00     0.136 A 
ATOM     22  H2  UNL     1      21.732  25.916  14.698  1.00  0.00     0.165 HD
HETATM   23  C2  UNL     1      24.006  27.036  16.747  1.00  0.00     0.117 A 
HETATM   24  N7  UNL     1      23.214  27.377  17.776  1.00  0.00    -0.328 N 
HETATM   25  C29 UNL     1      21.856  27.177  17.676  1.00  0.00     0.142 A 
ATOM     26  H7  UNL     1      23.615  27.779  18.623  1.00  0.00     0.168 HD
HETATM   27  N6  UNL     1      21.079  27.507  18.816  1.00  0.00    -0.081 NA
BRANCH  23  28
HETATM   28  N1  UNL     1      25.291  27.149  16.823  1.00  0.00    -0.380 N 
HETATM   29  C1  UNL     1      26.215  27.158  15.697  1.00  0.00     0.147 C 
ATOM     30  H1  UNL     1      25.693  27.241  17.756  1.00  0.00     0.160 HD
ENDBRANCH  23  28
ENDBRANCH  18  19
ENDBRANCH  16  18
ENDBRANCH   1  16
BRANCH   5  31
HETATM   31  C10 UNL     1      15.405  21.066  15.491  1.00  0.00     0.188 C 
BRANCH  31  32
HETATM   32  N4  UNL     1      14.074  20.557  15.494  1.00  0.00    -0.329 N 
HETATM   33  C18 UNL     1      13.440  20.002  14.407  1.00  0.00     0.318 C 
HETATM   34  O2  UNL     1      13.990  20.088  13.251  1.00  0.00    -0.247 OA
HETATM   35  N5  UNL     1      12.189  19.304  14.428  1.00  0.00    -0.347 N 
HETATM   36  C19 UNL     1      11.661  18.774  13.160  1.00  0.00     0.151 C 
ATOM     37  H5  UNL     1      11.677  19.176  15.300  1.00  0.00     0.163 HD
BRANCH  32  38
HETATM   38  C11 UNL     1      13.296  20.768  16.755  1.00  0.00     0.132 C 
BRANCH  38  39
HETATM   39  C12 UNL     1      13.465  19.585  17.605  1.00  0.00     0.004 C 
HETATM   40  C13 UNL     1      14.614  19.627  18.537  1.00  0.00     0.006 C 
HETATM   41  C14 UNL     1      14.308  18.874  19.833  1.00  0.00     0.000 C 
HETATM   42  C15 UNL     1      13.560  17.612  19.540  1.00  0.00     0.000 C 
HETATM   43  C16 UNL     1      12.317  17.756  18.740  1.00  0.00     0.000 C 
HETATM   44  C17 UNL     1      12.157  19.229  18.315  1.00  0.00     0.006 C 
ENDBRANCH  38  39
ENDBRANCH  32  38
ENDBRANCH  31  32
ENDBRANCH   5  31
TORSDOF 8
ENDMDL
