MODEL 1
REMARK VINA RESULT: -9.497743917      0.000      0.000
REMARK  12 active torsions:
REMARK  status: ('A' for Active; 'I' for Inactive)
REMARK    1  A    between atoms: C2_2  and  C4_4 
REMARK       I    between atoms: C4_4  and  N1_6 
REMARK    2  A    between atoms: N1_6  and  C5_8 
REMARK    3  A    between atoms: C17_20  and  C18_21 
REMARK    4  A    between atoms: C17_20  and  S2_36 
REMARK    5  A    between atoms: C19_22  and  C20_23 
REMARK    6  A    between atoms: C20_23  and  C21_24 
REMARK    7  A    between atoms: C21_24  and  O2_25 
REMARK    8  A    between atoms: C21_24  and  N2_27 
REMARK       I    between atoms: N2_27  and  C22_29 
REMARK    9  A    between atoms: C22_29  and  C23_31 
REMARK   10  A    between atoms: C23_31  and  C24_32 
REMARK   11  A    between atoms: C24_32  and  S1_33 
REMARK   12  A    between atoms: S2_36  and  C25_37 
ROOT
HETATM    1  C5  UNL     1      19.073  24.189  21.085  1.00  0.00     0.088 C 
HETATM    2  C6  UNL     1      19.928  22.912  21.004  1.00  0.00     0.026 C 
HETATM    3  C7  UNL     1      19.124  21.950  20.116  1.00  0.00     0.007 C 
HETATM    4  C8  UNL     1      17.880  22.693  19.820  1.00  0.00    -0.004 C 
HETATM    5  C9  UNL     1      18.402  24.136  19.754  1.00  0.00     0.013 C 
HETATM    6  C10 UNL     1      17.194  24.992  19.581  1.00  0.00     0.008 C 
HETATM    7  C11 UNL     1      16.741  24.717  18.134  1.00  0.00     0.012 C 
HETATM    8  C12 UNL     1      16.290  23.313  17.964  1.00  0.00    -0.012 C 
HETATM    9  C13 UNL     1      14.841  23.286  18.488  1.00  0.00     0.018 C 
HETATM   10  C14 UNL     1      17.062  22.277  18.685  1.00  0.00     0.001 C 
HETATM   11  C15 UNL     1      17.797  21.573  17.577  1.00  0.00     0.008 C 
HETATM   12  C16 UNL     1      16.662  21.472  16.538  1.00  0.00     0.035 C 
HETATM   13  C17 UNL     1      16.202  22.913  16.506  1.00  0.00     0.079 C 
ENDROOT
BRANCH  13  14
HETATM   14  C18 UNL     1      17.136  23.722  15.680  1.00  0.00    -0.085 C 
HETATM   15  C19 UNL     1      17.880  24.383  14.986  1.00  0.00    -0.101 C 
BRANCH  15  16
HETATM   16  C20 UNL     1      18.777  25.160  14.131  1.00  0.00     0.147 C 
BRANCH  16  17
HETATM   17  C21 UNL     1      18.850  26.568  14.697  1.00  0.00     0.231 C 
BRANCH  17  18
HETATM   18  O2  UNL     1      18.768  27.429  13.601  1.00  0.00    -0.376 OA
ATOM     19  H2  UNL     1      19.663  27.592  13.328  1.00  0.00     0.212 HD
ENDBRANCH  17  18
BRANCH  17  20
HETATM   20  N2  UNL     1      20.141  26.667  15.347  1.00  0.00    -0.334 N 
HETATM   21  C22 UNL     1      20.833  27.877  15.561  1.00  0.00     0.220 C 
HETATM   22  O3  UNL     1      20.290  28.939  15.160  1.00  0.00    -0.274 OA
ATOM     23  H2  UNL     1      20.579  25.804  15.670  1.00  0.00     0.165 HD
BRANCH  21  24
HETATM   24  C23 UNL     1      22.143  27.964  16.223  1.00  0.00     0.118 C 
BRANCH  24  25
HETATM   25  C24 UNL     1      22.858  26.633  16.204  1.00  0.00     0.166 C 
BRANCH  25  26
HETATM   26  S1  UNL     1      24.452  26.852  16.060  1.00  0.00     0.251 S 
HETATM   27  O4  UNL     1      25.325  25.815  16.197  1.00  0.00    -0.212 OA
HETATM   28  O5  UNL     1      24.918  27.952  15.115  1.00  0.00    -0.212 OA
ENDBRANCH  25  26
ENDBRANCH  24  25
ENDBRANCH  21  24
ENDBRANCH  17  20
ENDBRANCH  16  17
ENDBRANCH  15  16
ENDBRANCH  13  14
BRANCH  13  29
HETATM   29  S2  UNL     1      14.547  23.159  15.887  1.00  0.00    -0.140 SA
BRANCH  29  30
HETATM   30  C25 UNL     1      14.078  22.157  14.488  1.00  0.00     0.049 C 
HETATM   31  C26 UNL     1      12.692  22.543  13.994  1.00  0.00     0.015 C 
HETATM   32  C27 UNL     1      11.667  21.476  14.203  1.00  0.00     0.001 C 
HETATM   33  C28 UNL     1      11.674  20.837  15.553  1.00  0.00     0.000 C 
HETATM   34  C29 UNL     1      13.078  20.572  16.056  1.00  0.00     0.001 C 
HETATM   35  C30 UNL     1      13.999  20.695  14.842  1.00  0.00     0.015 C 
ENDBRANCH  29  30
ENDBRANCH  13  29
BRANCH   1  36
HETATM   36  N1  UNL     1      19.842  25.349  21.343  1.00  0.00    -0.356 N 
HETATM   37  C4  UNL     1      20.917  25.699  20.491  1.00  0.00     0.221 C 
HETATM   38  O1  UNL     1      21.200  24.973  19.484  1.00  0.00    -0.273 OA
ATOM     39  H1  UNL     1      19.621  25.936  22.148  1.00  0.00     0.162 HD
BRANCH  37  40
HETATM   40  C2  UNL     1      21.763  26.897  20.702  1.00  0.00     0.070 C 
HETATM   41  C1  UNL     1      23.070  26.812  19.973  1.00  0.00     0.019 C 
HETATM   42  C3  UNL     1      22.109  27.014  22.193  1.00  0.00     0.019 C 
ENDBRANCH  37  40
ENDBRANCH   1  36
TORSDOF 12
ENDMDL
MODEL 2
REMARK VINA RESULT: -9.450417637      2.416      7.192
REMARK  12 active torsions:
REMARK  status: ('A' for Active; 'I' for Inactive)
REMARK    1  A    between atoms: C2_2  and  C4_4 
REMARK       I    between atoms: C4_4  and  N1_6 
REMARK    2  A    between atoms: N1_6  and  C5_8 
REMARK    3  A    between atoms: C17_20  and  C18_21 
REMARK    4  A    between atoms: C17_20  and  S2_36 
REMARK    5  A    between atoms: C19_22  and  C20_23 
REMARK    6  A    between atoms: C20_23  and  C21_24 
REMARK    7  A    between atoms: C21_24  and  O2_25 
REMARK    8  A    between atoms: C21_24  and  N2_27 
REMARK       I    between atoms: N2_27  and  C22_29 
REMARK    9  A    between atoms: C22_29  and  C23_31 
REMARK   10  A    between atoms: C23_31  and  C24_32 
REMARK   11  A    between atoms: C24_32  and  S1_33 
REMARK   12  A    between atoms: S2_36  and  C25_37 
ROOT
HETATM    1  C5  UNL     1      14.842  21.236  17.082  1.00  0.00     0.088 C 
HETATM    2  C6  UNL     1      13.923  22.464  17.203  1.00  0.00     0.026 C 
HETATM    3  C7  UNL     1      14.669  23.429  18.138  1.00  0.00     0.007 C 
HETATM    4  C8  UNL     1      15.885  22.683  18.524  1.00  0.00    -0.004 C 
HETATM    5  C9  UNL     1      16.173  21.892  17.239  1.00  0.00     0.013 C 
HETATM    6  C10 UNL     1      17.322  21.001  17.564  1.00  0.00     0.008 C 
HETATM    7  C11 UNL     1      18.525  21.958  17.662  1.00  0.00     0.012 C 
HETATM    8  C12 UNL     1      18.382  22.895  18.805  1.00  0.00    -0.012 C 
HETATM    9  C13 UNL     1      18.838  22.098  20.043  1.00  0.00     0.018 C 
HETATM   10  C14 UNL     1      17.023  23.419  19.067  1.00  0.00     0.001 C 
HETATM   11  C15 UNL     1      17.130  24.858  18.640  1.00  0.00     0.008 C 
HETATM   12  C16 UNL     1      18.501  25.207  19.252  1.00  0.00     0.035 C 
HETATM   13  C17 UNL     1      19.334  24.069  18.705  1.00  0.00     0.079 C 
ENDROOT
BRANCH  13  14
HETATM   14  C18 UNL     1      19.691  24.340  17.288  1.00  0.00    -0.085 C 
HETATM   15  C19 UNL     1      19.978  24.586  16.135  1.00  0.00    -0.101 C 
BRANCH  15  16
HETATM   16  C20 UNL     1      20.297  24.894  14.742  1.00  0.00     0.147 C 
BRANCH  16  17
HETATM   17  C21 UNL     1      19.979  26.360  14.508  1.00  0.00     0.231 C 
BRANCH  17  18
HETATM   18  O2  UNL     1      19.234  26.410  13.329  1.00  0.00    -0.376 OA
ATOM     19  H2  UNL     1      19.531  27.183  12.863  1.00  0.00     0.212 HD
ENDBRANCH  17  18
BRANCH  17  20
HETATM   20  N2  UNL     1      21.258  27.022  14.348  1.00  0.00    -0.334 N 
HETATM   21  C22 UNL     1      21.508  28.365  14.698  1.00  0.00     0.220 C 
HETATM   22  O3  UNL     1      20.554  29.030  15.180  1.00  0.00    -0.274 OA
ATOM     23  H2  UNL     1      22.029  26.481  13.956  1.00  0.00     0.165 HD
BRANCH  21  24
HETATM   24  C23 UNL     1      22.811  29.026  14.531  1.00  0.00     0.118 C 
BRANCH  24  25
HETATM   25  C24 UNL     1      23.658  28.893  15.775  1.00  0.00     0.166 C 
BRANCH  25  26
HETATM   26  S1  UNL     1      24.569  27.561  15.696  1.00  0.00     0.251 S 
HETATM   27  O4  UNL     1      24.015  26.319  15.768  1.00  0.00    -0.212 OA
HETATM   28  O5  UNL     1      25.842  27.641  14.864  1.00  0.00    -0.212 OA
ENDBRANCH  25  26
ENDBRANCH  24  25
ENDBRANCH  21  24
ENDBRANCH  17  20
ENDBRANCH  16  17
ENDBRANCH  15  16
ENDBRANCH  13  14
BRANCH  13  29
HETATM   29  S2  UNL     1      20.837  23.736  19.609  1.00  0.00    -0.140 SA
BRANCH  29  30
HETATM   30  C25 UNL     1      22.103  24.988  19.509  1.00  0.00     0.049 C 
HETATM   31  C26 UNL     1      23.330  24.573  20.305  1.00  0.00     0.015 C 
HETATM   32  C27 UNL     1      23.576  25.425  21.507  1.00  0.00     0.001 C 
HETATM   33  C28 UNL     1      22.374  25.708  22.348  1.00  0.00     0.000 C 
HETATM   34  C29 UNL     1      21.147  26.008  21.513  1.00  0.00     0.001 C 
HETATM   35  C30 UNL     1      21.650  26.298  20.099  1.00  0.00     0.015 C 
ENDBRANCH  29  30
ENDBRANCH  13  29
BRANCH   1  36
HETATM   36  N1  UNL     1      14.645  20.520  15.877  1.00  0.00    -0.356 N 
HETATM   37  C4  UNL     1      14.482  21.212  14.652  1.00  0.00     0.221 C 
HETATM   38  O1  UNL     1      14.513  22.484  14.626  1.00  0.00    -0.273 OA
ATOM     39  H1  UNL     1      14.620  19.500  15.891  1.00  0.00     0.162 HD
BRANCH  37  40
HETATM   40  C2  UNL     1      14.271  20.527  13.355  1.00  0.00     0.070 C 
HETATM   41  C1  UNL     1      14.315  21.473  12.193  1.00  0.00     0.019 C 
HETATM   42  C3  UNL     1      12.874  19.892  13.341  1.00  0.00     0.019 C 
ENDBRANCH  37  40
ENDBRANCH   1  36
TORSDOF 12
ENDMDL
MODEL 3
REMARK VINA RESULT: -9.239357386      1.285      1.528
REMARK  12 active torsions:
REMARK  status: ('A' for Active; 'I' for Inactive)
REMARK    1  A    between atoms: C2_2  and  C4_4 
REMARK       I    between atoms: C4_4  and  N1_6 
REMARK    2  A    between atoms: N1_6  and  C5_8 
REMARK    3  A    between atoms: C17_20  and  C18_21 
REMARK    4  A    between atoms: C17_20  and  S2_36 
REMARK    5  A    between atoms: C19_22  and  C20_23 
REMARK    6  A    between atoms: C20_23  and  C21_24 
REMARK    7  A    between atoms: C21_24  and  O2_25 
REMARK    8  A    between atoms: C21_24  and  N2_27 
REMARK       I    between atoms: N2_27  and  C22_29 
REMARK    9  A    between atoms: C22_29  and  C23_31 
REMARK   10  A    between atoms: C23_31  and  C24_32 
REMARK   11  A    between atoms: C24_32  and  S1_33 
REMARK   12  A    between atoms: S2_36  and  C25_37 
ROOT
HETATM    1  C5  UNL     1      19.037  24.077  21.258  1.00  0.00     0.088 C 
HETATM    2  C6  UNL     1      19.898  22.805  21.167  1.00  0.00     0.026 C 
HETATM    3  C7  UNL     1      19.126  21.868  20.224  1.00  0.00     0.007 C 
HETATM    4  C8  UNL     1      17.890  22.617  19.910  1.00  0.00    -0.004 C 
HETATM    5  C9  UNL     1      18.410  24.063  19.905  1.00  0.00     0.013 C 
HETATM    6  C10 UNL     1      17.206  24.922  19.719  1.00  0.00     0.008 C 
HETATM    7  C11 UNL     1      16.802  24.690  18.250  1.00  0.00     0.012 C 
HETATM    8  C12 UNL     1      16.361  23.291  18.022  1.00  0.00    -0.012 C 
HETATM    9  C13 UNL     1      14.895  23.245  18.497  1.00  0.00     0.018 C 
HETATM   10  C14 UNL     1      17.111  22.235  18.736  1.00  0.00     0.001 C 
HETATM   11  C15 UNL     1      17.885  21.566  17.632  1.00  0.00     0.008 C 
HETATM   12  C16 UNL     1      16.784  21.495  16.554  1.00  0.00     0.035 C 
HETATM   13  C17 UNL     1      16.322  22.935  16.551  1.00  0.00     0.079 C 
ENDROOT
BRANCH  13  14
HETATM   14  C18 UNL     1      17.280  23.771  15.781  1.00  0.00    -0.085 C 
HETATM   15  C19 UNL     1      18.077  24.455  15.173  1.00  0.00    -0.101 C 
BRANCH  15  16
HETATM   16  C20 UNL     1      19.035  25.298  14.459  1.00  0.00     0.147 C 
BRANCH  16  17
HETATM   17  C21 UNL     1      20.431  24.854  14.862  1.00  0.00     0.231 C 
BRANCH  17  18
HETATM   18  O2  UNL     1      20.275  24.101  16.027  1.00  0.00    -0.376 OA
ATOM     19  H2  UNL     1      21.047  23.551  16.090  1.00  0.00     0.212 HD
ENDBRANCH  17  18
BRANCH  17  20
HETATM   20  N2  UNL     1      21.175  26.070  15.119  1.00  0.00    -0.334 N 
HETATM   21  C22 UNL     1      21.009  26.879  16.261  1.00  0.00     0.220 C 
HETATM   22  O3  UNL     1      20.155  26.517  17.113  1.00  0.00    -0.274 OA
ATOM     23  H2  UNL     1      21.866  26.360  14.426  1.00  0.00     0.165 HD
BRANCH  21  24
HETATM   24  C23 UNL     1      21.772  28.111  16.510  1.00  0.00     0.118 C 
BRANCH  24  25
HETATM   25  C24 UNL     1      23.010  28.174  15.648  1.00  0.00     0.166 C 
BRANCH  25  26
HETATM   26  S1  UNL     1      22.764  29.142  14.378  1.00  0.00     0.251 S 
HETATM   27  O4  UNL     1      23.801  29.754  13.742  1.00  0.00    -0.212 OA
HETATM   28  O5  UNL     1      21.571  28.824  13.486  1.00  0.00    -0.212 OA
ENDBRANCH  25  26
ENDBRANCH  24  25
ENDBRANCH  21  24
ENDBRANCH  17  20
ENDBRANCH  16  17
ENDBRANCH  15  16
ENDBRANCH  13  14
BRANCH  13  29
HETATM   29  S2  UNL     1      14.687  23.197  15.885  1.00  0.00    -0.140 SA
BRANCH  29  30
HETATM   30  C25 UNL     1      14.218  22.143  14.525  1.00  0.00     0.049 C 
HETATM   31  C26 UNL     1      12.847  22.534  13.993  1.00  0.00     0.015 C 
HETATM   32  C27 UNL     1      11.799  21.497  14.233  1.00  0.00     0.001 C 
HETATM   33  C28 UNL     1      11.774  20.918  15.610  1.00  0.00     0.000 C 
HETATM   34  C29 UNL     1      13.166  20.648  16.145  1.00  0.00     0.001 C 
HETATM   35  C30 UNL     1      14.106  20.700  14.942  1.00  0.00     0.015 C 
ENDBRANCH  29  30
ENDBRANCH  13  29
BRANCH   1  36
HETATM   36  N1  UNL     1      19.794  25.230  21.577  1.00  0.00    -0.356 N 
HETATM   37  C4  UNL     1      20.901  25.602  20.777  1.00  0.00     0.221 C 
HETATM   38  O1  UNL     1      21.224  24.903  19.763  1.00  0.00    -0.273 OA
ATOM     39  H1  UNL     1      19.541  25.795  22.388  1.00  0.00     0.162 HD
BRANCH  37  40
HETATM   40  C2  UNL     1      21.737  26.794  21.053  1.00  0.00     0.070 C 
HETATM   41  C1  UNL     1      22.920  26.889  20.138  1.00  0.00     0.019 C 
HETATM   42  C3  UNL     1      22.301  26.698  22.477  1.00  0.00     0.019 C 
ENDBRANCH  37  40
ENDBRANCH   1  36
TORSDOF 12
ENDMDL
MODEL 4
REMARK VINA RESULT: -9.225317050      0.504      1.078
REMARK  12 active torsions:
REMARK  status: ('A' for Active; 'I' for Inactive)
REMARK    1  A    between atoms: C2_2  and  C4_4 
REMARK       I    between atoms: C4_4  and  N1_6 
REMARK    2  A    between atoms: N1_6  and  C5_8 
REMARK    3  A    between atoms: C17_20  and  C18_21 
REMARK    4  A    between atoms: C17_20  and  S2_36 
REMARK    5  A    between atoms: C19_22  and  C20_23 
REMARK    6  A    between atoms: C20_23  and  C21_24 
REMARK    7  A    between atoms: C21_24  and  O2_25 
REMARK    8  A    between atoms: C21_24  and  N2_27 
REMARK       I    between atoms: N2_27  and  C22_29 
REMARK    9  A    between atoms: C22_29  and  C23_31 
REMARK   10  A    between atoms: C23_31  and  C24_32 
REMARK   11  A    between atoms: C24_32  and  S1_33 
REMARK   12  A    between atoms: S2_36  and  C25_37 
ROOT
HETATM    1  C5  UNL     1      19.095  24.181  20.980  1.00  0.00     0.088 C 
HETATM    2  C6  UNL     1      19.939  22.899  20.864  1.00  0.00     0.026 C 
HETATM    3  C7  UNL     1      19.092  21.940  20.013  1.00  0.00     0.007 C 
HETATM    4  C8  UNL     1      17.840  22.689  19.770  1.00  0.00    -0.004 C 
HETATM    5  C9  UNL     1      18.366  24.130  19.679  1.00  0.00     0.013 C 
HETATM    6  C10 UNL     1      17.157  24.992  19.557  1.00  0.00     0.008 C 
HETATM    7  C11 UNL     1      16.641  24.718  18.132  1.00  0.00     0.012 C 
HETATM    8  C12 UNL     1      16.175  23.316  17.983  1.00  0.00    -0.012 C 
HETATM    9  C13 UNL     1      14.750  23.297  18.569  1.00  0.00     0.018 C 
HETATM   10  C14 UNL     1      16.972  22.276  18.672  1.00  0.00     0.001 C 
HETATM   11  C15 UNL     1      17.655  21.567  17.534  1.00  0.00     0.008 C 
HETATM   12  C16 UNL     1      16.475  21.471  16.545  1.00  0.00     0.035 C 
HETATM   13  C17 UNL     1      16.022  22.914  16.531  1.00  0.00     0.079 C 
ENDROOT
BRANCH  13  14
HETATM   14  C18 UNL     1      16.923  23.717  15.664  1.00  0.00    -0.085 C 
HETATM   15  C19 UNL     1      17.641  24.372  14.937  1.00  0.00    -0.101 C 
BRANCH  15  16
HETATM   16  C20 UNL     1      18.507  25.140  14.043  1.00  0.00     0.147 C 
BRANCH  16  17
HETATM   17  C21 UNL     1      18.619  26.546  14.605  1.00  0.00     0.231 C 
BRANCH  17  18
HETATM   18  O2  UNL     1      18.693  27.397  13.501  1.00  0.00    -0.376 OA
ATOM     19  H2  UNL     1      18.389  28.245  13.803  1.00  0.00     0.212 HD
ENDBRANCH  17  18
BRANCH  17  20
HETATM   20  N2  UNL     1      19.850  26.571  15.369  1.00  0.00    -0.334 N 
HETATM   21  C22 UNL     1      20.609  27.732  15.618  1.00  0.00     0.220 C 
HETATM   22  O3  UNL     1      20.187  28.819  15.142  1.00  0.00    -0.274 OA
ATOM     23  H2  UNL     1      20.190  25.688  15.752  1.00  0.00     0.165 HD
BRANCH  21  24
HETATM   24  C23 UNL     1      21.857  27.744  16.396  1.00  0.00     0.118 C 
BRANCH  24  25
HETATM   25  C24 UNL     1      22.639  26.467  16.198  1.00  0.00     0.166 C 
BRANCH  25  26
HETATM   26  S1  UNL     1      24.219  26.786  16.085  1.00  0.00     0.251 S 
HETATM   27  O4  UNL     1      25.151  25.799  16.193  1.00  0.00    -0.212 OA
HETATM   28  O5  UNL     1      24.628  27.950  15.192  1.00  0.00    -0.212 OA
ENDBRANCH  25  26
ENDBRANCH  24  25
ENDBRANCH  21  24
ENDBRANCH  17  20
ENDBRANCH  16  17
ENDBRANCH  15  16
ENDBRANCH  13  14
BRANCH  13  29
HETATM   29  S2  UNL     1      14.343  23.169  15.983  1.00  0.00    -0.140 SA
BRANCH  29  30
HETATM   30  C25 UNL     1      13.386  21.694  15.684  1.00  0.00     0.049 C 
HETATM   31  C26 UNL     1      14.248  20.618  15.041  1.00  0.00     0.015 C 
HETATM   32  C27 UNL     1      13.858  20.304  13.634  1.00  0.00     0.001 C 
HETATM   33  C28 UNL     1      13.613  21.489  12.758  1.00  0.00     0.000 C 
HETATM   34  C29 UNL     1      12.847  22.583  13.473  1.00  0.00     0.001 C 
HETATM   35  C30 UNL     1      12.250  21.942  14.726  1.00  0.00     0.015 C 
ENDBRANCH  29  30
ENDBRANCH  13  29
BRANCH   1  36
HETATM   36  N1  UNL     1      19.881  25.337  21.203  1.00  0.00    -0.356 N 
HETATM   37  C4  UNL     1      20.797  25.780  20.218  1.00  0.00     0.221 C 
HETATM   38  O1  UNL     1      20.919  25.142  19.123  1.00  0.00    -0.273 OA
ATOM     39  H1  UNL     1      19.787  25.853  22.077  1.00  0.00     0.162 HD
BRANCH  37  40
HETATM   40  C2  UNL     1      21.651  26.979  20.385  1.00  0.00     0.070 C 
HETATM   41  C1  UNL     1      23.079  26.724  20.010  1.00  0.00     0.019 C 
HETATM   42  C3  UNL     1      21.661  27.389  21.864  1.00  0.00     0.019 C 
ENDBRANCH  37  40
ENDBRANCH   1  36
TORSDOF 12
ENDMDL
MODEL 5
REMARK VINA RESULT: -9.047247081      2.496      7.215
REMARK  12 active torsions:
REMARK  status: ('A' for Active; 'I' for Inactive)
REMARK    1  A    between atoms: C2_2  and  C4_4 
REMARK       I    between atoms: C4_4  and  N1_6 
REMARK    2  A    between atoms: N1_6  and  C5_8 
REMARK    3  A    between atoms: C17_20  and  C18_21 
REMARK    4  A    between atoms: C17_20  and  S2_36 
REMARK    5  A    between atoms: C19_22  and  C20_23 
REMARK    6  A    between atoms: C20_23  and  C21_24 
REMARK    7  A    between atoms: C21_24  and  O2_25 
REMARK    8  A    between atoms: C21_24  and  N2_27 
REMARK       I    between atoms: N2_27  and  C22_29 
REMARK    9  A    between atoms: C22_29  and  C23_31 
REMARK   10  A    between atoms: C23_31  and  C24_32 
REMARK   11  A    between atoms: C24_32  and  S1_33 
REMARK   12  A    between atoms: S2_36  and  C25_37 
ROOT
HETATM    1  C5  UNL     1      14.826  21.089  17.115  1.00  0.00     0.088 C 
HETATM    2  C6  UNL     1      13.839  22.245  17.354  1.00  0.00     0.026 C 
HETATM    3  C7  UNL     1      14.574  23.207  18.302  1.00  0.00     0.007 C 
HETATM    4  C8  UNL     1      15.856  22.523  18.581  1.00  0.00    -0.004 C 
HETATM    5  C9  UNL     1      16.119  21.823  17.239  1.00  0.00     0.013 C 
HETATM    6  C10 UNL     1      17.339  20.993  17.452  1.00  0.00     0.008 C 
HETATM    7  C11 UNL     1      18.483  22.021  17.540  1.00  0.00     0.012 C 
HETATM    8  C12 UNL     1      18.346  22.885  18.740  1.00  0.00    -0.012 C 
HETATM    9  C13 UNL     1      18.920  22.054  19.905  1.00  0.00     0.018 C 
HETATM   10  C14 UNL     1      16.973  23.303  19.103  1.00  0.00     0.001 C 
HETATM   11  C15 UNL     1      16.965  24.767  18.754  1.00  0.00     0.008 C 
HETATM   12  C16 UNL     1      18.344  25.173  19.312  1.00  0.00     0.035 C 
HETATM   13  C17 UNL     1      19.214  24.122  18.658  1.00  0.00     0.079 C 
ENDROOT
BRANCH  13  14
HETATM   14  C18 UNL     1      19.473  24.492  17.242  1.00  0.00    -0.085 C 
HETATM   15  C19 UNL     1      19.695  24.816  16.094  1.00  0.00    -0.101 C 
BRANCH  15  16
HETATM   16  C20 UNL     1      19.945  25.228  14.713  1.00  0.00     0.147 C 
BRANCH  16  17
HETATM   17  C21 UNL     1      20.229  26.720  14.722  1.00  0.00     0.231 C 
BRANCH  17  18
HETATM   18  O2  UNL     1      20.026  27.159  13.412  1.00  0.00    -0.376 OA
ATOM     19  H2  UNL     1      19.929  28.103  13.464  1.00  0.00     0.212 HD
ENDBRANCH  17  18
BRANCH  17  20
HETATM   20  N2  UNL     1      21.617  26.857  15.112  1.00  0.00    -0.334 N 
HETATM   21  C22 UNL     1      22.053  27.497  16.291  1.00  0.00     0.220 C 
HETATM   22  O3  UNL     1      21.174  27.982  17.052  1.00  0.00    -0.274 OA
ATOM     23  H2  UNL     1      22.327  26.465  14.493  1.00  0.00     0.165 HD
BRANCH  21  24
HETATM   24  C23 UNL     1      23.466  27.629  16.676  1.00  0.00     0.118 C 
BRANCH  24  25
HETATM   25  C24 UNL     1      24.342  27.889  15.473  1.00  0.00     0.166 C 
BRANCH  25  26
HETATM   26  S1  UNL     1      24.097  29.384  14.910  1.00  0.00     0.251 S 
HETATM   27  O4  UNL     1      25.082  30.323  14.945  1.00  0.00    -0.212 OA
HETATM   28  O5  UNL     1      23.113  29.537  13.758  1.00  0.00    -0.212 OA
ENDBRANCH  25  26
ENDBRANCH  24  25
ENDBRANCH  21  24
ENDBRANCH  17  20
ENDBRANCH  16  17
ENDBRANCH  15  16
ENDBRANCH  13  14
BRANCH  13  29
HETATM   29  S2  UNL     1      20.783  23.842  19.461  1.00  0.00    -0.140 SA
BRANCH  29  30
HETATM   30  C25 UNL     1      21.926  25.212  19.445  1.00  0.00     0.049 C 
HETATM   31  C26 UNL     1      23.249  24.812  20.079  1.00  0.00     0.015 C 
HETATM   32  C27 UNL     1      23.527  25.513  21.368  1.00  0.00     0.001 C 
HETATM   33  C28 UNL     1      22.385  25.564  22.329  1.00  0.00     0.000 C 
HETATM   34  C29 UNL     1      21.067  25.855  21.640  1.00  0.00     0.001 C 
HETATM   35  C30 UNL     1      21.417  26.380  20.248  1.00  0.00     0.015 C 
ENDBRANCH  29  30
ENDBRANCH  13  29
BRANCH   1  36
HETATM   36  N1  UNL     1      14.607  20.427  15.883  1.00  0.00    -0.356 N 
HETATM   37  C4  UNL     1      14.556  21.164  14.674  1.00  0.00     0.221 C 
HETATM   38  O1  UNL     1      14.708  22.427  14.687  1.00  0.00    -0.273 OA
ATOM     39  H1  UNL     1      14.485  19.415  15.866  1.00  0.00     0.162 HD
BRANCH  37  40
HETATM   40  C2  UNL     1      14.329  20.536  13.352  1.00  0.00     0.070 C 
HETATM   41  C1  UNL     1      14.376  21.529  12.230  1.00  0.00     0.019 C 
HETATM   42  C3  UNL     1      12.925  19.916  13.320  1.00  0.00     0.019 C 
ENDBRANCH  37  40
ENDBRANCH   1  36
TORSDOF 12
ENDMDL
