MODEL 1
REMARK VINA RESULT: -8.743878813      0.000      0.000
REMARK  11 active torsions:
REMARK  status: ('A' for Active; 'I' for Inactive)
REMARK    1  A    between atoms: C2_2  and  C3_3 
REMARK    2  A    between atoms: C2_2  and  C10_14 
REMARK    3  A    between atoms: C3_3  and  C4_4 
REMARK    4  A    between atoms: C4_4  and  C5_5 
REMARK       I    between atoms: C5_5  and  N1_7 
REMARK    5  A    between atoms: N1_7  and  C6_9 
REMARK    6  A    between atoms: C6_9  and  C7_10 
REMARK    7  A    between atoms: C7_10  and  N2_11 
REMARK    8  A    between atoms: C17_21  and  O2_22 
REMARK    9  A    between atoms: C20_27  and  O4_28 
REMARK   10  A    between atoms: O4_28  and  C21_29 
REMARK   11  A    between atoms: C26_34  and  O5_35 
ROOT
HETATM    1  C10 UNL     1      14.338  20.591  18.524  1.00  0.00    -0.002 C 
HETATM    2  C11 UNL     1      14.735  21.377  19.763  1.00  0.00     0.006 C 
HETATM    3  C12 UNL     1      14.706  22.783  19.146  1.00  0.00     0.006 C 
HETATM    4  C13 UNL     1      14.961  22.580  17.654  1.00  0.00    -0.002 C 
HETATM    5  C14 UNL     1      15.994  23.534  17.247  1.00  0.00    -0.005 C 
HETATM    6  C15 UNL     1      16.006  23.969  15.817  1.00  0.00     0.008 C 
HETATM    7  C16 UNL     1      16.972  25.083  15.656  1.00  0.00     0.039 C 
HETATM    8  C17 UNL     1      18.292  24.964  16.303  1.00  0.00     0.072 C 
HETATM    9  C18 UNL     1      19.345  24.517  15.313  1.00  0.00     0.119 C 
HETATM   10  C19 UNL     1      20.702  24.662  15.927  1.00  0.00     0.158 C 
HETATM   11  O3  UNL     1      21.629  24.924  15.188  1.00  0.00    -0.295 OA
HETATM   12  C20 UNL     1      20.832  24.480  17.393  1.00  0.00     0.192 C 
HETATM   13  C27 UNL     1      19.681  23.777  18.026  1.00  0.00     0.052 C 
HETATM   14  C28 UNL     1      18.318  24.195  17.584  1.00  0.00    -0.006 C 
HETATM   15  C29 UNL     1      17.847  25.212  18.653  1.00  0.00     0.019 C 
HETATM   16  C30 UNL     1      17.365  23.070  17.693  1.00  0.00     0.001 C 
HETATM   17  C31 UNL     1      17.629  21.815  16.990  1.00  0.00     0.007 C 
HETATM   18  C32 UNL     1      16.696  20.760  17.625  1.00  0.00     0.010 C 
HETATM   19  C33 UNL     1      15.257  21.100  17.506  1.00  0.00    -0.036 C 
HETATM   20  C34 UNL     1      14.778  20.707  16.117  1.00  0.00     0.016 C 
ENDROOT
BRANCH   1  21
HETATM   21  C2  UNL     1      14.080  19.168  18.734  1.00  0.00    -0.013 C 
HETATM   22  C1  UNL     1      14.469  18.576  20.065  1.00  0.00     0.010 C 
BRANCH  21  23
HETATM   23  C3  UNL     1      12.632  18.784  18.531  1.00  0.00     0.014 C 
BRANCH  23  24
HETATM   24  C4  UNL     1      12.304  17.372  18.890  1.00  0.00     0.103 C 
BRANCH  24  25
HETATM   25  C5  UNL     1      11.108  16.896  18.160  1.00  0.00     0.217 C 
HETATM   26  O1  UNL     1      10.730  17.309  17.047  1.00  0.00    -0.274 OA
HETATM   27  N1  UNL     1      10.344  15.877  18.805  1.00  0.00    -0.359 N 
ATOM     28  H1  UNL     1      10.651  15.547  19.720  1.00  0.00     0.162 HD
BRANCH  27  29
HETATM   29  C6  UNL     1       9.162  15.296  18.228  1.00  0.00     0.152 C 
BRANCH  29  30
HETATM   30  C7  UNL     1       9.480  13.982  17.595  1.00  0.00     0.290 C 
BRANCH  30  31
HETATM   31  N2  UNL     1       9.405  14.043  16.139  1.00  0.00     0.081 N 
HETATM   32  C8  UNL     1       8.408  15.008  15.778  1.00  0.00     0.309 C 
HETATM   33  C9  UNL     1       9.087  12.702  15.688  1.00  0.00     0.309 C 
ENDBRANCH  30  31
ENDBRANCH  29  30
ENDBRANCH  27  29
ENDBRANCH  24  25
ENDBRANCH  23  24
ENDBRANCH  21  23
ENDBRANCH   1  21
BRANCH   8  34
HETATM   34  O2  UNL     1      18.680  26.292  16.628  1.00  0.00    -0.389 OA
ATOM     35  H2  UNL     1      18.293  26.471  17.478  1.00  0.00     0.210 HD
ENDBRANCH   8  34
BRANCH  12  36
HETATM   36  O4  UNL     1      21.117  25.631  18.094  1.00  0.00    -0.370 OA
BRANCH  36  37
HETATM   37  C21 UNL     1      21.274  25.419  19.458  1.00  0.00     0.151 C 
HETATM   38  C22 UNL     1      22.661  24.846  19.662  1.00  0.00     0.034 C 
HETATM   39  C23 UNL     1      23.638  25.938  19.225  1.00  0.00     0.003 C 
HETATM   40  C24 UNL     1      23.664  27.019  20.286  1.00  0.00     0.003 C 
HETATM   41  C25 UNL     1      22.422  26.908  21.113  1.00  0.00     0.034 C 
HETATM   42  C26 UNL     1      21.182  26.686  20.269  1.00  0.00     0.147 C 
BRANCH  42  43
HETATM   43  O5  UNL     1      20.979  27.827  19.534  1.00  0.00    -0.393 OA
ATOM     44  H5  UNL     1      20.410  28.468  19.943  1.00  0.00     0.210 HD
ENDBRANCH  42  43
ENDBRANCH  36  37
ENDBRANCH  12  36
TORSDOF 11
ENDMDL
MODEL 2
REMARK VINA RESULT: -8.672883283      2.433      3.160
REMARK  11 active torsions:
REMARK  status: ('A' for Active; 'I' for Inactive)
REMARK    1  A    between atoms: C2_2  and  C3_3 
REMARK    2  A    between atoms: C2_2  and  C10_14 
REMARK    3  A    between atoms: C3_3  and  C4_4 
REMARK    4  A    between atoms: C4_4  and  C5_5 
REMARK       I    between atoms: C5_5  and  N1_7 
REMARK    5  A    between atoms: N1_7  and  C6_9 
REMARK    6  A    between atoms: C6_9  and  C7_10 
REMARK    7  A    between atoms: C7_10  and  N2_11 
REMARK    8  A    between atoms: C17_21  and  O2_22 
REMARK    9  A    between atoms: C20_27  and  O4_28 
REMARK   10  A    between atoms: O4_28  and  C21_29 
REMARK   11  A    between atoms: C26_34  and  O5_35 
ROOT
HETATM    1  C10 UNL     1      14.666  20.314  18.871  1.00  0.00    -0.002 C 
HETATM    2  C11 UNL     1      15.053  21.122  20.100  1.00  0.00     0.006 C 
HETATM    3  C12 UNL     1      14.926  22.524  19.487  1.00  0.00     0.006 C 
HETATM    4  C13 UNL     1      15.149  22.336  17.987  1.00  0.00    -0.002 C 
HETATM    5  C14 UNL     1      16.114  23.348  17.552  1.00  0.00    -0.005 C 
HETATM    6  C15 UNL     1      16.060  23.783  16.124  1.00  0.00     0.008 C 
HETATM    7  C16 UNL     1      16.955  24.951  15.937  1.00  0.00     0.039 C 
HETATM    8  C17 UNL     1      18.298  24.907  16.546  1.00  0.00     0.072 C 
HETATM    9  C18 UNL     1      19.346  24.521  15.525  1.00  0.00     0.119 C 
HETATM   10  C19 UNL     1      20.709  24.744  16.100  1.00  0.00     0.158 C 
HETATM   11  O3  UNL     1      21.599  25.059  15.335  1.00  0.00    -0.295 OA
HETATM   12  C20 UNL     1      20.892  24.569  17.561  1.00  0.00     0.192 C 
HETATM   13  C27 UNL     1      19.802  23.801  18.225  1.00  0.00     0.052 C 
HETATM   14  C28 UNL     1      18.405  24.141  17.824  1.00  0.00    -0.006 C 
HETATM   15  C29 UNL     1      17.908  25.129  18.908  1.00  0.00     0.019 C 
HETATM   16  C30 UNL     1      17.521  22.963  17.959  1.00  0.00     0.001 C 
HETATM   17  C31 UNL     1      17.837  21.725  17.245  1.00  0.00     0.007 C 
HETATM   18  C32 UNL     1      16.983  20.619  17.904  1.00  0.00     0.010 C 
HETATM   19  C33 UNL     1      15.525  20.876  17.828  1.00  0.00    -0.036 C 
HETATM   20  C34 UNL     1      15.029  20.456  16.453  1.00  0.00     0.016 C 
ENDROOT
BRANCH   1  21
HETATM   21  C2  UNL     1      14.496  18.879  19.086  1.00  0.00    -0.013 C 
HETATM   22  C1  UNL     1      14.805  18.336  20.458  1.00  0.00     0.010 C 
BRANCH  21  23
HETATM   23  C3  UNL     1      13.104  18.385  18.762  1.00  0.00     0.014 C 
BRANCH  23  24
HETATM   24  C4  UNL     1      12.095  19.463  18.542  1.00  0.00     0.103 C 
BRANCH  24  25
HETATM   25  C5  UNL     1      11.645  19.497  17.131  1.00  0.00     0.217 C 
HETATM   26  O1  UNL     1      11.026  18.587  16.549  1.00  0.00    -0.274 OA
HETATM   27  N1  UNL     1      11.959  20.684  16.402  1.00  0.00    -0.359 N 
ATOM     28  H1  UNL     1      12.473  21.424  16.879  1.00  0.00     0.162 HD
BRANCH  27  29
HETATM   29  C6  UNL     1      11.584  20.885  15.029  1.00  0.00     0.152 C 
BRANCH  29  30
HETATM   30  C7  UNL     1      12.606  21.710  14.321  1.00  0.00     0.290 C 
BRANCH  30  31
HETATM   31  N2  UNL     1      13.109  21.050  13.121  1.00  0.00     0.081 N 
HETATM   32  C8  UNL     1      12.868  19.642  13.247  1.00  0.00     0.309 C 
HETATM   33  C9  UNL     1      14.518  21.380  13.031  1.00  0.00     0.309 C 
ENDBRANCH  30  31
ENDBRANCH  29  30
ENDBRANCH  27  29
ENDBRANCH  24  25
ENDBRANCH  23  24
ENDBRANCH  21  23
ENDBRANCH   1  21
BRANCH   8  34
HETATM   34  O2  UNL     1      18.619  26.255  16.862  1.00  0.00    -0.389 OA
ATOM     35  H2  UNL     1      19.284  26.207  17.540  1.00  0.00     0.210 HD
ENDBRANCH   8  34
BRANCH  12  36
HETATM   36  O4  UNL     1      21.131  25.734  18.256  1.00  0.00    -0.370 OA
BRANCH  36  37
HETATM   37  C21 UNL     1      21.356  25.529  19.611  1.00  0.00     0.151 C 
HETATM   38  C22 UNL     1      22.745  24.940  19.747  1.00  0.00     0.034 C 
HETATM   39  C23 UNL     1      23.711  26.016  19.251  1.00  0.00     0.003 C 
HETATM   40  C24 UNL     1      23.807  27.104  20.301  1.00  0.00     0.003 C 
HETATM   41  C25 UNL     1      22.608  27.014  21.193  1.00  0.00     0.034 C 
HETATM   42  C26 UNL     1      21.324  26.802  20.417  1.00  0.00     0.147 C 
BRANCH  42  43
HETATM   43  O5  UNL     1      21.096  27.941  19.685  1.00  0.00    -0.393 OA
ATOM     44  H5  UNL     1      21.724  28.639  19.829  1.00  0.00     0.210 HD
ENDBRANCH  42  43
ENDBRANCH  36  37
ENDBRANCH  12  36
TORSDOF 11
ENDMDL
MODEL 3
REMARK VINA RESULT: -8.561816617      3.093      5.013
REMARK  11 active torsions:
REMARK  status: ('A' for Active; 'I' for Inactive)
REMARK    1  A    between atoms: C2_2  and  C3_3 
REMARK    2  A    between atoms: C2_2  and  C10_14 
REMARK    3  A    between atoms: C3_3  and  C4_4 
REMARK    4  A    between atoms: C4_4  and  C5_5 
REMARK       I    between atoms: C5_5  and  N1_7 
REMARK    5  A    between atoms: N1_7  and  C6_9 
REMARK    6  A    between atoms: C6_9  and  C7_10 
REMARK    7  A    between atoms: C7_10  and  N2_11 
REMARK    8  A    between atoms: C17_21  and  O2_22 
REMARK    9  A    between atoms: C20_27  and  O4_28 
REMARK   10  A    between atoms: O4_28  and  C21_29 
REMARK   11  A    between atoms: C26_34  and  O5_35 
ROOT
HETATM    1  C10 UNL     1      16.164  22.625  16.904  1.00  0.00    -0.002 C 
HETATM    2  C11 UNL     1      17.406  21.787  16.647  1.00  0.00     0.006 C 
HETATM    3  C12 UNL     1      17.837  21.585  18.107  1.00  0.00     0.006 C 
HETATM    4  C13 UNL     1      17.264  22.777  18.871  1.00  0.00    -0.002 C 
HETATM    5  C14 UNL     1      18.336  23.329  19.701  1.00  0.00    -0.005 C 
HETATM    6  C15 UNL     1      17.940  24.062  20.942  1.00  0.00     0.008 C 
HETATM    7  C16 UNL     1      19.154  24.349  21.745  1.00  0.00     0.039 C 
HETATM    8  C17 UNL     1      20.348  24.862  21.048  1.00  0.00     0.072 C 
HETATM    9  C18 UNL     1      20.458  26.364  21.191  1.00  0.00     0.119 C 
HETATM   10  C19 UNL     1      21.801  26.815  20.710  1.00  0.00     0.158 C 
HETATM   11  O3  UNL     1      22.293  27.788  21.245  1.00  0.00    -0.295 OA
HETATM   12  C20 UNL     1      22.448  26.052  19.616  1.00  0.00     0.192 C 
HETATM   13  C27 UNL     1      21.517  25.177  18.849  1.00  0.00     0.052 C 
HETATM   14  C28 UNL     1      20.535  24.384  19.646  1.00  0.00    -0.006 C 
HETATM   15  C29 UNL     1      21.182  22.986  19.798  1.00  0.00     0.019 C 
HETATM   16  C30 UNL     1      19.303  24.142  18.866  1.00  0.00     0.001 C 
HETATM   17  C31 UNL     1      18.542  25.271  18.329  1.00  0.00     0.007 C 
HETATM   18  C32 UNL     1      17.591  24.682  17.263  1.00  0.00     0.010 C 
HETATM   19  C33 UNL     1      16.655  23.668  17.806  1.00  0.00    -0.036 C 
HETATM   20  C34 UNL     1      15.489  24.387  18.467  1.00  0.00     0.016 C 
ENDROOT
BRANCH   1  21
HETATM   21  C2  UNL     1      15.334  22.900  15.734  1.00  0.00    -0.013 C 
HETATM   22  C1  UNL     1      15.663  22.171  14.456  1.00  0.00     0.010 C 
BRANCH  21  23
HETATM   23  C3  UNL     1      13.862  22.652  15.970  1.00  0.00     0.014 C 
BRANCH  23  24
HETATM   24  C4  UNL     1      13.196  21.811  14.931  1.00  0.00     0.103 C 
BRANCH  24  25
HETATM   25  C5  UNL     1      12.338  20.773  15.549  1.00  0.00     0.217 C 
HETATM   26  O1  UNL     1      11.425  20.155  14.971  1.00  0.00    -0.274 OA
HETATM   27  N1  UNL     1      12.604  20.475  16.919  1.00  0.00    -0.359 N 
ATOM     28  H1  UNL     1      13.348  20.989  17.392  1.00  0.00     0.162 HD
BRANCH  27  29
HETATM   29  C6  UNL     1      11.873  19.487  17.664  1.00  0.00     0.152 C 
BRANCH  29  30
HETATM   30  C7  UNL     1      12.568  19.178  18.948  1.00  0.00     0.290 C 
BRANCH  30  31
HETATM   31  N2  UNL     1      14.002  18.985  18.763  1.00  0.00     0.081 N 
HETATM   32  C8  UNL     1      14.309  17.609  19.024  1.00  0.00     0.309 C 
HETATM   33  C9  UNL     1      14.660  19.897  19.679  1.00  0.00     0.309 C 
ENDBRANCH  30  31
ENDBRANCH  29  30
ENDBRANCH  27  29
ENDBRANCH  24  25
ENDBRANCH  23  24
ENDBRANCH  21  23
ENDBRANCH   1  21
BRANCH   8  34
HETATM   34  O2  UNL     1      21.461  24.374  21.787  1.00  0.00    -0.389 OA
ATOM     35  H2  UNL     1      22.027  23.955  21.148  1.00  0.00     0.210 HD
ENDBRANCH   8  34
BRANCH  12  36
HETATM   36  O4  UNL     1      23.558  25.330  19.995  1.00  0.00    -0.370 OA
BRANCH  36  37
HETATM   37  C21 UNL     1      24.720  25.728  19.346  1.00  0.00     0.151 C 
HETATM   38  C22 UNL     1      25.505  26.580  20.323  1.00  0.00     0.034 C 
HETATM   39  C23 UNL     1      25.887  25.655  21.478  1.00  0.00     0.003 C 
HETATM   40  C24 UNL     1      26.997  24.733  21.015  1.00  0.00     0.003 C 
HETATM   41  C25 UNL     1      26.996  24.698  19.520  1.00  0.00     0.034 C 
HETATM   42  C26 UNL     1      25.600  24.573  18.943  1.00  0.00     0.147 C 
BRANCH  42  43
HETATM   43  O5  UNL     1      25.122  23.336  19.295  1.00  0.00    -0.393 OA
ATOM     44  H5  UNL     1      25.776  22.741  19.642  1.00  0.00     0.210 HD
ENDBRANCH  42  43
ENDBRANCH  36  37
ENDBRANCH  12  36
TORSDOF 11
ENDMDL
MODEL 4
REMARK VINA RESULT: -8.520586849      3.197      5.279
REMARK  11 active torsions:
REMARK  status: ('A' for Active; 'I' for Inactive)
REMARK    1  A    between atoms: C2_2  and  C3_3 
REMARK    2  A    between atoms: C2_2  and  C10_14 
REMARK    3  A    between atoms: C3_3  and  C4_4 
REMARK    4  A    between atoms: C4_4  and  C5_5 
REMARK       I    between atoms: C5_5  and  N1_7 
REMARK    5  A    between atoms: N1_7  and  C6_9 
REMARK    6  A    between atoms: C6_9  and  C7_10 
REMARK    7  A    between atoms: C7_10  and  N2_11 
REMARK    8  A    between atoms: C17_21  and  O2_22 
REMARK    9  A    between atoms: C20_27  and  O4_28 
REMARK   10  A    between atoms: O4_28  and  C21_29 
REMARK   11  A    between atoms: C26_34  and  O5_35 
ROOT
HETATM    1  C10 UNL     1      16.517  22.978  17.178  1.00  0.00    -0.002 C 
HETATM    2  C11 UNL     1      17.672  22.011  16.970  1.00  0.00     0.006 C 
HETATM    3  C12 UNL     1      18.117  21.887  18.434  1.00  0.00     0.006 C 
HETATM    4  C13 UNL     1      17.672  23.183  19.109  1.00  0.00    -0.002 C 
HETATM    5  C14 UNL     1      18.810  23.698  19.873  1.00  0.00    -0.005 C 
HETATM    6  C15 UNL     1      18.511  24.560  21.057  1.00  0.00     0.008 C 
HETATM    7  C16 UNL     1      19.764  24.797  21.814  1.00  0.00     0.039 C 
HETATM    8  C17 UNL     1      20.984  25.141  21.059  1.00  0.00     0.072 C 
HETATM    9  C18 UNL     1      21.232  26.633  21.077  1.00  0.00     0.119 C 
HETATM   10  C19 UNL     1      22.599  26.920  20.540  1.00  0.00     0.158 C 
HETATM   11  O3  UNL     1      23.189  27.882  20.986  1.00  0.00    -0.295 OA
HETATM   12  C20 UNL     1      23.147  26.016  19.500  1.00  0.00     0.192 C 
HETATM   13  C27 UNL     1      22.123  25.173  18.822  1.00  0.00     0.052 C 
HETATM   14  C28 UNL     1      21.093  24.539  19.697  1.00  0.00    -0.006 C 
HETATM   15  C29 UNL     1      21.614  23.103  19.951  1.00  0.00     0.019 C 
HETATM   16  C30 UNL     1      19.826  24.350  18.959  1.00  0.00     0.001 C 
HETATM   17  C31 UNL     1      19.157  25.499  18.346  1.00  0.00     0.007 C 
HETATM   18  C32 UNL     1      18.132  24.917  17.347  1.00  0.00     0.010 C 
HETATM   19  C33 UNL     1      17.121  24.039  17.985  1.00  0.00    -0.036 C 
HETATM   20  C34 UNL     1      16.041  24.912  18.605  1.00  0.00     0.016 C 
ENDROOT
BRANCH   1  21
HETATM   21  C2  UNL     1      15.687  23.235  16.004  1.00  0.00    -0.013 C 
HETATM   22  C1  UNL     1      16.148  22.667  14.685  1.00  0.00     0.010 C 
BRANCH  21  23
HETATM   23  C3  UNL     1      14.258  22.770  16.164  1.00  0.00     0.014 C 
BRANCH  23  24
HETATM   24  C4  UNL     1      14.079  21.287  16.155  1.00  0.00     0.103 C 
BRANCH  24  25
HETATM   25  C5  UNL     1      13.741  20.779  17.504  1.00  0.00     0.217 C 
HETATM   26  O1  UNL     1      13.982  21.363  18.577  1.00  0.00    -0.274 OA
HETATM   27  N1  UNL     1      13.081  19.514  17.549  1.00  0.00    -0.359 N 
ATOM     28  H1  UNL     1      12.892  19.034  16.670  1.00  0.00     0.162 HD
BRANCH  27  29
HETATM   29  C6  UNL     1      12.672  18.884  18.775  1.00  0.00     0.152 C 
BRANCH  29  30
HETATM   30  C7  UNL     1      13.755  18.002  19.300  1.00  0.00     0.290 C 
BRANCH  30  31
HETATM   31  N2  UNL     1      13.812  18.012  20.758  1.00  0.00     0.081 N 
HETATM   32  C8  UNL     1      12.474  18.118  21.260  1.00  0.00     0.309 C 
HETATM   33  C9  UNL     1      14.649  19.137  21.129  1.00  0.00     0.309 C 
ENDBRANCH  30  31
ENDBRANCH  29  30
ENDBRANCH  27  29
ENDBRANCH  24  25
ENDBRANCH  23  24
ENDBRANCH  21  23
ENDBRANCH   1  21
BRANCH   8  34
HETATM   34  O2  UNL     1      22.065  24.613  21.815  1.00  0.00    -0.389 OA
ATOM     35  H2  UNL     1      22.834  24.712  21.266  1.00  0.00     0.210 HD
ENDBRANCH   8  34
BRANCH  12  36
HETATM   36  O4  UNL     1      24.197  25.227  19.918  1.00  0.00    -0.370 OA
BRANCH  36  37
HETATM   37  C21 UNL     1      25.346  25.393  19.156  1.00  0.00     0.151 C 
HETATM   38  C22 UNL     1      26.350  26.130  20.018  1.00  0.00     0.034 C 
HETATM   39  C23 UNL     1      26.671  25.196  21.184  1.00  0.00     0.003 C 
HETATM   40  C24 UNL     1      27.561  24.078  20.680  1.00  0.00     0.003 C 
HETATM   41  C25 UNL     1      27.420  23.989  19.193  1.00  0.00     0.034 C 
HETATM   42  C26 UNL     1      25.976  24.088  18.741  1.00  0.00     0.147 C 
BRANCH  42  43
HETATM   43  O5  UNL     1      25.328  22.967  19.195  1.00  0.00    -0.393 OA
ATOM     44  H5  UNL     1      25.326  22.235  18.589  1.00  0.00     0.210 HD
ENDBRANCH  42  43
ENDBRANCH  36  37
ENDBRANCH  12  36
TORSDOF 11
ENDMDL
MODEL 5
REMARK VINA RESULT: -8.517471287      2.810      4.536
REMARK  11 active torsions:
REMARK  status: ('A' for Active; 'I' for Inactive)
REMARK    1  A    between atoms: C2_2  and  C3_3 
REMARK    2  A    between atoms: C2_2  and  C10_14 
REMARK    3  A    between atoms: C3_3  and  C4_4 
REMARK    4  A    between atoms: C4_4  and  C5_5 
REMARK       I    between atoms: C5_5  and  N1_7 
REMARK    5  A    between atoms: N1_7  and  C6_9 
REMARK    6  A    between atoms: C6_9  and  C7_10 
REMARK    7  A    between atoms: C7_10  and  N2_11 
REMARK    8  A    between atoms: C17_21  and  O2_22 
REMARK    9  A    between atoms: C20_27  and  O4_28 
REMARK   10  A    between atoms: O4_28  and  C21_29 
REMARK   11  A    between atoms: C26_34  and  O5_35 
ROOT
HETATM    1  C10 UNL     1      14.630  22.435  16.463  1.00  0.00    -0.002 C 
HETATM    2  C11 UNL     1      15.686  22.511  15.372  1.00  0.00     0.006 C 
HETATM    3  C12 UNL     1      16.812  21.770  16.107  1.00  0.00     0.006 C 
HETATM    4  C13 UNL     1      16.530  21.969  17.594  1.00  0.00    -0.002 C 
HETATM    5  C14 UNL     1      17.779  22.391  18.231  1.00  0.00    -0.005 C 
HETATM    6  C15 UNL     1      17.953  22.080  19.682  1.00  0.00     0.008 C 
HETATM    7  C16 UNL     1      19.348  22.387  20.081  1.00  0.00     0.039 C 
HETATM    8  C17 UNL     1      19.945  23.654  19.618  1.00  0.00     0.072 C 
HETATM    9  C18 UNL     1      19.890  24.709  20.701  1.00  0.00     0.119 C 
HETATM   10  C19 UNL     1      20.731  25.880  20.301  1.00  0.00     0.158 C 
HETATM   11  O3  UNL     1      21.276  26.510  21.185  1.00  0.00    -0.295 OA
HETATM   12  C20 UNL     1      20.849  26.200  18.858  1.00  0.00     0.192 C 
HETATM   13  C27 UNL     1      19.799  25.574  18.007  1.00  0.00     0.052 C 
HETATM   14  C28 UNL     1      19.474  24.144  18.289  1.00  0.00    -0.006 C 
HETATM   15  C29 UNL     1      20.308  23.337  17.263  1.00  0.00     0.019 C 
HETATM   16  C30 UNL     1      18.068  23.850  17.941  1.00  0.00     0.001 C 
HETATM   17  C31 UNL     1      16.985  24.619  18.555  1.00  0.00     0.007 C 
HETATM   18  C32 UNL     1      15.727  24.350  17.699  1.00  0.00     0.010 C 
HETATM   19  C33 UNL     1      15.347  22.918  17.645  1.00  0.00    -0.036 C 
HETATM   20  C34 UNL     1      14.577  22.571  18.909  1.00  0.00     0.016 C 
ENDROOT
BRANCH   1  21
HETATM   21  C2  UNL     1      13.297  22.898  16.088  1.00  0.00    -0.013 C 
HETATM   22  C1  UNL     1      13.182  24.267  15.466  1.00  0.00     0.010 C 
BRANCH  21  23
HETATM   23  C3  UNL     1      12.582  21.965  15.138  1.00  0.00     0.014 C 
BRANCH  23  24
HETATM   24  C4  UNL     1      12.868  20.515  15.355  1.00  0.00     0.103 C 
BRANCH  24  25
HETATM   25  C5  UNL     1      12.170  20.004  16.556  1.00  0.00     0.217 C 
HETATM   26  O1  UNL     1      10.934  19.956  16.707  1.00  0.00    -0.274 OA
HETATM   27  N1  UNL     1      13.005  19.529  17.612  1.00  0.00    -0.359 N 
ATOM     28  H1  UNL     1      14.016  19.576  17.489  1.00  0.00     0.162 HD
BRANCH  27  29
HETATM   29  C6  UNL     1      12.488  18.989  18.840  1.00  0.00     0.152 C 
BRANCH  29  30
HETATM   30  C7  UNL     1      13.358  17.881  19.333  1.00  0.00     0.290 C 
BRANCH  30  31
HETATM   31  N2  UNL     1      13.675  18.021  20.750  1.00  0.00     0.081 N 
HETATM   32  C8  UNL     1      12.449  18.205  21.470  1.00  0.00     0.309 C 
HETATM   33  C9  UNL     1      14.573  19.155  20.859  1.00  0.00     0.309 C 
ENDBRANCH  30  31
ENDBRANCH  29  30
ENDBRANCH  27  29
ENDBRANCH  24  25
ENDBRANCH  23  24
ENDBRANCH  21  23
ENDBRANCH   1  21
BRANCH   8  34
HETATM   34  O2  UNL     1      21.336  23.393  19.476  1.00  0.00    -0.389 OA
ATOM     35  H2  UNL     1      21.745  24.243  19.360  1.00  0.00     0.210 HD
ENDBRANCH   8  34
BRANCH  12  36
HETATM   36  O4  UNL     1      22.092  25.962  18.315  1.00  0.00    -0.370 OA
BRANCH  36  37
HETATM   37  C21 UNL     1      22.622  27.062  17.653  1.00  0.00     0.151 C 
HETATM   38  C22 UNL     1      23.967  27.356  18.286  1.00  0.00     0.034 C 
HETATM   39  C23 UNL     1      24.847  26.142  17.991  1.00  0.00     0.003 C 
HETATM   40  C24 UNL     1      25.253  26.180  16.532  1.00  0.00     0.003 C 
HETATM   41  C25 UNL     1      24.300  27.064  15.793  1.00  0.00     0.034 C 
HETATM   42  C26 UNL     1      22.857  26.816  16.185  1.00  0.00     0.147 C 
BRANCH  42  43
HETATM   43  O5  UNL     1      22.527  25.555  15.754  1.00  0.00    -0.393 OA
ATOM     44  H5  UNL     1      21.839  25.132  16.253  1.00  0.00     0.210 HD
ENDBRANCH  42  43
ENDBRANCH  36  37
ENDBRANCH  12  36
TORSDOF 11
ENDMDL
