MODEL 1
REMARK VINA RESULT: -8.396610204      0.000      0.000
REMARK  8 active torsions:
REMARK  status: ('A' for Active; 'I' for Inactive)
REMARK    1  A    between atoms: O1_2  and  C2_3 
REMARK    2  A    between atoms: C4_5  and  O2_6 
REMARK    3  A    between atoms: O2_6  and  C5_7 
REMARK    4  A    between atoms: C8_13  and  N1_14 
REMARK    5  A    between atoms: C10_19  and  N3_20 
REMARK    6  A    between atoms: N3_20  and  C12_22 
REMARK    7  A    between atoms: C12_22  and  C13_23 
REMARK    8  A    between atoms: C13_23  and  N4_24 
ROOT
HETATM    1  N1  UNL     1      17.365 -14.224  22.677  1.00  0.00    -0.187 N 
ATOM      2  H1  UNL     1      16.805 -15.051  22.884  1.00  0.00     0.184 HD
HETATM    3  C9  UNL     1      16.718 -13.353  22.029  1.00  0.00     0.712 A 
HETATM    4  N2  UNL     1      15.395 -13.536  21.656  1.00  0.00    -0.019 N 
ATOM      5  H2  UNL     1      14.843 -14.368  21.866  1.00  0.00     0.203 HD
HETATM    6  C10 UNL     1      14.941 -12.472  20.983  1.00  0.00     0.709 A 
HETATM    7  N5  UNL     1      15.958 -11.617  20.923  1.00  0.00    -0.117 N 
ATOM      8  H5  UNL     1      15.932 -10.704  20.470  1.00  0.00     0.206 HD
HETATM    9  N6  UNL     1      17.017 -12.136  21.544  1.00  0.00    -0.117 N 
ATOM     10  H6  UNL     1      17.922 -11.677  21.638  1.00  0.00     0.206 HD
ENDROOT
BRANCH   1  11
HETATM   11  C8  UNL     1      18.641 -14.321  23.168  1.00  0.00     0.084 A 
HETATM   12  C2  UNL     1      19.674 -14.426  22.216  1.00  0.00     0.098 A 
HETATM   13  C3  UNL     1      20.944 -14.613  22.653  1.00  0.00     0.077 A 
HETATM   14  C4  UNL     1      21.265 -14.701  24.047  1.00  0.00     0.099 A 
HETATM   15  C6  UNL     1      20.248 -14.594  24.956  1.00  0.00     0.070 A 
HETATM   16 CL1  UNL     1      20.526 -14.700  26.687  1.00  0.00    -0.081 Cl
HETATM   17  C7  UNL     1      18.940 -14.404  24.507  1.00  0.00     0.059 A 
BRANCH  12  18
HETATM   18  O1  UNL     1      19.320 -14.320  20.905  1.00  0.00    -0.354 OA
HETATM   19  C1  UNL     1      19.964 -13.509  19.933  1.00  0.00     0.210 C 
ENDBRANCH  12  18
BRANCH  14  20
HETATM   20  O2  UNL     1      22.550 -14.888  24.384  1.00  0.00    -0.288 OA
BRANCH  20  21
HETATM   21  C5  UNL     1      23.796 -14.510  24.090  1.00  0.00     0.505 C 
HETATM   22  F1  UNL     1      24.709 -15.518  24.447  1.00  0.00    -0.184 F 
HETATM   23  F2  UNL     1      24.240 -13.380  24.811  1.00  0.00    -0.184 F 
ENDBRANCH  20  21
ENDBRANCH  14  20
ENDBRANCH   1  11
BRANCH   6  24
HETATM   24  N3  UNL     1      13.601 -12.398  20.448  1.00  0.00    -0.216 N 
HETATM   25  C11 UNL     1      12.945 -13.650  20.134  1.00  0.00     0.169 C 
BRANCH  24  26
HETATM   26  C12 UNL     1      12.997 -11.124  20.323  1.00  0.00     0.185 C 
BRANCH  26  27
HETATM   27  C13 UNL     1      11.852 -10.756  21.178  1.00  0.00     0.078 C 
BRANCH  27  28
HETATM   28  N4  UNL     1      11.884 -10.905  22.545  1.00  0.00    -0.388 N 
HETATM   29  C14 UNL     1      12.669 -10.133  23.399  1.00  0.00     0.148 C 
HETATM   30  C15 UNL     1      11.731  -9.544  24.461  1.00  0.00     0.187 C 
HETATM   31  O3  UNL     1      10.719 -10.390  24.820  1.00  0.00    -0.388 OA
HETATM   32  C16 UNL     1      10.940 -11.726  24.567  1.00  0.00     0.187 C 
HETATM   33  C17 UNL     1      11.230 -12.039  23.115  1.00  0.00     0.148 C 
ENDBRANCH  27  28
ENDBRANCH  26  27
ENDBRANCH  24  26
ENDBRANCH   6  24
TORSDOF 8
ENDMDL
MODEL 2
REMARK VINA RESULT: -8.084850494      2.472      4.411
REMARK  8 active torsions:
REMARK  status: ('A' for Active; 'I' for Inactive)
REMARK    1  A    between atoms: O1_2  and  C2_3 
REMARK    2  A    between atoms: C4_5  and  O2_6 
REMARK    3  A    between atoms: O2_6  and  C5_7 
REMARK    4  A    between atoms: C8_13  and  N1_14 
REMARK    5  A    between atoms: C10_19  and  N3_20 
REMARK    6  A    between atoms: N3_20  and  C12_22 
REMARK    7  A    between atoms: C12_22  and  C13_23 
REMARK    8  A    between atoms: C13_23  and  N4_24 
ROOT
HETATM    1  N1  UNL     1      17.412 -14.226  22.597  1.00  0.00    -0.187 N 
ATOM      2  H1  UNL     1      16.882 -15.085  22.744  1.00  0.00     0.184 HD
HETATM    3  C9  UNL     1      16.762 -13.364  21.940  1.00  0.00     0.712 A 
HETATM    4  N2  UNL     1      15.473 -13.597  21.483  1.00  0.00    -0.019 N 
ATOM      5  H2  UNL     1      14.951 -14.460  21.634  1.00  0.00     0.203 HD
HETATM    6  C10 UNL     1      15.007 -12.532  20.818  1.00  0.00     0.709 A 
HETATM    7  N5  UNL     1      15.983 -11.629  20.845  1.00  0.00    -0.117 N 
ATOM      8  H5  UNL     1      15.939 -10.703  20.421  1.00  0.00     0.206 HD
HETATM    9  N6  UNL     1      17.028 -12.119  21.511  1.00  0.00    -0.117 N 
ATOM     10  H6  UNL     1      17.903 -11.622  21.673  1.00  0.00     0.206 HD
ENDROOT
BRANCH   1  11
HETATM   11  C8  UNL     1      18.661 -14.280  23.160  1.00  0.00     0.084 A 
HETATM   12  C2  UNL     1      19.750 -14.328  22.267  1.00  0.00     0.098 A 
HETATM   13  C3  UNL     1      20.999 -14.471  22.773  1.00  0.00     0.077 A 
HETATM   14  C4  UNL     1      21.244 -14.569  24.183  1.00  0.00     0.099 A 
HETATM   15  C6  UNL     1      20.172 -14.517  25.033  1.00  0.00     0.070 A 
HETATM   16 CL1  UNL     1      20.356 -14.640  26.776  1.00  0.00    -0.081 Cl
HETATM   17  C7  UNL     1      18.886 -14.372  24.512  1.00  0.00     0.059 A 
BRANCH  12  18
HETATM   18  O1  UNL     1      19.467 -14.215  20.940  1.00  0.00    -0.354 OA
HETATM   19  C1  UNL     1      20.142 -13.374  20.014  1.00  0.00     0.210 C 
ENDBRANCH  12  18
BRANCH  14  20
HETATM   20  O2  UNL     1      22.514 -14.710  24.591  1.00  0.00    -0.288 OA
BRANCH  20  21
HETATM   21  C5  UNL     1      23.782 -14.552  24.205  1.00  0.00     0.505 C 
HETATM   22  F1  UNL     1      24.570 -15.619  24.671  1.00  0.00    -0.184 F 
HETATM   23  F2  UNL     1      24.409 -13.407  24.744  1.00  0.00    -0.184 F 
ENDBRANCH  20  21
ENDBRANCH  14  20
ENDBRANCH   1  11
BRANCH   6  24
HETATM   24  N3  UNL     1      13.699 -12.503  20.207  1.00  0.00    -0.216 N 
HETATM   25  C11 UNL     1      12.562 -12.324  21.087  1.00  0.00     0.169 C 
BRANCH  24  26
HETATM   26  C12 UNL     1      13.614 -12.587  18.797  1.00  0.00     0.185 C 
BRANCH  26  27
HETATM   27  C13 UNL     1      14.559 -13.433  18.044  1.00  0.00     0.078 C 
BRANCH  27  28
HETATM   28  N4  UNL     1      15.101 -13.033  16.844  1.00  0.00    -0.388 N 
HETATM   29  C14 UNL     1      14.930 -11.766  16.291  1.00  0.00     0.148 C 
HETATM   30  C15 UNL     1      16.330 -11.212  15.995  1.00  0.00     0.187 C 
HETATM   31  O3  UNL     1      17.218 -12.170  15.590  1.00  0.00    -0.388 OA
HETATM   32  C16 UNL     1      16.662 -13.319  15.073  1.00  0.00     0.187 C 
HETATM   33  C17 UNL     1      15.713 -14.024  16.018  1.00  0.00     0.148 C 
ENDBRANCH  27  28
ENDBRANCH  26  27
ENDBRANCH  24  26
ENDBRANCH   6  24
TORSDOF 8
ENDMDL
MODEL 3
REMARK VINA RESULT: -8.060262961      2.257      3.119
REMARK  8 active torsions:
REMARK  status: ('A' for Active; 'I' for Inactive)
REMARK    1  A    between atoms: O1_2  and  C2_3 
REMARK    2  A    between atoms: C4_5  and  O2_6 
REMARK    3  A    between atoms: O2_6  and  C5_7 
REMARK    4  A    between atoms: C8_13  and  N1_14 
REMARK    5  A    between atoms: C10_19  and  N3_20 
REMARK    6  A    between atoms: N3_20  and  C12_22 
REMARK    7  A    between atoms: C12_22  and  C13_23 
REMARK    8  A    between atoms: C13_23  and  N4_24 
ROOT
HETATM    1  N1  UNL     1      17.491 -14.221  22.516  1.00  0.00    -0.187 N 
ATOM      2  H1  UNL     1      16.972 -15.091  22.632  1.00  0.00     0.184 HD
HETATM    3  C9  UNL     1      16.837 -13.352  21.872  1.00  0.00     0.712 A 
HETATM    4  N2  UNL     1      15.558 -13.592  21.391  1.00  0.00    -0.019 N 
ATOM      5  H2  UNL     1      15.048 -14.467  21.511  1.00  0.00     0.203 HD
HETATM    6  C10 UNL     1      15.085 -12.518  20.747  1.00  0.00     0.709 A 
HETATM    7  N5  UNL     1      16.047 -11.601  20.812  1.00  0.00    -0.117 N 
ATOM      8  H5  UNL     1      15.994 -10.665  20.411  1.00  0.00     0.206 HD
HETATM    9  N6  UNL     1      17.090 -12.092  21.480  1.00  0.00    -0.117 N 
ATOM     10  H6  UNL     1      17.955 -11.586  21.667  1.00  0.00     0.206 HD
ENDROOT
BRANCH   1  11
HETATM   11  C8  UNL     1      18.733 -14.270  23.095  1.00  0.00     0.084 A 
HETATM   12  C2  UNL     1      19.833 -14.332  22.216  1.00  0.00     0.098 A 
HETATM   13  C3  UNL     1      21.075 -14.472  22.741  1.00  0.00     0.077 A 
HETATM   14  C4  UNL     1      21.301 -14.552  24.154  1.00  0.00     0.099 A 
HETATM   15  C6  UNL     1      20.219 -14.488  24.990  1.00  0.00     0.070 A 
HETATM   16 CL1  UNL     1      20.381 -14.590  26.736  1.00  0.00    -0.081 Cl
HETATM   17  C7  UNL     1      18.941 -14.346  24.451  1.00  0.00     0.059 A 
BRANCH  12  18
HETATM   18  O1  UNL     1      19.567 -14.235  20.885  1.00  0.00    -0.354 OA
HETATM   19  C1  UNL     1      20.190 -13.338  19.975  1.00  0.00     0.210 C 
ENDBRANCH  12  18
BRANCH  14  20
HETATM   20  O2  UNL     1      22.566 -14.691  24.580  1.00  0.00    -0.288 OA
BRANCH  20  21
HETATM   21  C5  UNL     1      23.840 -14.544  24.207  1.00  0.00     0.505 C 
HETATM   22  F1  UNL     1      24.616 -15.612  24.692  1.00  0.00    -0.184 F 
HETATM   23  F2  UNL     1      24.467 -13.399  24.743  1.00  0.00    -0.184 F 
ENDBRANCH  20  21
ENDBRANCH  14  20
ENDBRANCH   1  11
BRANCH   6  24
HETATM   24  N3  UNL     1      13.785 -12.492  20.118  1.00  0.00    -0.216 N 
HETATM   25  C11 UNL     1      13.751 -12.505  18.670  1.00  0.00     0.169 C 
BRANCH  24  26
HETATM   26  C12 UNL     1      12.638 -12.520  20.946  1.00  0.00     0.185 C 
BRANCH  26  27
HETATM   27  C13 UNL     1      11.817 -13.742  21.041  1.00  0.00     0.078 C 
BRANCH  27  28
HETATM   28  N4  UNL     1      12.360 -14.999  20.898  1.00  0.00    -0.388 N 
HETATM   29  C14 UNL     1      12.339 -15.730  19.713  1.00  0.00     0.148 C 
HETATM   30  C15 UNL     1      13.789 -16.133  19.408  1.00  0.00     0.187 C 
HETATM   31  O3  UNL     1      14.521 -16.409  20.530  1.00  0.00    -0.388 OA
HETATM   32  C16 UNL     1      13.794 -16.739  21.652  1.00  0.00     0.187 C 
HETATM   33  C17 UNL     1      12.797 -15.681  22.074  1.00  0.00     0.148 C 
ENDBRANCH  27  28
ENDBRANCH  26  27
ENDBRANCH  24  26
ENDBRANCH   6  24
TORSDOF 8
ENDMDL
MODEL 4
REMARK VINA RESULT: -7.906202696      1.564      2.114
REMARK  8 active torsions:
REMARK  status: ('A' for Active; 'I' for Inactive)
REMARK    1  A    between atoms: O1_2  and  C2_3 
REMARK    2  A    between atoms: C4_5  and  O2_6 
REMARK    3  A    between atoms: O2_6  and  C5_7 
REMARK    4  A    between atoms: C8_13  and  N1_14 
REMARK    5  A    between atoms: C10_19  and  N3_20 
REMARK    6  A    between atoms: N3_20  and  C12_22 
REMARK    7  A    between atoms: C12_22  and  C13_23 
REMARK    8  A    between atoms: C13_23  and  N4_24 
ROOT
HETATM    1  N1  UNL     1      17.464 -14.244  22.401  1.00  0.00    -0.187 N 
ATOM      2  H1  UNL     1      17.292 -13.356  21.931  1.00  0.00     0.184 HD
HETATM    3  C9  UNL     1      16.492 -15.044  22.290  1.00  0.00     0.712 A 
HETATM    4  N2  UNL     1      15.335 -14.716  21.600  1.00  0.00    -0.019 N 
ATOM      5  H2  UNL     1      15.172 -13.823  21.133  1.00  0.00     0.203 HD
HETATM    6  C10 UNL     1      14.462 -15.730  21.629  1.00  0.00     0.709 A 
HETATM    7  N5  UNL     1      15.049 -16.697  22.329  1.00  0.00    -0.117 N 
ATOM      8  H5  UNL     1      14.638 -17.607  22.533  1.00  0.00     0.206 HD
HETATM    9  N6  UNL     1      16.256 -16.294  22.724  1.00  0.00    -0.117 N 
ATOM     10  H6  UNL     1      16.907 -16.853  23.276  1.00  0.00     0.206 HD
ENDROOT
BRANCH   1  11
HETATM   11  C8  UNL     1      18.695 -14.288  23.004  1.00  0.00     0.084 A 
HETATM   12  C2  UNL     1      19.814 -14.277  22.148  1.00  0.00     0.098 A 
HETATM   13  C3  UNL     1      21.049 -14.409  22.691  1.00  0.00     0.077 A 
HETATM   14  C4  UNL     1      21.249 -14.552  24.104  1.00  0.00     0.099 A 
HETATM   15  C6  UNL     1      20.149 -14.557  24.918  1.00  0.00     0.070 A 
HETATM   16 CL1  UNL     1      20.277 -14.739  26.660  1.00  0.00    -0.081 Cl
HETATM   17  C7  UNL     1      18.877 -14.424  24.359  1.00  0.00     0.059 A 
BRANCH  12  18
HETATM   18  O1  UNL     1      19.572 -14.122  20.817  1.00  0.00    -0.354 OA
HETATM   19  C1  UNL     1      20.262 -13.239  19.943  1.00  0.00     0.210 C 
ENDBRANCH  12  18
BRANCH  14  20
HETATM   20  O2  UNL     1      22.508 -14.676  24.550  1.00  0.00    -0.288 OA
BRANCH  20  21
HETATM   21  C5  UNL     1      23.786 -14.528  24.193  1.00  0.00     0.505 C 
HETATM   22  F1  UNL     1      24.551 -15.611  24.660  1.00  0.00    -0.184 F 
HETATM   23  F2  UNL     1      24.414 -13.399  24.761  1.00  0.00    -0.184 F 
ENDBRANCH  20  21
ENDBRANCH  14  20
ENDBRANCH   1  11
BRANCH   6  24
HETATM   24  N3  UNL     1      13.158 -15.658  21.012  1.00  0.00    -0.216 N 
HETATM   25  C11 UNL     1      12.354 -16.863  21.022  1.00  0.00     0.169 C 
BRANCH  24  26
HETATM   26  C12 UNL     1      12.727 -14.411  20.498  1.00  0.00     0.185 C 
BRANCH  26  27
HETATM   27  C13 UNL     1      11.749 -13.597  21.244  1.00  0.00     0.078 C 
BRANCH  27  28
HETATM   28  N4  UNL     1      12.137 -12.651  22.165  1.00  0.00    -0.388 N 
HETATM   29  C14 UNL     1      13.370 -12.003  22.150  1.00  0.00     0.148 C 
HETATM   30  C15 UNL     1      13.086 -10.495  22.172  1.00  0.00     0.187 C 
HETATM   31  O3  UNL     1      11.993 -10.161  22.923  1.00  0.00    -0.388 OA
HETATM   32  C16 UNL     1      11.619 -11.083  23.876  1.00  0.00     0.187 C 
HETATM   33  C17 UNL     1      11.317 -12.457  23.318  1.00  0.00     0.148 C 
ENDBRANCH  27  28
ENDBRANCH  26  27
ENDBRANCH  24  26
ENDBRANCH   6  24
TORSDOF 8
ENDMDL
MODEL 5
REMARK VINA RESULT: -7.855554135      1.271      1.736
REMARK  8 active torsions:
REMARK  status: ('A' for Active; 'I' for Inactive)
REMARK    1  A    between atoms: O1_2  and  C2_3 
REMARK    2  A    between atoms: C4_5  and  O2_6 
REMARK    3  A    between atoms: O2_6  and  C5_7 
REMARK    4  A    between atoms: C8_13  and  N1_14 
REMARK    5  A    between atoms: C10_19  and  N3_20 
REMARK    6  A    between atoms: N3_20  and  C12_22 
REMARK    7  A    between atoms: C12_22  and  C13_23 
REMARK    8  A    between atoms: C13_23  and  N4_24 
ROOT
HETATM    1  N1  UNL     1      17.581 -14.987  23.373  1.00  0.00    -0.187 N 
ATOM      2  H1  UNL     1      17.213 -15.864  23.742  1.00  0.00     0.184 HD
HETATM    3  C9  UNL     1      16.748 -14.386  22.637  1.00  0.00     0.712 A 
HETATM    4  N2  UNL     1      15.483 -14.892  22.380  1.00  0.00    -0.019 N 
ATOM      5  H2  UNL     1      15.124 -15.771  22.753  1.00  0.00     0.203 HD
HETATM    6  C10 UNL     1      14.798 -14.069  21.577  1.00  0.00     0.709 A 
HETATM    7  N5  UNL     1      15.611 -13.049  21.320  1.00  0.00    -0.117 N 
ATOM      8  H5  UNL     1      15.382 -12.249  20.731  1.00  0.00     0.206 HD
HETATM    9  N6  UNL     1      16.772 -13.232  21.948  1.00  0.00    -0.117 N 
ATOM     10  H6  UNL     1      17.563 -12.591  21.912  1.00  0.00     0.206 HD
ENDROOT
BRANCH   1  11
HETATM   11  C8  UNL     1      18.863 -14.740  23.793  1.00  0.00     0.084 A 
HETATM   12  C2  UNL     1      19.868 -14.799  22.808  1.00  0.00     0.098 A 
HETATM   13  C3  UNL     1      21.161 -14.650  23.190  1.00  0.00     0.077 A 
HETATM   14  C4  UNL     1      21.531 -14.431  24.558  1.00  0.00     0.099 A 
HETATM   15  C6  UNL     1      20.538 -14.374  25.499  1.00  0.00     0.070 A 
HETATM   16 CL1  UNL     1      20.880 -14.123  27.203  1.00  0.00    -0.081 Cl
HETATM   17  C7  UNL     1      19.209 -14.530  25.107  1.00  0.00     0.059 A 
BRANCH  12  18
HETATM   18  O1  UNL     1      19.464 -14.993  21.523  1.00  0.00    -0.354 OA
HETATM   19  C1  UNL     1      19.871 -14.226  20.398  1.00  0.00     0.210 C 
ENDBRANCH  12  18
BRANCH  14  20
HETATM   20  O2  UNL     1      22.835 -14.296  24.841  1.00  0.00    -0.288 OA
BRANCH  20  21
HETATM   21  C5  UNL     1      24.046 -14.217  24.282  1.00  0.00     0.505 C 
HETATM   22  F1  UNL     1      24.826 -15.327  24.651  1.00  0.00    -0.184 F 
HETATM   23  F2  UNL     1      24.807 -13.109  24.714  1.00  0.00    -0.184 F 
ENDBRANCH  20  21
ENDBRANCH  14  20
ENDBRANCH   1  11
BRANCH   6  24
HETATM   24  N3  UNL     1      13.458 -14.358  21.121  1.00  0.00    -0.216 N 
HETATM   25  C11 UNL     1      13.308 -14.808  19.752  1.00  0.00     0.169 C 
BRANCH  24  26
HETATM   26  C12 UNL     1      12.394 -14.245  22.048  1.00  0.00     0.185 C 
BRANCH  26  27
HETATM   27  C13 UNL     1      11.392 -13.172  21.904  1.00  0.00     0.078 C 
BRANCH  27  28
HETATM   28  N4  UNL     1      11.738 -11.841  21.944  1.00  0.00    -0.388 N 
HETATM   29  C14 UNL     1      11.228 -10.927  22.864  1.00  0.00     0.148 C 
HETATM   30  C15 UNL     1      12.430 -10.256  23.543  1.00  0.00     0.187 C 
HETATM   31  O3  UNL     1      13.492 -10.067  22.703  1.00  0.00    -0.388 OA
HETATM   32  C16 UNL     1      13.195 -10.055  21.358  1.00  0.00     0.187 C 
HETATM   33  C17 UNL     1      12.512 -11.313  20.866  1.00  0.00     0.148 C 
ENDBRANCH  27  28
ENDBRANCH  26  27
ENDBRANCH  24  26
ENDBRANCH   6  24
TORSDOF 8
ENDMDL
