MODEL 1
REMARK VINA RESULT: -8.090182765      0.000      0.000
REMARK  11 active torsions:
REMARK  status: ('A' for Active; 'I' for Inactive)
REMARK    1  A    between atoms: O1_2  and  C2_3 
REMARK    2  A    between atoms: C2_3  and  C3_4 
REMARK    3  A    between atoms: C3_4  and  N1_5 
REMARK    4  A    between atoms: C4_6  and  O2_7 
REMARK    5  A    between atoms: N2_12  and  C7_13 
REMARK    6  A    between atoms: C13_19  and  C14_20 
REMARK    7  A    between atoms: C14_20  and  C15_21 
REMARK    8  A    between atoms: C15_21  and  C16_23 
REMARK    9  A    between atoms: N3_28  and  C19_29 
REMARK   10  A    between atoms: C19_29  and  C20_30 
REMARK   11  A    between atoms: C20_30  and  O4_32 
ROOT
HETATM    1  C7  UNL     1      14.439 -12.251  21.397  1.00  0.00     0.118 C 
HETATM    2  C8  UNL     1      14.058 -12.169  19.928  1.00  0.00     0.064 C 
HETATM    3  C9  UNL     1      14.746 -13.301  19.220  1.00  0.00     0.230 C 
HETATM    4  C10 UNL     1      14.950 -14.304  20.357  1.00  0.00     0.027 C 
HETATM    5  C11 UNL     1      16.243 -14.925  19.937  1.00  0.00     0.043 C 
HETATM    6  C12 UNL     1      17.033 -13.682  19.507  1.00  0.00     0.228 C 
HETATM    7  C13 UNL     1      17.400 -12.814  20.657  1.00  0.00     0.022 C 
HETATM    8  C17 UNL     1      16.658 -13.307  21.898  1.00  0.00     0.014 C 
HETATM    9  C18 UNL     1      15.164 -13.490  21.608  1.00  0.00     0.017 C 
HETATM   10  N3  UNL     1      15.989 -13.034  18.672  1.00  0.00     0.101 N 
ENDROOT
BRANCH   1  11
HETATM   11  N2  UNL     1      13.301 -11.960  22.191  1.00  0.00    -0.248 N 
HETATM   12  N1  UNL     1      12.431 -12.879  22.583  1.00  0.00    -0.264 N 
HETATM   13  C4  UNL     1      11.456 -12.324  23.327  1.00  0.00     0.162 A 
HETATM   14  C5  UNL     1      11.703 -10.976  23.424  1.00  0.00     0.133 A 
HETATM   15  C6  UNL     1      12.859 -10.774  22.708  1.00  0.00     0.266 A 
HETATM   16  O3  UNL     1      13.490  -9.711  22.500  1.00  0.00    -0.266 OA
BRANCH  12  17
HETATM   17  C3  UNL     1      12.431 -14.331  22.310  1.00  0.00     0.177 C 
BRANCH  17  18
HETATM   18  C2  UNL     1      11.645 -14.562  21.045  1.00  0.00     0.189 C 
BRANCH  18  19
HETATM   19  O1  UNL     1      11.870 -15.788  20.502  1.00  0.00    -0.394 OA
HETATM   20  C1  UNL     1      12.372 -16.699  21.387  1.00  0.00     0.201 C 
ENDBRANCH  18  19
ENDBRANCH  17  18
ENDBRANCH  12  17
BRANCH  13  21
HETATM   21  O2  UNL     1      10.357 -12.932  23.929  1.00  0.00    -0.345 OA
ATOM     22  H2  UNL     1       9.529 -12.547  24.194  1.00  0.00     0.219 HD
ENDBRANCH  13  21
ENDBRANCH   1  11
BRANCH  10  23
HETATM   23  C19 UNL     1      16.232 -13.365  17.319  1.00  0.00     0.304 C 
BRANCH  23  24
HETATM   24  C20 UNL     1      16.096 -12.302  16.294  1.00  0.00     0.142 C 
HETATM   25  C21 UNL     1      14.775 -12.220  15.647  1.00  0.00     0.041 C 
BRANCH  24  26
HETATM   26  O4  UNL     1      16.520 -11.057  16.752  1.00  0.00    -0.394 OA
ATOM     27  H4  UNL     1      16.579 -10.412  16.057  1.00  0.00     0.210 HD
ENDBRANCH  24  26
ENDBRANCH  23  24
ENDBRANCH  10  23
BRANCH   7  28
HETATM   28  C14 UNL     1      18.771 -12.459  20.876  1.00  0.00     0.049 C 
BRANCH  28  29
HETATM   29  C15 UNL     1      19.977 -13.236  20.896  1.00  0.00     0.235 C 
HETATM   30  F1  UNL     1      20.266 -13.587  19.527  1.00  0.00    -0.244 F 
BRANCH  29  31
HETATM   31  C16 UNL     1      20.140 -14.535  21.594  1.00  0.00     0.386 C 
HETATM   32  F2  UNL     1      20.269 -15.662  20.877  1.00  0.00    -0.211 F 
HETATM   33  F3  UNL     1      21.184 -14.432  22.551  1.00  0.00    -0.211 F 
ENDBRANCH  29  31
ENDBRANCH  28  29
ENDBRANCH   7  28
TORSDOF 11
ENDMDL
MODEL 2
REMARK VINA RESULT: -8.079964963      4.345      7.110
REMARK  11 active torsions:
REMARK  status: ('A' for Active; 'I' for Inactive)
REMARK    1  A    between atoms: O1_2  and  C2_3 
REMARK    2  A    between atoms: C2_3  and  C3_4 
REMARK    3  A    between atoms: C3_4  and  N1_5 
REMARK    4  A    between atoms: C4_6  and  O2_7 
REMARK    5  A    between atoms: N2_12  and  C7_13 
REMARK    6  A    between atoms: C13_19  and  C14_20 
REMARK    7  A    between atoms: C14_20  and  C15_21 
REMARK    8  A    between atoms: C15_21  and  C16_23 
REMARK    9  A    between atoms: N3_28  and  C19_29 
REMARK   10  A    between atoms: C19_29  and  C20_30 
REMARK   11  A    between atoms: C20_30  and  O4_32 
ROOT
HETATM    1  C7  UNL     1      16.832 -13.640  21.271  1.00  0.00     0.118 C 
HETATM    2  C8  UNL     1      16.194 -15.014  21.134  1.00  0.00     0.064 C 
HETATM    3  C9  UNL     1      15.001 -14.868  20.234  1.00  0.00     0.230 C 
HETATM    4  C10 UNL     1      15.370 -13.626  19.422  1.00  0.00     0.027 C 
HETATM    5  C11 UNL     1      14.016 -13.030  19.214  1.00  0.00     0.043 C 
HETATM    6  C12 UNL     1      13.408 -13.202  20.612  1.00  0.00     0.228 C 
HETATM    7  C13 UNL     1      14.045 -12.319  21.623  1.00  0.00     0.022 C 
HETATM    8  C17 UNL     1      15.288 -11.682  21.003  1.00  0.00     0.014 C 
HETATM    9  C18 UNL     1      16.175 -12.742  20.341  1.00  0.00     0.017 C 
HETATM   10  N3  UNL     1      13.782 -14.621  20.843  1.00  0.00     0.101 N 
ENDROOT
BRANCH   1  11
HETATM   11  N2  UNL     1      18.242 -13.776  21.240  1.00  0.00    -0.248 N 
HETATM   12  N1  UNL     1      18.958 -14.191  22.276  1.00  0.00    -0.264 N 
HETATM   13  C4  UNL     1      20.267 -14.229  21.964  1.00  0.00     0.162 A 
HETATM   14  C5  UNL     1      20.411 -13.818  20.661  1.00  0.00     0.133 A 
HETATM   15  C6  UNL     1      19.135 -13.542  20.232  1.00  0.00     0.266 A 
HETATM   16  O3  UNL     1      18.743 -13.135  19.112  1.00  0.00    -0.266 OA
BRANCH  12  17
HETATM   17  C3  UNL     1      18.496 -14.586  23.622  1.00  0.00     0.177 C 
BRANCH  17  18
HETATM   18  C2  UNL     1      18.550 -16.090  23.704  1.00  0.00     0.189 C 
BRANCH  18  19
HETATM   19  O1  UNL     1      19.579 -16.539  24.471  1.00  0.00    -0.394 OA
HETATM   20  C1  UNL     1      19.703 -15.885  25.664  1.00  0.00     0.201 C 
ENDBRANCH  18  19
ENDBRANCH  17  18
ENDBRANCH  12  17
BRANCH  13  21
HETATM   21  O2  UNL     1      21.348 -14.604  22.758  1.00  0.00    -0.345 OA
ATOM     22  H2  UNL     1      22.202 -14.927  22.494  1.00  0.00     0.219 HD
ENDBRANCH  13  21
ENDBRANCH   1  11
BRANCH  10  23
HETATM   23  C19 UNL     1      12.671 -15.433  20.519  1.00  0.00     0.304 C 
BRANCH  23  24
HETATM   24  C20 UNL     1      12.209 -16.432  21.514  1.00  0.00     0.142 C 
HETATM   25  C21 UNL     1      12.360 -17.839  21.106  1.00  0.00     0.041 C 
BRANCH  24  26
HETATM   26  O4  UNL     1      12.735 -16.208  22.783  1.00  0.00    -0.394 OA
ATOM     27  H4  UNL     1      12.346 -16.767  23.445  1.00  0.00     0.210 HD
ENDBRANCH  24  26
ENDBRANCH  23  24
ENDBRANCH  10  23
BRANCH   7  28
HETATM   28  C14 UNL     1      13.239 -11.429  22.406  1.00  0.00     0.049 C 
BRANCH  28  29
HETATM   29  C15 UNL     1      11.819 -11.310  22.575  1.00  0.00     0.235 C 
HETATM   30  F1  UNL     1      11.363 -10.356  21.595  1.00  0.00    -0.244 F 
BRANCH  29  31
HETATM   31  C16 UNL     1      11.149 -10.836  23.811  1.00  0.00     0.386 C 
HETATM   32  F2  UNL     1      10.748 -11.727  24.732  1.00  0.00    -0.211 F 
HETATM   33  F3  UNL     1      11.931  -9.816  24.414  1.00  0.00    -0.211 F 
ENDBRANCH  29  31
ENDBRANCH  28  29
ENDBRANCH   7  28
TORSDOF 11
ENDMDL
MODEL 3
REMARK VINA RESULT: -7.913678989      2.624      4.838
REMARK  11 active torsions:
REMARK  status: ('A' for Active; 'I' for Inactive)
REMARK    1  A    between atoms: O1_2  and  C2_3 
REMARK    2  A    between atoms: C2_3  and  C3_4 
REMARK    3  A    between atoms: C3_4  and  N1_5 
REMARK    4  A    between atoms: C4_6  and  O2_7 
REMARK    5  A    between atoms: N2_12  and  C7_13 
REMARK    6  A    between atoms: C13_19  and  C14_20 
REMARK    7  A    between atoms: C14_20  and  C15_21 
REMARK    8  A    between atoms: C15_21  and  C16_23 
REMARK    9  A    between atoms: N3_28  and  C19_29 
REMARK   10  A    between atoms: C19_29  and  C20_30 
REMARK   11  A    between atoms: C20_30  and  O4_32 
ROOT
HETATM    1  C7  UNL     1      14.182 -15.846  21.448  1.00  0.00     0.118 C 
HETATM    2  C8  UNL     1      13.259 -14.769  21.996  1.00  0.00     0.064 C 
HETATM    3  C9  UNL     1      13.383 -13.571  21.100  1.00  0.00     0.230 C 
HETATM    4  C10 UNL     1      13.845 -14.207  19.788  1.00  0.00     0.027 C 
HETATM    5  C11 UNL     1      14.720 -13.118  19.257  1.00  0.00     0.043 C 
HETATM    6  C12 UNL     1      15.478 -12.712  20.527  1.00  0.00     0.228 C 
HETATM    7  C13 UNL     1      16.431 -13.759  20.981  1.00  0.00     0.022 C 
HETATM    8  C17 UNL     1      16.182 -15.031  20.173  1.00  0.00     0.014 C 
HETATM    9  C18 UNL     1      14.693 -15.395  20.168  1.00  0.00     0.017 C 
HETATM   10  N3  UNL     1      14.322 -12.617  21.455  1.00  0.00     0.101 N 
ENDROOT
BRANCH   1  11
HETATM   11  N2  UNL     1      13.538 -17.105  21.544  1.00  0.00    -0.248 N 
HETATM   12  N1  UNL     1      14.051 -18.139  22.197  1.00  0.00    -0.264 N 
HETATM   13  C4  UNL     1      13.226 -19.201  22.128  1.00  0.00     0.162 A 
HETATM   14  C5  UNL     1      12.122 -18.841  21.394  1.00  0.00     0.133 A 
HETATM   15  C6  UNL     1      12.340 -17.530  21.041  1.00  0.00     0.266 A 
HETATM   16  O3  UNL     1      11.618 -16.757  20.368  1.00  0.00    -0.266 OA
BRANCH  12  17
HETATM   17  C3  UNL     1      15.328 -18.227  22.934  1.00  0.00     0.177 C 
BRANCH  17  18
HETATM   18  C2  UNL     1      16.397 -18.638  21.954  1.00  0.00     0.189 C 
BRANCH  18  19
HETATM   19  O1  UNL     1      17.469 -17.800  21.963  1.00  0.00    -0.394 OA
HETATM   20  C1  UNL     1      17.499 -16.956  23.036  1.00  0.00     0.201 C 
ENDBRANCH  18  19
ENDBRANCH  17  18
ENDBRANCH  12  17
BRANCH  13  21
HETATM   21  O2  UNL     1      13.385 -20.472  22.673  1.00  0.00    -0.345 OA
ATOM     22  H2  UNL     1      12.733 -21.042  23.065  1.00  0.00     0.219 HD
ENDBRANCH  13  21
ENDBRANCH   1  11
BRANCH  10  23
HETATM   23  C19 UNL     1      13.930 -11.262  21.540  1.00  0.00     0.304 C 
BRANCH  23  24
HETATM   24  C20 UNL     1      12.543 -10.900  21.158  1.00  0.00     0.142 C 
HETATM   25  C21 UNL     1      11.658 -10.535  22.278  1.00  0.00     0.041 C 
BRANCH  24  26
HETATM   26  O4  UNL     1      12.497  -9.950  20.140  1.00  0.00    -0.394 OA
ATOM     27  H4  UNL     1      12.910  -9.131  20.385  1.00  0.00     0.210 HD
ENDBRANCH  24  26
ENDBRANCH  23  24
ENDBRANCH  10  23
BRANCH   7  28
HETATM   28  C14 UNL     1      17.813 -13.432  21.178  1.00  0.00     0.049 C 
BRANCH  28  29
HETATM   29  C15 UNL     1      18.828 -12.952  20.284  1.00  0.00     0.235 C 
HETATM   30  F1  UNL     1      18.290 -13.062  18.950  1.00  0.00    -0.244 F 
BRANCH  29  31
HETATM   31  C16 UNL     1      20.176 -13.553  20.130  1.00  0.00     0.386 C 
HETATM   32  F2  UNL     1      20.365 -14.845  20.437  1.00  0.00    -0.211 F 
HETATM   33  F3  UNL     1      20.673 -13.274  18.829  1.00  0.00    -0.211 F 
ENDBRANCH  29  31
ENDBRANCH  28  29
ENDBRANCH   7  28
TORSDOF 11
ENDMDL
MODEL 4
REMARK VINA RESULT: -7.799077748      2.838      4.949
REMARK  11 active torsions:
REMARK  status: ('A' for Active; 'I' for Inactive)
REMARK    1  A    between atoms: O1_2  and  C2_3 
REMARK    2  A    between atoms: C2_3  and  C3_4 
REMARK    3  A    between atoms: C3_4  and  N1_5 
REMARK    4  A    between atoms: C4_6  and  O2_7 
REMARK    5  A    between atoms: N2_12  and  C7_13 
REMARK    6  A    between atoms: C13_19  and  C14_20 
REMARK    7  A    between atoms: C14_20  and  C15_21 
REMARK    8  A    between atoms: C15_21  and  C16_23 
REMARK    9  A    between atoms: N3_28  and  C19_29 
REMARK   10  A    between atoms: C19_29  and  C20_30 
REMARK   11  A    between atoms: C20_30  and  O4_32 
ROOT
HETATM    1  C7  UNL     1      14.091 -16.027  21.228  1.00  0.00     0.118 C 
HETATM    2  C8  UNL     1      13.229 -14.949  21.866  1.00  0.00     0.064 C 
HETATM    3  C9  UNL     1      13.340 -13.720  21.011  1.00  0.00     0.230 C 
HETATM    4  C10 UNL     1      13.714 -14.315  19.652  1.00  0.00     0.027 C 
HETATM    5  C11 UNL     1      14.590 -13.229  19.117  1.00  0.00     0.043 C 
HETATM    6  C12 UNL     1      15.426 -12.895  20.360  1.00  0.00     0.228 C 
HETATM    7  C13 UNL     1      16.371 -13.984  20.720  1.00  0.00     0.022 C 
HETATM    8  C17 UNL     1      16.043 -15.215  19.878  1.00  0.00     0.014 C 
HETATM    9  C18 UNL     1      14.546 -15.539  19.940  1.00  0.00     0.017 C 
HETATM   10  N3  UNL     1      14.323 -12.806  21.351  1.00  0.00     0.101 N 
ENDROOT
BRANCH   1  11
HETATM   11  N2  UNL     1      13.417 -17.272  21.309  1.00  0.00    -0.248 N 
HETATM   12  N1  UNL     1      13.971 -18.370  21.805  1.00  0.00    -0.264 N 
HETATM   13  C4  UNL     1      13.105 -19.399  21.764  1.00  0.00     0.162 A 
HETATM   14  C5  UNL     1      11.928 -18.950  21.214  1.00  0.00     0.133 A 
HETATM   15  C6  UNL     1      12.149 -17.621  20.940  1.00  0.00     0.266 A 
HETATM   16  O3  UNL     1      11.375 -16.775  20.431  1.00  0.00    -0.266 OA
BRANCH  12  17
HETATM   17  C3  UNL     1      15.329 -18.554  22.355  1.00  0.00     0.177 C 
BRANCH  17  18
HETATM   18  C2  UNL     1      15.210 -18.645  23.855  1.00  0.00     0.189 C 
BRANCH  18  19
HETATM   19  O1  UNL     1      15.468 -19.894  24.329  1.00  0.00    -0.394 OA
HETATM   20  C1  UNL     1      14.636 -20.281  25.341  1.00  0.00     0.201 C 
ENDBRANCH  18  19
ENDBRANCH  17  18
ENDBRANCH  12  17
BRANCH  13  21
HETATM   21  O2  UNL     1      13.285 -20.715  22.181  1.00  0.00    -0.345 OA
ATOM     22  H2  UNL     1      14.086 -21.226  22.227  1.00  0.00     0.219 HD
ENDBRANCH  13  21
ENDBRANCH   1  11
BRANCH  10  23
HETATM   23  C19 UNL     1      13.975 -11.445  21.510  1.00  0.00     0.304 C 
BRANCH  23  24
HETATM   24  C20 UNL     1      12.604 -11.017  21.139  1.00  0.00     0.142 C 
HETATM   25  C21 UNL     1      11.737 -10.643  22.270  1.00  0.00     0.041 C 
BRANCH  24  26
HETATM   26  O4  UNL     1      12.596 -10.042  20.144  1.00  0.00    -0.394 OA
ATOM     27  H4  UNL     1      12.675  -9.163  20.493  1.00  0.00     0.210 HD
ENDBRANCH  24  26
ENDBRANCH  23  24
ENDBRANCH  10  23
BRANCH   7  28
HETATM   28  C14 UNL     1      17.770 -13.701  20.855  1.00  0.00     0.049 C 
BRANCH  28  29
HETATM   29  C15 UNL     1      18.702 -13.015  20.007  1.00  0.00     0.235 C 
HETATM   30  F1  UNL     1      18.151 -13.048  18.674  1.00  0.00    -0.244 F 
BRANCH  29  31
HETATM   31  C16 UNL     1      20.106 -13.433  19.776  1.00  0.00     0.386 C 
HETATM   32  F2  UNL     1      21.103 -12.563  20.004  1.00  0.00    -0.211 F 
HETATM   33  F3  UNL     1      20.354 -14.659  20.450  1.00  0.00    -0.211 F 
ENDBRANCH  29  31
ENDBRANCH  28  29
ENDBRANCH   7  28
TORSDOF 11
ENDMDL
MODEL 5
REMARK VINA RESULT: -7.689660536      3.142      6.423
REMARK  11 active torsions:
REMARK  status: ('A' for Active; 'I' for Inactive)
REMARK    1  A    between atoms: O1_2  and  C2_3 
REMARK    2  A    between atoms: C2_3  and  C3_4 
REMARK    3  A    between atoms: C3_4  and  N1_5 
REMARK    4  A    between atoms: C4_6  and  O2_7 
REMARK    5  A    between atoms: N2_12  and  C7_13 
REMARK    6  A    between atoms: C13_19  and  C14_20 
REMARK    7  A    between atoms: C14_20  and  C15_21 
REMARK    8  A    between atoms: C15_21  and  C16_23 
REMARK    9  A    between atoms: N3_28  and  C19_29 
REMARK   10  A    between atoms: C19_29  and  C20_30 
REMARK   11  A    between atoms: C20_30  and  O4_32 
ROOT
HETATM    1  C7  UNL     1      16.704 -14.125  20.987  1.00  0.00     0.118 C 
HETATM    2  C8  UNL     1      15.869 -13.285  21.940  1.00  0.00     0.064 C 
HETATM    3  C9  UNL     1      14.427 -13.622  21.693  1.00  0.00     0.230 C 
HETATM    4  C10 UNL     1      14.531 -15.030  21.105  1.00  0.00     0.027 C 
HETATM    5  C11 UNL     1      13.379 -15.007  20.153  1.00  0.00     0.043 C 
HETATM    6  C12 UNL     1      13.548 -13.616  19.529  1.00  0.00     0.228 C 
HETATM    7  C13 UNL     1      14.747 -13.526  18.654  1.00  0.00     0.022 C 
HETATM    8  C17 UNL     1      15.585 -14.789  18.843  1.00  0.00     0.014 C 
HETATM    9  C18 UNL     1      15.824 -15.072  20.330  1.00  0.00     0.017 C 
HETATM   10  N3  UNL     1      13.748 -12.836  20.777  1.00  0.00     0.101 N 
ENDROOT
BRANCH   1  11
HETATM   11  N2  UNL     1      17.858 -14.592  21.666  1.00  0.00    -0.248 N 
HETATM   12  N1  UNL     1      19.047 -14.016  21.564  1.00  0.00    -0.264 N 
HETATM   13  C4  UNL     1      19.956 -14.663  22.317  1.00  0.00     0.162 A 
HETATM   14  C5  UNL     1      19.327 -15.715  22.940  1.00  0.00     0.133 A 
HETATM   15  C6  UNL     1      18.020 -15.648  22.518  1.00  0.00     0.266 A 
HETATM   16  O3  UNL     1      17.052 -16.391  22.808  1.00  0.00    -0.266 OA
BRANCH  12  17
HETATM   17  C3  UNL     1      19.436 -12.829  20.776  1.00  0.00     0.177 C 
BRANCH  17  18
HETATM   18  C2  UNL     1      20.236 -13.305  19.590  1.00  0.00     0.189 C 
BRANCH  18  19
HETATM   19  O1  UNL     1      19.666 -12.971  18.401  1.00  0.00    -0.394 OA
HETATM   20  C1  UNL     1      20.564 -12.576  17.451  1.00  0.00     0.201 C 
ENDBRANCH  18  19
ENDBRANCH  17  18
ENDBRANCH  12  17
BRANCH  13  21
HETATM   21  O2  UNL     1      21.309 -14.387  22.491  1.00  0.00    -0.345 OA
ATOM     22  H2  UNL     1      21.777 -13.571  22.356  1.00  0.00     0.219 HD
ENDBRANCH  13  21
ENDBRANCH   1  11
BRANCH  10  23
HETATM   23  C19 UNL     1      12.511 -12.260  21.145  1.00  0.00     0.304 C 
BRANCH  23  24
HETATM   24  C20 UNL     1      12.427 -10.785  21.278  1.00  0.00     0.142 C 
HETATM   25  C21 UNL     1      13.281 -10.200  22.327  1.00  0.00     0.041 C 
BRANCH  24  26
HETATM   26  O4  UNL     1      12.588 -10.126  20.062  1.00  0.00    -0.394 OA
ATOM     27  H4  UNL     1      11.762  -9.843  19.687  1.00  0.00     0.210 HD
ENDBRANCH  24  26
ENDBRANCH  23  24
ENDBRANCH  10  23
BRANCH   7  28
HETATM   28  C14 UNL     1      14.610 -13.091  17.295  1.00  0.00     0.049 C 
BRANCH  28  29
HETATM   29  C15 UNL     1      15.320 -12.115  16.519  1.00  0.00     0.235 C 
HETATM   30  F1  UNL     1      15.049 -12.411  15.134  1.00  0.00    -0.244 F 
BRANCH  29  31
HETATM   31  C16 UNL     1      16.793 -11.937  16.520  1.00  0.00     0.386 C 
HETATM   32  F2  UNL     1      17.577 -12.891  15.993  1.00  0.00    -0.211 F 
HETATM   33  F3  UNL     1      17.118 -10.668  15.972  1.00  0.00    -0.211 F 
ENDBRANCH  29  31
ENDBRANCH  28  29
ENDBRANCH   7  28
TORSDOF 11
ENDMDL
