MODEL 1
REMARK VINA RESULT: -7.299066528      0.000      0.000
REMARK  10 active torsions:
REMARK  status: ('A' for Active; 'I' for Inactive)
REMARK    1  A    between atoms: O1_2  and  C2_3 
REMARK    2  A    between atoms: C2_3  and  C3_4 
REMARK    3  A    between atoms: C3_4  and  C4_5 
REMARK    4  A    between atoms: C4_5  and  N1_6 
REMARK    5  A    between atoms: N1_6  and  C5_7 
REMARK    6  A    between atoms: N1_6  and  C8_10 
REMARK    7  A    between atoms: C12_17  and  C13_18 
REMARK    8  A    between atoms: C12_17  and  C19_28 
REMARK    9  A    between atoms: C13_18  and  C14_19 
REMARK   10  A    between atoms: C15_21  and  O4_23 
ROOT
HETATM    1  C3  UNL     1      16.604 -14.504  21.085  1.00  0.00     0.162 C 
HETATM    2  C11 UNL     1      17.458 -13.278  21.282  1.00  0.00     0.240 C 
HETATM    3  O2  UNL     1      17.441 -12.200  20.613  1.00  0.00    -0.272 OA
HETATM    4  N2  UNL     1      18.301 -13.536  22.356  1.00  0.00    -0.337 N 
ATOM      5  H2  UNL     1      18.583 -12.864  23.070  1.00  0.00     0.163 HD
HETATM    6  C12 UNL     1      18.710 -14.922  22.285  1.00  0.00     0.201 C 
HETATM    7  C20 UNL     1      17.485 -15.581  21.655  1.00  0.00     0.300 C 
HETATM    8  F4  UNL     1      16.728 -16.268  22.611  1.00  0.00    -0.201 F 
HETATM    9  F5  UNL     1      17.867 -16.510  20.722  1.00  0.00    -0.201 F 
ENDROOT
BRANCH   6  10
HETATM   10  C13 UNL     1      18.870 -15.563  23.601  1.00  0.00     0.087 C 
BRANCH  10  11
HETATM   11  C14 UNL     1      18.863 -14.785  24.854  1.00  0.00     0.197 C 
HETATM   12  O3  UNL     1      19.732 -13.731  24.961  1.00  0.00    -0.342 OA
HETATM   13  C15 UNL     1      20.777 -14.106  25.776  1.00  0.00     0.165 C 
HETATM   14  C16 UNL     1      22.023 -14.501  25.065  1.00  0.00     0.079 C 
HETATM   15  C17 UNL     1      20.264 -15.168  26.706  1.00  0.00     0.149 C 
HETATM   16  C18 UNL     1      19.051 -15.657  26.023  1.00  0.00     0.161 C 
HETATM   17  O5  UNL     1      18.324 -16.571  26.311  1.00  0.00    -0.295 OA
BRANCH  13  18
HETATM   18  O4  UNL     1      21.091 -12.977  26.556  1.00  0.00    -0.365 OA
ATOM     19  H4  UNL     1      22.035 -12.877  26.509  1.00  0.00     0.213 HD
ENDBRANCH  13  18
ENDBRANCH  10  11
ENDBRANCH   6  10
BRANCH   6  20
HETATM   20  C19 UNL     1      19.874 -14.960  21.352  1.00  0.00     0.418 C 
HETATM   21  F1  UNL     1      20.482 -16.213  21.281  1.00  0.00    -0.168 F 
HETATM   22  F2  UNL     1      20.906 -14.186  21.936  1.00  0.00    -0.168 F 
HETATM   23  F3  UNL     1      19.653 -14.388  20.138  1.00  0.00    -0.168 F 
ENDBRANCH   6  20
BRANCH   1  24
HETATM   24  C2  UNL     1      15.384 -14.221  21.953  1.00  0.00     0.198 C 
BRANCH  24  25
HETATM   25  O1  UNL     1      15.097 -12.887  22.001  1.00  0.00    -0.394 OA
HETATM   26  C1  UNL     1      13.728 -12.695  22.007  1.00  0.00     0.201 C 
ENDBRANCH  24  25
ENDBRANCH   1  24
BRANCH   1  27
HETATM   27  C4  UNL     1      16.243 -14.733  19.683  1.00  0.00     0.086 C 
BRANCH  27  28
HETATM   28  N1  UNL     1      15.003 -14.745  19.105  1.00  0.00    -0.384 N 
BRANCH  28  29
HETATM   29  C5  UNL     1      14.124 -15.779  19.024  1.00  0.00     0.075 C 
HETATM   30  C6  UNL     1      14.648 -17.141  19.495  1.00  0.00     0.032 C 
HETATM   31  C7  UNL     1      12.785 -15.611  19.739  1.00  0.00     0.032 C 
ENDBRANCH  28  29
BRANCH  28  32
HETATM   32  C8  UNL     1      14.950 -13.685  18.117  1.00  0.00     0.075 C 
HETATM   33  C9  UNL     1      16.214 -13.301  17.457  1.00  0.00     0.032 C 
HETATM   34  C10 UNL     1      14.153 -12.503  18.567  1.00  0.00     0.032 C 
ENDBRANCH  28  32
ENDBRANCH  27  28
ENDBRANCH   1  27
TORSDOF 10
ENDMDL
MODEL 2
REMARK VINA RESULT: -7.022090120      2.440      7.014
REMARK  10 active torsions:
REMARK  status: ('A' for Active; 'I' for Inactive)
REMARK    1  A    between atoms: O1_2  and  C2_3 
REMARK    2  A    between atoms: C2_3  and  C3_4 
REMARK    3  A    between atoms: C3_4  and  C4_5 
REMARK    4  A    between atoms: C4_5  and  N1_6 
REMARK    5  A    between atoms: N1_6  and  C5_7 
REMARK    6  A    between atoms: N1_6  and  C8_10 
REMARK    7  A    between atoms: C12_17  and  C13_18 
REMARK    8  A    between atoms: C12_17  and  C19_28 
REMARK    9  A    between atoms: C13_18  and  C14_19 
REMARK   10  A    between atoms: C15_21  and  O4_23 
ROOT
HETATM    1  C3  UNL     1      19.714 -16.090  23.353  1.00  0.00     0.162 C 
HETATM    2  C11 UNL     1      19.725 -16.488  21.899  1.00  0.00     0.240 C 
HETATM    3  O2  UNL     1      20.530 -17.273  21.311  1.00  0.00    -0.272 OA
HETATM    4  N2  UNL     1      18.669 -15.824  21.286  1.00  0.00    -0.337 N 
ATOM      5  H2  UNL     1      18.066 -16.204  20.557  1.00  0.00     0.163 HD
HETATM    6  C12 UNL     1      18.575 -14.500  21.862  1.00  0.00     0.201 C 
HETATM    7  C20 UNL     1      19.049 -14.743  23.293  1.00  0.00     0.300 C 
HETATM    8  F4  UNL     1      17.974 -14.775  24.188  1.00  0.00    -0.201 F 
HETATM    9  F5  UNL     1      19.867 -13.724  23.707  1.00  0.00    -0.201 F 
ENDROOT
BRANCH   6  10
HETATM   10  C13 UNL     1      17.194 -14.002  21.984  1.00  0.00     0.087 C 
BRANCH  10  11
HETATM   11  C14 UNL     1      16.094 -14.543  21.165  1.00  0.00     0.197 C 
HETATM   12  O3  UNL     1      16.357 -14.846  19.854  1.00  0.00    -0.342 OA
HETATM   13  C15 UNL     1      15.807 -13.864  19.061  1.00  0.00     0.165 C 
HETATM   14  C16 UNL     1      16.766 -12.839  18.567  1.00  0.00     0.079 C 
HETATM   15  C17 UNL     1      14.646 -13.274  19.810  1.00  0.00     0.149 C 
HETATM   16  C18 UNL     1      14.916 -13.665  21.208  1.00  0.00     0.161 C 
HETATM   17  O5  UNL     1      14.332 -13.364  22.215  1.00  0.00    -0.295 OA
BRANCH  13  18
HETATM   18  O4  UNL     1      15.288 -14.519  17.927  1.00  0.00    -0.365 OA
ATOM     19  H4  UNL     1      15.562 -14.006  17.176  1.00  0.00     0.213 HD
ENDBRANCH  13  18
ENDBRANCH  10  11
ENDBRANCH   6  10
BRANCH   6  20
HETATM   20  C19 UNL     1      19.551 -13.655  21.114  1.00  0.00     0.418 C 
HETATM   21  F1  UNL     1      19.129 -12.336  20.955  1.00  0.00    -0.168 F 
HETATM   22  F2  UNL     1      19.554 -14.107  19.772  1.00  0.00    -0.168 F 
HETATM   23  F3  UNL     1      20.842 -13.773  21.525  1.00  0.00    -0.168 F 
ENDBRANCH   6  20
BRANCH   1  24
HETATM   24  C2  UNL     1      18.832 -17.153  23.997  1.00  0.00     0.198 C 
BRANCH  24  25
HETATM   25  O1  UNL     1      18.013 -17.752  23.083  1.00  0.00    -0.394 OA
HETATM   26  C1  UNL     1      16.745 -17.909  23.610  1.00  0.00     0.201 C 
ENDBRANCH  24  25
ENDBRANCH   1  24
BRANCH   1  27
HETATM   27  C4  UNL     1      21.052 -16.050  23.948  1.00  0.00     0.086 C 
BRANCH  27  28
HETATM   28  N1  UNL     1      21.420 -16.229  25.253  1.00  0.00    -0.384 N 
BRANCH  28  29
HETATM   29  C5  UNL     1      21.543 -15.289  26.228  1.00  0.00     0.075 C 
HETATM   30  C6  UNL     1      22.271 -14.000  25.825  1.00  0.00     0.032 C 
HETATM   31  C7  UNL     1      20.259 -14.814  26.903  1.00  0.00     0.032 C 
ENDBRANCH  28  29
BRANCH  28  32
HETATM   32  C8  UNL     1      22.183 -17.459  25.349  1.00  0.00     0.075 C 
HETATM   33  C9  UNL     1      23.032 -17.645  26.543  1.00  0.00     0.032 C 
HETATM   34  C10 UNL     1      22.891 -17.810  24.080  1.00  0.00     0.032 C 
ENDBRANCH  28  32
ENDBRANCH  27  28
ENDBRANCH   1  27
TORSDOF 10
ENDMDL
MODEL 3
REMARK VINA RESULT: -6.923583756      1.387      2.113
REMARK  10 active torsions:
REMARK  status: ('A' for Active; 'I' for Inactive)
REMARK    1  A    between atoms: O1_2  and  C2_3 
REMARK    2  A    between atoms: C2_3  and  C3_4 
REMARK    3  A    between atoms: C3_4  and  C4_5 
REMARK    4  A    between atoms: C4_5  and  N1_6 
REMARK    5  A    between atoms: N1_6  and  C5_7 
REMARK    6  A    between atoms: N1_6  and  C8_10 
REMARK    7  A    between atoms: C12_17  and  C13_18 
REMARK    8  A    between atoms: C12_17  and  C19_28 
REMARK    9  A    between atoms: C13_18  and  C14_19 
REMARK   10  A    between atoms: C15_21  and  O4_23 
ROOT
HETATM    1  C3  UNL     1      16.467 -14.082  21.118  1.00  0.00     0.162 C 
HETATM    2  C11 UNL     1      17.135 -12.771  20.791  1.00  0.00     0.240 C 
HETATM    3  O2  UNL     1      16.802 -11.925  19.905  1.00  0.00    -0.272 OA
HETATM    4  N2  UNL     1      18.218 -12.639  21.651  1.00  0.00    -0.337 N 
ATOM      5  H2  UNL     1      18.534 -11.772  22.086  1.00  0.00     0.163 HD
HETATM    6  C12 UNL     1      18.820 -13.943  21.821  1.00  0.00     0.201 C 
HETATM    7  C20 UNL     1      17.611 -14.868  21.696  1.00  0.00     0.300 C 
HETATM    8  F4  UNL     1      17.195 -15.337  22.947  1.00  0.00    -0.201 F 
HETATM    9  F5  UNL     1      17.929 -15.975  20.953  1.00  0.00    -0.201 F 
ENDROOT
BRANCH   6  10
HETATM   10  C13 UNL     1      19.357 -14.179  23.172  1.00  0.00     0.087 C 
BRANCH  10  11
HETATM   11  C14 UNL     1      20.193 -15.353  23.486  1.00  0.00     0.197 C 
HETATM   12  O3  UNL     1      19.694 -16.281  24.362  1.00  0.00    -0.342 OA
HETATM   13  C15 UNL     1      20.328 -16.122  25.574  1.00  0.00     0.165 C 
HETATM   14  C16 UNL     1      19.552 -15.372  26.599  1.00  0.00     0.079 C 
HETATM   15  C17 UNL     1      21.679 -15.526  25.303  1.00  0.00     0.149 C 
HETATM   16  C18 UNL     1      21.527 -14.947  23.953  1.00  0.00     0.161 C 
HETATM   17  O5  UNL     1      22.294 -14.278  23.314  1.00  0.00    -0.295 OA
BRANCH  13  18
HETATM   18  O4  UNL     1      20.532 -17.418  26.083  1.00  0.00    -0.365 OA
ATOM     19  H4  UNL     1      19.672 -17.755  26.306  1.00  0.00     0.213 HD
ENDBRANCH  13  18
ENDBRANCH  10  11
ENDBRANCH   6  10
BRANCH   6  20
HETATM   20  C19 UNL     1      19.748 -14.122  20.667  1.00  0.00     0.418 C 
HETATM   21  F1  UNL     1      20.374 -15.368  20.651  1.00  0.00    -0.168 F 
HETATM   22  F2  UNL     1      20.852 -13.261  20.880  1.00  0.00    -0.168 F 
HETATM   23  F3  UNL     1      19.242 -13.748  19.462  1.00  0.00    -0.168 F 
ENDBRANCH   6  20
BRANCH   1  24
HETATM   24  C2  UNL     1      15.431 -13.693  22.165  1.00  0.00     0.198 C 
BRANCH  24  25
HETATM   25  O1  UNL     1      14.978 -12.419  21.978  1.00  0.00    -0.394 OA
HETATM   26  C1  UNL     1      13.597 -12.390  22.044  1.00  0.00     0.201 C 
ENDBRANCH  24  25
ENDBRANCH   1  24
BRANCH   1  27
HETATM   27  C4  UNL     1      15.857 -14.723  19.949  1.00  0.00     0.086 C 
BRANCH  27  28
HETATM   28  N1  UNL     1      14.775 -15.559  19.893  1.00  0.00    -0.384 N 
BRANCH  28  29
HETATM   29  C5  UNL     1      14.752 -16.912  20.015  1.00  0.00     0.075 C 
HETATM   30  C6  UNL     1      15.748 -17.680  19.136  1.00  0.00     0.032 C 
HETATM   31  C7  UNL     1      14.948 -17.489  21.415  1.00  0.00     0.032 C 
ENDBRANCH  28  29
BRANCH  28  32
HETATM   32  C8  UNL     1      13.720 -14.892  19.153  1.00  0.00     0.075 C 
HETATM   33  C9  UNL     1      13.977 -13.514  18.690  1.00  0.00     0.032 C 
HETATM   34  C10 UNL     1      12.374 -15.046  19.785  1.00  0.00     0.032 C 
ENDBRANCH  28  32
ENDBRANCH  27  28
ENDBRANCH   1  27
TORSDOF 10
ENDMDL
MODEL 4
REMARK VINA RESULT: -6.875078564      2.465      6.953
REMARK  10 active torsions:
REMARK  status: ('A' for Active; 'I' for Inactive)
REMARK    1  A    between atoms: O1_2  and  C2_3 
REMARK    2  A    between atoms: C2_3  and  C3_4 
REMARK    3  A    between atoms: C3_4  and  C4_5 
REMARK    4  A    between atoms: C4_5  and  N1_6 
REMARK    5  A    between atoms: N1_6  and  C5_7 
REMARK    6  A    between atoms: N1_6  and  C8_10 
REMARK    7  A    between atoms: C12_17  and  C13_18 
REMARK    8  A    between atoms: C12_17  and  C19_28 
REMARK    9  A    between atoms: C13_18  and  C14_19 
REMARK   10  A    between atoms: C15_21  and  O4_23 
ROOT
HETATM    1  C3  UNL     1      19.621 -15.850  23.266  1.00  0.00     0.162 C 
HETATM    2  C11 UNL     1      19.715 -16.235  21.812  1.00  0.00     0.240 C 
HETATM    3  O2  UNL     1      20.639 -16.887  21.236  1.00  0.00    -0.272 OA
HETATM    4  N2  UNL     1      18.582 -15.734  21.182  1.00  0.00    -0.337 N 
ATOM      5  H2  UNL     1      18.055 -16.198  20.442  1.00  0.00     0.163 HD
HETATM    6  C12 UNL     1      18.280 -14.442  21.759  1.00  0.00     0.201 C 
HETATM    7  C20 UNL     1      18.762 -14.617  23.197  1.00  0.00     0.300 C 
HETATM    8  F4  UNL     1      17.690 -14.815  24.075  1.00  0.00    -0.201 F 
HETATM    9  F5  UNL     1      19.411 -13.489  23.627  1.00  0.00    -0.201 F 
ENDROOT
BRANCH   6  10
HETATM   10  C13 UNL     1      16.839 -14.158  21.859  1.00  0.00     0.087 C 
BRANCH  10  11
HETATM   11  C14 UNL     1      15.950 -14.205  20.683  1.00  0.00     0.197 C 
HETATM   12  O3  UNL     1      15.680 -13.029  20.033  1.00  0.00    -0.342 OA
HETATM   13  C15 UNL     1      14.405 -12.630  20.365  1.00  0.00     0.165 C 
HETATM   14  C16 UNL     1      14.326 -11.571  21.408  1.00  0.00     0.079 C 
HETATM   15  C17 UNL     1      13.622 -13.863  20.714  1.00  0.00     0.149 C 
HETATM   16  C18 UNL     1      14.673 -14.858  21.006  1.00  0.00     0.161 C 
HETATM   17  O5  UNL     1      14.571 -15.981  21.421  1.00  0.00    -0.295 OA
BRANCH  13  18
HETATM   18  O4  UNL     1      13.844 -12.091  19.192  1.00  0.00    -0.365 OA
ATOM     19  H4  UNL     1      13.056 -12.593  19.020  1.00  0.00     0.213 HD
ENDBRANCH  13  18
ENDBRANCH  10  11
ENDBRANCH   6  10
BRANCH   6  20
HETATM   20  C19 UNL     1      19.130 -13.456  21.029  1.00  0.00     0.418 C 
HETATM   21  F1  UNL     1      18.656 -12.148  21.118  1.00  0.00    -0.168 F 
HETATM   22  F2  UNL     1      18.974 -13.713  19.645  1.00  0.00    -0.168 F 
HETATM   23  F3  UNL     1      20.465 -13.573  21.258  1.00  0.00    -0.168 F 
ENDBRANCH   6  20
BRANCH   1  24
HETATM   24  C2  UNL     1      18.898 -17.036  23.893  1.00  0.00     0.198 C 
BRANCH  24  25
HETATM   25  O1  UNL     1      18.145 -17.711  22.976  1.00  0.00    -0.394 OA
HETATM   26  C1  UNL     1      16.899 -17.996  23.501  1.00  0.00     0.201 C 
ENDBRANCH  24  25
ENDBRANCH   1  24
BRANCH   1  27
HETATM   27  C4  UNL     1      20.928 -15.611  23.883  1.00  0.00     0.086 C 
BRANCH  27  28
HETATM   28  N1  UNL     1      21.332 -15.858  25.167  1.00  0.00    -0.384 N 
BRANCH  28  29
HETATM   29  C5  UNL     1      21.034 -15.156  26.292  1.00  0.00     0.075 C 
HETATM   30  C6  UNL     1      21.229 -13.637  26.203  1.00  0.00     0.032 C 
HETATM   31  C7  UNL     1      19.632 -15.332  26.871  1.00  0.00     0.032 C 
ENDBRANCH  28  29
BRANCH  28  32
HETATM   32  C8  UNL     1      22.552 -16.642  25.119  1.00  0.00     0.075 C 
HETATM   33  C9  UNL     1      22.903 -17.432  26.316  1.00  0.00     0.032 C 
HETATM   34  C10 UNL     1      23.716 -15.883  24.568  1.00  0.00     0.032 C 
ENDBRANCH  28  32
ENDBRANCH  27  28
ENDBRANCH   1  27
TORSDOF 10
ENDMDL
MODEL 5
REMARK VINA RESULT: -6.851892729      2.506      6.801
REMARK  10 active torsions:
REMARK  status: ('A' for Active; 'I' for Inactive)
REMARK    1  A    between atoms: O1_2  and  C2_3 
REMARK    2  A    between atoms: C2_3  and  C3_4 
REMARK    3  A    between atoms: C3_4  and  C4_5 
REMARK    4  A    between atoms: C4_5  and  N1_6 
REMARK    5  A    between atoms: N1_6  and  C5_7 
REMARK    6  A    between atoms: N1_6  and  C8_10 
REMARK    7  A    between atoms: C12_17  and  C13_18 
REMARK    8  A    between atoms: C12_17  and  C19_28 
REMARK    9  A    between atoms: C13_18  and  C14_19 
REMARK   10  A    between atoms: C15_21  and  O4_23 
ROOT
HETATM    1  C3  UNL     1      19.452 -15.594  23.021  1.00  0.00     0.162 C 
HETATM    2  C11 UNL     1      19.765 -16.076  21.627  1.00  0.00     0.240 C 
HETATM    3  O2  UNL     1      20.809 -16.675  21.225  1.00  0.00    -0.272 OA
HETATM    4  N2  UNL     1      18.681 -15.740  20.826  1.00  0.00    -0.337 N 
ATOM      5  H2  UNL     1      18.296 -16.308  20.071  1.00  0.00     0.163 HD
HETATM    6  C12 UNL     1      18.193 -14.445  21.247  1.00  0.00     0.201 C 
HETATM    7  C20 UNL     1      18.502 -14.462  22.743  1.00  0.00     0.300 C 
HETATM    8  F4  UNL     1      17.349 -14.699  23.499  1.00  0.00    -0.201 F 
HETATM    9  F5  UNL     1      18.988 -13.246  23.147  1.00  0.00    -0.201 F 
ENDROOT
BRANCH   6  10
HETATM   10  C13 UNL     1      16.731 -14.298  21.149  1.00  0.00     0.087 C 
BRANCH  10  11
HETATM   11  C14 UNL     1      16.050 -13.031  21.473  1.00  0.00     0.197 C 
HETATM   12  O3  UNL     1      15.093 -13.049  22.453  1.00  0.00    -0.342 OA
HETATM   13  C15 UNL     1      13.854 -12.991  21.855  1.00  0.00     0.165 C 
HETATM   14  C16 UNL     1      13.145 -14.294  21.742  1.00  0.00     0.079 C 
HETATM   15  C17 UNL     1      14.021 -12.292  20.536  1.00  0.00     0.149 C 
HETATM   16  C18 UNL     1      15.468 -12.417  20.271  1.00  0.00     0.161 C 
HETATM   17  O5  UNL     1      16.099 -12.101  19.298  1.00  0.00    -0.295 OA
BRANCH  13  18
HETATM   18  O4  UNL     1      13.061 -12.164  22.673  1.00  0.00    -0.365 OA
ATOM     19  H4  UNL     1      12.191 -12.546  22.673  1.00  0.00     0.213 HD
ENDBRANCH  13  18
ENDBRANCH  10  11
ENDBRANCH   6  10
BRANCH   6  20
HETATM   20  C19 UNL     1      19.038 -13.437  20.541  1.00  0.00     0.418 C 
HETATM   21  F1  UNL     1      18.706 -12.121  20.858  1.00  0.00    -0.168 F 
HETATM   22  F2  UNL     1      18.690 -13.487  19.169  1.00  0.00    -0.168 F 
HETATM   23  F3  UNL     1      20.374 -13.688  20.572  1.00  0.00    -0.168 F 
ENDBRANCH   6  20
BRANCH   1  24
HETATM   24  C2  UNL     1      18.765 -16.796  23.658  1.00  0.00     0.198 C 
BRANCH  24  25
HETATM   25  O1  UNL     1      18.146 -17.577  22.724  1.00  0.00    -0.394 OA
HETATM   26  C1  UNL     1      16.918 -18.001  23.197  1.00  0.00     0.201 C 
ENDBRANCH  24  25
ENDBRANCH   1  24
BRANCH   1  27
HETATM   27  C4  UNL     1      20.643 -15.181  23.766  1.00  0.00     0.086 C 
BRANCH  27  28
HETATM   28  N1  UNL     1      20.866 -15.207  25.116  1.00  0.00    -0.384 N 
BRANCH  28  29
HETATM   29  C5  UNL     1      20.115 -14.651  26.103  1.00  0.00     0.075 C 
HETATM   30  C6  UNL     1      19.226 -15.620  26.893  1.00  0.00     0.032 C 
HETATM   31  C7  UNL     1      20.854 -13.847  27.171  1.00  0.00     0.032 C 
ENDBRANCH  28  29
BRANCH  28  32
HETATM   32  C8  UNL     1      22.281 -15.437  25.341  1.00  0.00     0.075 C 
HETATM   33  C9  UNL     1      23.237 -14.696  24.493  1.00  0.00     0.032 C 
HETATM   34  C10 UNL     1      22.627 -16.886  25.468  1.00  0.00     0.032 C 
ENDBRANCH  28  32
ENDBRANCH  27  28
ENDBRANCH   1  27
TORSDOF 10
ENDMDL
