MODEL 1
REMARK VINA RESULT: -9.312598939      0.000      0.000
REMARK  6 active torsions:
REMARK  status: ('A' for Active; 'I' for Inactive)
REMARK    1  A    between atoms: N1_8  and  C7_9 
REMARK    2  A    between atoms: C7_9  and  C8_10 
REMARK       I    between atoms: C8_10  and  N2_12 
REMARK    3  A    between atoms: N2_12  and  C9_13 
REMARK    4  A    between atoms: N2_12  and  C15_22 
REMARK    5  A    between atoms: C9_13  and  C10_14 
REMARK    6  A    between atoms: C24_31  and  C25_32 
ROOT
HETATM    1  C8  UNL     1      19.186 131.655  -1.307  1.00  0.00     0.238 C 
HETATM    2  O2  UNL     1      18.157 131.599  -0.567  1.00  0.00    -0.272 OA
HETATM    3  N2  UNL     1      20.485 131.707  -0.742  1.00  0.00    -0.345 N 
ENDROOT
BRANCH   1   4
HETATM    4  C7  UNL     1      19.050 131.670  -2.791  1.00  0.00     0.236 C 
BRANCH   4   5
HETATM    5  N1  UNL     1      18.118 130.652  -3.241  1.00  0.00    -0.294 N 
HETATM    6  C6  UNL     1      16.891 131.060  -3.597  1.00  0.00     0.261 A 
HETATM    7  C5  UNL     1      15.977 130.125  -4.031  1.00  0.00     0.059 A 
HETATM    8  O1  UNL     1      16.525 132.261  -3.557  1.00  0.00    -0.267 OA
HETATM    9  C4  UNL     1      14.695 130.464  -4.415  1.00  0.00     0.020 A 
HETATM   10  C28 UNL     1      16.360 128.792  -4.084  1.00  0.00     0.049 A 
HETATM   11  C3  UNL     1      13.781 129.505  -4.853  1.00  0.00     0.008 A 
HETATM   12  C2  UNL     1      14.162 128.183  -4.905  1.00  0.00    -0.060 A 
HETATM   13  C1  UNL     1      13.166 127.188  -5.375  1.00  0.00     0.048 C 
HETATM   14  C29 UNL     1      15.441 127.860  -4.519  1.00  0.00     0.037 A 
HETATM   15  N4  UNL     1      17.607 128.461  -3.710  1.00  0.00    -0.344 N 
HETATM   16  C24 UNL     1      18.518 129.382  -3.279  1.00  0.00     0.091 A 
ATOM     17  H4  UNL     1      17.884 127.480  -3.750  1.00  0.00     0.167 HD
BRANCH  16  18
HETATM   18  C25 UNL     1      19.887 128.911  -2.869  1.00  0.00     0.054 A 
HETATM   19  C26 UNL     1      20.910 129.083  -3.984  1.00  0.00     0.013 A 
HETATM   20  C27 UNL     1      20.464 127.735  -3.613  1.00  0.00     0.013 A 
ENDBRANCH  16  18
ENDBRANCH   4   5
ENDBRANCH   1   4
BRANCH   3  21
HETATM   21  C9  UNL     1      20.613 131.710   0.687  1.00  0.00     0.131 C 
BRANCH  21  22
HETATM   22  C10 UNL     1      20.926 132.979   1.374  1.00  0.00     0.007 C 
HETATM   23  C11 UNL     1      21.587 132.669   2.724  1.00  0.00     0.034 C 
HETATM   24  C12 UNL     1      21.399 133.770   3.718  1.00  0.00     0.232 C 
HETATM   25  N3  UNL     1      20.023 134.003   4.059  1.00  0.00    -0.075 N 
HETATM   26  C13 UNL     1      19.138 133.778   2.955  1.00  0.00     0.232 C 
ATOM     27  H32 UNL     1      19.747 133.448   4.869  1.00  0.00     0.277 HD
ATOM     28  H31 UNL     1      19.894 134.936   4.447  1.00  0.00     0.277 HD
HETATM   29  C14 UNL     1      19.846 133.954   1.619  1.00  0.00     0.034 C 
ENDBRANCH  21  22
ENDBRANCH   3  21
BRANCH   3  30
HETATM   30  C15 UNL     1      21.649 131.708  -1.644  1.00  0.00     0.091 C 
HETATM   31  C16 UNL     1      22.713 130.790  -1.158  1.00  0.00     0.030 C 
HETATM   32  C17 UNL     1      23.934 130.899  -2.011  1.00  0.00    -0.013 C 
HETATM   33  C18 UNL     1      25.100 130.350  -1.175  1.00  0.00     0.010 C 
HETATM   34  C19 UNL     1      24.251 132.316  -2.415  1.00  0.00    -0.010 C 
HETATM   35  C20 UNL     1      23.558 132.571  -3.737  1.00  0.00     0.005 C 
HETATM   36  C23 UNL     1      23.568 133.322  -1.497  1.00  0.00     0.011 C 
HETATM   37  C21 UNL     1      22.308 133.356  -3.445  1.00  0.00     0.007 C 
HETATM   38  C22 UNL     1      22.136 133.126  -1.933  1.00  0.00     0.009 C 
ENDBRANCH   3  30
TORSDOF 6
ENDMDL
MODEL 2
REMARK VINA RESULT: -9.043298799      1.651      2.810
REMARK  6 active torsions:
REMARK  status: ('A' for Active; 'I' for Inactive)
REMARK    1  A    between atoms: N1_8  and  C7_9 
REMARK    2  A    between atoms: C7_9  and  C8_10 
REMARK       I    between atoms: C8_10  and  N2_12 
REMARK    3  A    between atoms: N2_12  and  C9_13 
REMARK    4  A    between atoms: N2_12  and  C15_22 
REMARK    5  A    between atoms: C9_13  and  C10_14 
REMARK    6  A    between atoms: C24_31  and  C25_32 
ROOT
HETATM    1  C8  UNL     1      18.665 131.556  -1.808  1.00  0.00     0.238 C 
HETATM    2  O2  UNL     1      17.687 131.516  -1.001  1.00  0.00    -0.272 OA
HETATM    3  N2  UNL     1      19.992 131.354  -1.350  1.00  0.00    -0.345 N 
ENDROOT
BRANCH   1   4
HETATM    4  C7  UNL     1      18.440 131.817  -3.257  1.00  0.00     0.236 C 
BRANCH   4   5
HETATM    5  N1  UNL     1      17.182 131.247  -3.702  1.00  0.00    -0.294 N 
HETATM    6  C6  UNL     1      17.150 129.923  -3.915  1.00  0.00     0.261 A 
HETATM    7  C5  UNL     1      15.973 129.344  -4.338  1.00  0.00     0.059 A 
HETATM    8  O1  UNL     1      18.144 129.174  -3.748  1.00  0.00    -0.267 OA
HETATM    9  C4  UNL     1      15.859 127.990  -4.578  1.00  0.00     0.020 A 
HETATM   10  C28 UNL     1      14.862 130.153  -4.528  1.00  0.00     0.049 A 
HETATM   11  C3  UNL     1      14.661 127.417  -5.006  1.00  0.00     0.008 A 
HETATM   12  C2  UNL     1      13.558 128.221  -5.195  1.00  0.00    -0.060 A 
HETATM   13  C1  UNL     1      12.298 127.582  -5.650  1.00  0.00     0.048 C 
HETATM   14  C29 UNL     1      13.687 129.568  -4.952  1.00  0.00     0.037 A 
HETATM   15  N4  UNL     1      14.972 131.471  -4.296  1.00  0.00    -0.344 N 
HETATM   16  C24 UNL     1      16.135 132.053  -3.876  1.00  0.00     0.091 A 
ATOM     17  H4  UNL     1      14.153 132.062  -4.438  1.00  0.00     0.167 HD
BRANCH  16  18
HETATM   18  C25 UNL     1      16.163 133.540  -3.655  1.00  0.00     0.054 A 
HETATM   19  C26 UNL     1      15.519 133.935  -2.331  1.00  0.00     0.013 A 
HETATM   20  C27 UNL     1      14.837 134.253  -3.590  1.00  0.00     0.013 A 
ENDBRANCH  16  18
ENDBRANCH   4   5
ENDBRANCH   1   4
BRANCH   3  21
HETATM   21  C9  UNL     1      20.209 131.119   0.048  1.00  0.00     0.131 C 
BRANCH  21  22
HETATM   22  C10 UNL     1      20.502 132.267   0.929  1.00  0.00     0.007 C 
HETATM   23  C11 UNL     1      19.904 132.001   2.317  1.00  0.00     0.034 C 
HETATM   24  C12 UNL     1      19.612 133.263   3.065  1.00  0.00     0.232 C 
HETATM   25  N3  UNL     1      18.628 134.091   2.423  1.00  0.00    -0.075 N 
HETATM   26  C13 UNL     1      18.696 134.020   0.995  1.00  0.00     0.232 C 
ATOM     27  H32 UNL     1      17.690 133.871   2.757  1.00  0.00     0.277 HD
ATOM     28  H31 UNL     1      18.696 135.056   2.745  1.00  0.00     0.277 HD
HETATM   29  C14 UNL     1      20.085 133.621   0.515  1.00  0.00     0.034 C 
ENDBRANCH  21  22
ENDBRANCH   3  21
BRANCH   3  30
HETATM   30  C15 UNL     1      21.087 131.347  -2.336  1.00  0.00     0.091 C 
HETATM   31  C16 UNL     1      21.726 130.007  -2.428  1.00  0.00     0.030 C 
HETATM   32  C17 UNL     1      22.912 130.051  -3.334  1.00  0.00    -0.013 C 
HETATM   33  C18 UNL     1      23.777 128.833  -2.977  1.00  0.00     0.010 C 
HETATM   34  C19 UNL     1      23.740 131.299  -3.169  1.00  0.00    -0.010 C 
HETATM   35  C20 UNL     1      23.211 132.320  -4.155  1.00  0.00     0.005 C 
HETATM   36  C23 UNL     1      23.466 131.975  -1.832  1.00  0.00     0.011 C 
HETATM   37  C21 UNL     1      22.339 133.277  -3.388  1.00  0.00     0.007 C 
HETATM   38  C22 UNL     1      22.070 132.489  -2.092  1.00  0.00     0.009 C 
ENDBRANCH   3  30
TORSDOF 6
ENDMDL
MODEL 3
REMARK VINA RESULT: -8.953184529      4.390      9.013
REMARK  6 active torsions:
REMARK  status: ('A' for Active; 'I' for Inactive)
REMARK    1  A    between atoms: N1_8  and  C7_9 
REMARK    2  A    between atoms: C7_9  and  C8_10 
REMARK       I    between atoms: C8_10  and  N2_12 
REMARK    3  A    between atoms: N2_12  and  C9_13 
REMARK    4  A    between atoms: N2_12  and  C15_22 
REMARK    5  A    between atoms: C9_13  and  C10_14 
REMARK    6  A    between atoms: C24_31  and  C25_32 
ROOT
HETATM    1  C8  UNL     1      17.402 133.980  -2.654  1.00  0.00     0.238 C 
HETATM    2  O2  UNL     1      18.292 134.863  -2.847  1.00  0.00    -0.272 OA
HETATM    3  N2  UNL     1      16.803 133.303  -3.746  1.00  0.00    -0.345 N 
ENDROOT
BRANCH   1   4
HETATM    4  C7  UNL     1      16.965 133.636  -1.272  1.00  0.00     0.236 C 
BRANCH   4   5
HETATM    5  N1  UNL     1      16.706 134.832  -0.492  1.00  0.00    -0.294 N 
HETATM    6  C6  UNL     1      15.608 135.539  -0.800  1.00  0.00     0.261 A 
HETATM    7  C5  UNL     1      15.327 136.680  -0.082  1.00  0.00     0.059 A 
HETATM    8  O1  UNL     1      14.815 135.213  -1.718  1.00  0.00    -0.267 OA
HETATM    9  C4  UNL     1      14.218 137.461  -0.338  1.00  0.00     0.020 A 
HETATM   10  C28 UNL     1      16.189 137.057   0.936  1.00  0.00     0.049 A 
HETATM   11  C3  UNL     1      13.945 138.615   0.398  1.00  0.00     0.008 A 
HETATM   12  C2  UNL     1      14.803 138.989   1.409  1.00  0.00    -0.060 A 
HETATM   13  C1  UNL     1      14.484 140.220   2.173  1.00  0.00     0.048 C 
HETATM   14  C29 UNL     1      15.902 138.202   1.653  1.00  0.00     0.037 A 
HETATM   15  N4  UNL     1      17.269 136.299   1.186  1.00  0.00    -0.344 N 
HETATM   16  C24 UNL     1      17.555 135.166   0.479  1.00  0.00     0.091 A 
ATOM     17  H4  UNL     1      17.901 136.580   1.935  1.00  0.00     0.167 HD
BRANCH  16  18
HETATM   18  C25 UNL     1      18.796 134.389   0.825  1.00  0.00     0.054 A 
HETATM   19  C26 UNL     1      18.629 133.583   2.107  1.00  0.00     0.013 A 
HETATM   20  C27 UNL     1      19.507 134.758   2.101  1.00  0.00     0.013 A 
ENDBRANCH  16  18
ENDBRANCH   4   5
ENDBRANCH   1   4
BRANCH   3  21
HETATM   21  C9  UNL     1      17.212 133.648  -5.076  1.00  0.00     0.131 C 
BRANCH  21  22
HETATM   22  C10 UNL     1      16.517 134.746  -5.778  1.00  0.00     0.007 C 
HETATM   23  C11 UNL     1      15.862 134.194  -7.051  1.00  0.00     0.034 C 
HETATM   24  C12 UNL     1      15.670 135.246  -8.096  1.00  0.00     0.232 C 
HETATM   25  N3  UNL     1      16.903 135.815  -8.566  1.00  0.00    -0.075 N 
HETATM   26  C13 UNL     1      17.898 135.897  -7.540  1.00  0.00     0.232 C 
ATOM     27  H32 UNL     1      17.255 135.307  -9.378  1.00  0.00     0.277 HD
ATOM     28  H31 UNL     1      16.745 136.725  -8.998  1.00  0.00     0.277 HD
HETATM   29  C14 UNL     1      17.273 135.956  -6.153  1.00  0.00     0.034 C 
ENDBRANCH  21  22
ENDBRANCH   3  21
BRANCH   3  30
HETATM   30  C15 UNL     1      15.820 132.242  -3.467  1.00  0.00     0.091 C 
HETATM   31  C16 UNL     1      16.366 130.897  -3.788  1.00  0.00     0.030 C 
HETATM   32  C17 UNL     1      15.316 129.848  -3.622  1.00  0.00    -0.013 C 
HETATM   33  C18 UNL     1      15.782 128.633  -4.438  1.00  0.00     0.010 C 
HETATM   34  C19 UNL     1      13.962 130.280  -4.123  1.00  0.00    -0.010 C 
HETATM   35  C20 UNL     1      13.229 130.903  -2.952  1.00  0.00     0.005 C 
HETATM   36  C23 UNL     1      14.073 131.451  -5.090  1.00  0.00     0.011 C 
HETATM   37  C21 UNL     1      13.320 132.396  -3.109  1.00  0.00     0.007 C 
HETATM   38  C22 UNL     1      14.472 132.539  -4.121  1.00  0.00     0.009 C 
ENDBRANCH   3  30
TORSDOF 6
ENDMDL
MODEL 4
REMARK VINA RESULT: -8.903806307      3.856      7.459
REMARK  6 active torsions:
REMARK  status: ('A' for Active; 'I' for Inactive)
REMARK    1  A    between atoms: N1_8  and  C7_9 
REMARK    2  A    between atoms: C7_9  and  C8_10 
REMARK       I    between atoms: C8_10  and  N2_12 
REMARK    3  A    between atoms: N2_12  and  C9_13 
REMARK    4  A    between atoms: N2_12  and  C15_22 
REMARK    5  A    between atoms: C9_13  and  C10_14 
REMARK    6  A    between atoms: C24_31  and  C25_32 
ROOT
HETATM    1  C8  UNL     1      17.485 133.380  -3.283  1.00  0.00     0.238 C 
HETATM    2  O2  UNL     1      17.951 134.522  -3.579  1.00  0.00    -0.272 OA
HETATM    3  N2  UNL     1      18.278 132.213  -3.430  1.00  0.00    -0.345 N 
ENDROOT
BRANCH   1   4
HETATM    4  C7  UNL     1      16.093 133.239  -2.774  1.00  0.00     0.236 C 
BRANCH   4   5
HETATM    5  N1  UNL     1      15.652 134.452  -2.111  1.00  0.00    -0.294 N 
HETATM    6  C6  UNL     1      16.200 134.732  -0.919  1.00  0.00     0.261 A 
HETATM    7  C5  UNL     1      15.808 135.876  -0.258  1.00  0.00     0.059 A 
HETATM    8  O1  UNL     1      17.059 134.002  -0.367  1.00  0.00    -0.267 OA
HETATM    9  C4  UNL     1      16.324 136.234   0.972  1.00  0.00     0.020 A 
HETATM   10  C28 UNL     1      14.860 136.697  -0.850  1.00  0.00     0.049 A 
HETATM   11  C3  UNL     1      15.918 137.395   1.629  1.00  0.00     0.008 A 
HETATM   12  C2  UNL     1      14.976 138.210   1.041  1.00  0.00    -0.060 A 
HETATM   13  C1  UNL     1      14.566 139.439   1.766  1.00  0.00     0.048 C 
HETATM   14  C29 UNL     1      14.471 137.841  -0.183  1.00  0.00     0.037 A 
HETATM   15  N4  UNL     1      14.356 136.350  -2.045  1.00  0.00    -0.344 N 
HETATM   16  C24 UNL     1      14.739 135.218  -2.707  1.00  0.00     0.091 A 
ATOM     17  H4  UNL     1      13.659 136.956  -2.477  1.00  0.00     0.167 HD
BRANCH  16  18
HETATM   18  C25 UNL     1      14.108 134.907  -4.037  1.00  0.00     0.054 A 
HETATM   19  C26 UNL     1      14.563 135.870  -5.127  1.00  0.00     0.013 A 
HETATM   20  C27 UNL     1      13.187 135.945  -4.623  1.00  0.00     0.013 A 
ENDBRANCH  16  18
ENDBRANCH   4   5
ENDBRANCH   1   4
BRANCH   3  21
HETATM   21  C9  UNL     1      19.613 132.349  -3.936  1.00  0.00     0.131 C 
BRANCH  21  22
HETATM   22  C10 UNL     1      20.728 132.507  -2.980  1.00  0.00     0.007 C 
HETATM   23  C11 UNL     1      21.536 133.758  -3.353  1.00  0.00     0.034 C 
HETATM   24  C12 UNL     1      22.952 133.685  -2.877  1.00  0.00     0.232 C 
HETATM   25  N3  UNL     1      23.698 132.609  -3.467  1.00  0.00    -0.075 N 
HETATM   26  C13 UNL     1      22.891 131.452  -3.717  1.00  0.00     0.232 C 
ATOM     27  H32 UNL     1      24.173 132.915  -4.317  1.00  0.00     0.277 HD
ATOM     28  H31 UNL     1      24.511 132.372  -2.900  1.00  0.00     0.277 HD
HETATM   29  C14 UNL     1      21.682 131.398  -2.793  1.00  0.00     0.034 C 
ENDBRANCH  21  22
ENDBRANCH   3  21
BRANCH   3  30
HETATM   30  C15 UNL     1      17.714 130.918  -3.013  1.00  0.00     0.091 C 
HETATM   31  C16 UNL     1      18.198 130.524  -1.663  1.00  0.00     0.030 C 
HETATM   32  C17 UNL     1      17.720 129.153  -1.312  1.00  0.00    -0.013 C 
HETATM   33  C18 UNL     1      18.649 128.641  -0.200  1.00  0.00     0.010 C 
HETATM   34  C19 UNL     1      17.773 128.191  -2.471  1.00  0.00    -0.010 C 
HETATM   35  C20 UNL     1      16.429 128.254  -3.167  1.00  0.00     0.005 C 
HETATM   36  C23 UNL     1      18.720 128.681  -3.558  1.00  0.00     0.011 C 
HETATM   37  C21 UNL     1      16.597 129.114  -4.390  1.00  0.00     0.007 C 
HETATM   38  C22 UNL     1      17.916 129.847  -4.083  1.00  0.00     0.009 C 
ENDBRANCH   3  30
TORSDOF 6
ENDMDL
MODEL 5
REMARK VINA RESULT: -8.807989115      3.713      7.047
REMARK  6 active torsions:
REMARK  status: ('A' for Active; 'I' for Inactive)
REMARK    1  A    between atoms: N1_8  and  C7_9 
REMARK    2  A    between atoms: C7_9  and  C8_10 
REMARK       I    between atoms: C8_10  and  N2_12 
REMARK    3  A    between atoms: N2_12  and  C9_13 
REMARK    4  A    between atoms: N2_12  and  C15_22 
REMARK    5  A    between atoms: C9_13  and  C10_14 
REMARK    6  A    between atoms: C24_31  and  C25_32 
ROOT
HETATM    1  C8  UNL     1      16.424 132.465  -3.120  1.00  0.00     0.238 C 
HETATM    2  O2  UNL     1      16.635 131.989  -1.963  1.00  0.00    -0.272 OA
HETATM    3  N2  UNL     1      15.698 133.672  -3.286  1.00  0.00    -0.345 N 
ENDROOT
BRANCH   1   4
HETATM    4  C7  UNL     1      16.935 131.765  -4.331  1.00  0.00     0.236 C 
BRANCH   4   5
HETATM    5  N1  UNL     1      18.168 131.055  -4.044  1.00  0.00    -0.294 N 
HETATM    6  C6  UNL     1      19.273 131.793  -3.863  1.00  0.00     0.261 A 
HETATM    7  C5  UNL     1      20.463 131.156  -3.588  1.00  0.00     0.059 A 
HETATM    8  O1  UNL     1      19.282 133.047  -3.931  1.00  0.00    -0.267 OA
HETATM    9  C4  UNL     1      21.643 131.844  -3.390  1.00  0.00     0.020 A 
HETATM   10  C28 UNL     1      20.475 129.771  -3.509  1.00  0.00     0.049 A 
HETATM   11  C3  UNL     1      22.841 131.185  -3.112  1.00  0.00     0.008 A 
HETATM   12  C2  UNL     1      22.852 129.810  -3.033  1.00  0.00    -0.060 A 
HETATM   13  C1  UNL     1      24.142 129.139  -2.735  1.00  0.00     0.048 C 
HETATM   14  C29 UNL     1      21.670 129.138  -3.233  1.00  0.00     0.037 A 
HETATM   15  N4  UNL     1      19.328 129.100  -3.703  1.00  0.00    -0.344 N 
HETATM   16  C24 UNL     1      18.144 129.724  -3.976  1.00  0.00     0.091 A 
ATOM     17  H4  UNL     1      19.342 128.082  -3.644  1.00  0.00     0.167 HD
BRANCH  16  18
HETATM   18  C25 UNL     1      16.915 128.885  -4.191  1.00  0.00     0.054 A 
HETATM   19  C26 UNL     1      16.600 128.009  -2.984  1.00  0.00     0.013 A 
HETATM   20  C27 UNL     1      17.096 127.389  -4.218  1.00  0.00     0.013 A 
ENDBRANCH  16  18
ENDBRANCH   4   5
ENDBRANCH   1   4
BRANCH   3  21
HETATM   21  C9  UNL     1      15.192 134.336  -2.120  1.00  0.00     0.131 C 
BRANCH  21  22
HETATM   22  C10 UNL     1      15.955 135.466  -1.552  1.00  0.00     0.007 C 
HETATM   23  C11 UNL     1      16.442 135.089  -0.147  1.00  0.00     0.034 C 
HETATM   24  C12 UNL     1      16.674 136.287   0.717  1.00  0.00     0.232 C 
HETATM   25  N3  UNL     1      15.484 137.053   0.963  1.00  0.00    -0.075 N 
HETATM   26  C13 UNL     1      14.587 137.049  -0.153  1.00  0.00     0.232 C 
ATOM     27  H32 UNL     1      15.014 136.737   1.812  1.00  0.00     0.277 HD
ATOM     28  H31 UNL     1      15.712 138.005   1.246  1.00  0.00     0.277 HD
HETATM   29  C14 UNL     1      15.318 136.794  -1.464  1.00  0.00     0.034 C 
ENDBRANCH  21  22
ENDBRANCH   3  21
BRANCH   3  30
HETATM   30  C15 UNL     1      15.534 134.217  -4.644  1.00  0.00     0.091 C 
HETATM   31  C16 UNL     1      16.090 135.592  -4.749  1.00  0.00     0.030 C 
HETATM   32  C17 UNL     1      15.802 136.176  -6.092  1.00  0.00    -0.013 C 
HETATM   33  C18 UNL     1      15.932 137.700  -5.941  1.00  0.00     0.010 C 
HETATM   34  C19 UNL     1      14.417 135.856  -6.594  1.00  0.00    -0.010 C 
HETATM   35  C20 UNL     1      14.519 134.579  -7.403  1.00  0.00     0.005 C 
HETATM   36  C23 UNL     1      13.495 135.440  -5.455  1.00  0.00     0.011 C 
HETATM   37  C21 UNL     1      14.030 133.455  -6.531  1.00  0.00     0.007 C 
HETATM   38  C22 UNL     1      14.091 134.091  -5.130  1.00  0.00     0.009 C 
ENDBRANCH   3  30
TORSDOF 6
ENDMDL
