MODEL 1
REMARK VINA RESULT: -9.128050580      0.000      0.000
REMARK  6 active torsions:
REMARK  status: ('A' for Active; 'I' for Inactive)
REMARK    1  A    between atoms: C2_2  and  N1_3 
REMARK       I    between atoms: N1_3  and  C3_5 
REMARK    2  A    between atoms: C3_5  and  C4_7 
REMARK    3  A    between atoms: C4_7  and  S1_8 
REMARK    4  A    between atoms: S1_8  and  C5_9 
REMARK    5  A    between atoms: C5_9  and  C6_10 
REMARK       I    between atoms: C6_10  and  N2_12 
REMARK    6  A    between atoms: N3_15  and  C9_16 
ROOT
HETATM    1  C6  UNL     1      21.056 130.433  -0.797  1.00  0.00     0.230 C 
HETATM    2  O2  UNL     1      20.749 130.383   0.436  1.00  0.00    -0.272 OA
HETATM    3  N2  UNL     1      20.083 130.593  -1.809  1.00  0.00    -0.326 N 
HETATM    4  C7  UNL     1      20.433 130.643  -3.197  1.00  0.00     0.150 C 
HETATM    5  C8  UNL     1      19.119 130.771  -3.961  1.00  0.00     0.170 C 
HETATM    6  N3  UNL     1      18.287 131.786  -3.434  1.00  0.00    -0.286 N 
HETATM    7  O3  UNL     1      18.019 131.721  -2.143  1.00  0.00    -0.263 OA
HETATM    8  C26 UNL     1      18.692 130.712  -1.471  1.00  0.00     0.329 C 
ENDROOT
BRANCH   6   9
HETATM    9  C9  UNL     1      17.167 132.160  -4.293  1.00  0.00     0.114 C 
HETATM   10  C10 UNL     1      16.265 131.008  -4.260  1.00  0.00     0.037 C 
HETATM   11  C11 UNL     1      14.944 131.104  -5.040  1.00  0.00    -0.038 C 
HETATM   12  C12 UNL     1      14.976 130.209  -6.290  1.00  0.00     0.015 C 
HETATM   13  C13 UNL     1      13.871 130.540  -4.162  1.00  0.00     0.010 C 
HETATM   14  C18 UNL     1      14.795 132.478  -5.469  1.00  0.00     0.003 C 
HETATM   15  C14 UNL     1      13.564 131.442  -3.033  1.00  0.00     0.002 C 
HETATM   16  C15 UNL     1      14.381 132.703  -2.979  1.00  0.00     0.010 C 
HETATM   17  C16 UNL     1      14.473 133.363  -4.334  1.00  0.00    -0.032 C 
HETATM   18  C17 UNL     1      13.266 134.251  -4.428  1.00  0.00     0.016 C 
HETATM   19  C22 UNL     1      15.686 134.304  -4.430  1.00  0.00    -0.031 C 
HETATM   20  C21 UNL     1      15.655 134.793  -5.853  1.00  0.00     0.010 C 
HETATM   21  C23 UNL     1      15.430 135.452  -3.450  1.00  0.00     0.016 C 
HETATM   22  C24 UNL     1      16.860 133.533  -4.004  1.00  0.00     0.015 C 
HETATM   23  C20 UNL     1      14.590 134.396  -6.790  1.00  0.00     0.001 C 
HETATM   24  C19 UNL     1      14.073 132.949  -6.672  1.00  0.00     0.006 C 
HETATM   25  C25 UNL     1      18.074 134.367  -4.498  1.00  0.00     0.013 C 
ENDBRANCH   6   9
BRANCH   1  26
HETATM   26  C5  UNL     1      22.517 130.313  -1.106  1.00  0.00     0.177 C 
BRANCH  26  27
HETATM   27  S1  UNL     1      23.410 131.831  -0.681  1.00  0.00    -0.150 SA
BRANCH  27  28
HETATM   28  C4  UNL     1      23.665 131.901   1.120  1.00  0.00     0.177 C 
BRANCH  28  29
HETATM   29  C3  UNL     1      24.564 130.799   1.566  1.00  0.00     0.226 C 
HETATM   30  N1  UNL     1      24.513 130.327   2.895  1.00  0.00    -0.361 N 
ATOM     31  H1  UNL     1      23.852 130.753   3.544  1.00  0.00     0.162 HD
HETATM   32  O1  UNL     1      25.360 130.311   0.726  1.00  0.00    -0.273 OA
BRANCH  30  33
HETATM   33  C2  UNL     1      25.369 129.258   3.370  1.00  0.00     0.118 C 
HETATM   34  C1  UNL     1      24.987 128.952   4.790  1.00  0.00     0.026 C 
ENDBRANCH  30  33
ENDBRANCH  28  29
ENDBRANCH  27  28
ENDBRANCH  26  27
ENDBRANCH   1  26
TORSDOF 6
ENDMDL
MODEL 2
REMARK VINA RESULT: -9.077924376      2.452      4.509
REMARK  6 active torsions:
REMARK  status: ('A' for Active; 'I' for Inactive)
REMARK    1  A    between atoms: C2_2  and  N1_3 
REMARK       I    between atoms: N1_3  and  C3_5 
REMARK    2  A    between atoms: C3_5  and  C4_7 
REMARK    3  A    between atoms: C4_7  and  S1_8 
REMARK    4  A    between atoms: S1_8  and  C5_9 
REMARK    5  A    between atoms: C5_9  and  C6_10 
REMARK       I    between atoms: C6_10  and  N2_12 
REMARK    6  A    between atoms: N3_15  and  C9_16 
ROOT
HETATM    1  C6  UNL     1      22.633 132.118  -1.474  1.00  0.00     0.230 C 
HETATM    2  O2  UNL     1      23.360 132.912  -2.151  1.00  0.00    -0.272 OA
HETATM    3  N2  UNL     1      21.228 132.251  -1.414  1.00  0.00    -0.326 N 
HETATM    4  C7  UNL     1      20.414 131.357  -0.646  1.00  0.00     0.150 C 
HETATM    5  C8  UNL     1      18.979 131.856  -0.794  1.00  0.00     0.170 C 
HETATM    6  N3  UNL     1      18.632 132.100  -2.143  1.00  0.00    -0.286 N 
HETATM    7  O3  UNL     1      19.430 132.903  -2.824  1.00  0.00    -0.263 OA
HETATM    8  C26 UNL     1      20.563 133.303  -2.131  1.00  0.00     0.329 C 
ENDROOT
BRANCH   6   9
HETATM    9  C9  UNL     1      17.203 132.284  -2.378  1.00  0.00     0.114 C 
HETATM   10  C10 UNL     1      17.041 133.717  -2.624  1.00  0.00     0.037 C 
HETATM   11  C11 UNL     1      15.634 134.238  -2.957  1.00  0.00    -0.038 C 
HETATM   12  C12 UNL     1      15.053 135.043  -1.784  1.00  0.00     0.015 C 
HETATM   13  C13 UNL     1      15.779 135.209  -4.086  1.00  0.00     0.010 C 
HETATM   14  C18 UNL     1      14.789 133.084  -3.179  1.00  0.00     0.003 C 
HETATM   15  C14 UNL     1      16.102 134.522  -5.355  1.00  0.00     0.002 C 
HETATM   16  C15 UNL     1      16.237 133.028  -5.258  1.00  0.00     0.010 C 
HETATM   17  C16 UNL     1      15.112 132.420  -4.456  1.00  0.00    -0.032 C 
HETATM   18  C17 UNL     1      14.008 132.169  -5.442  1.00  0.00     0.016 C 
HETATM   19  C22 UNL     1      15.490 131.035  -3.900  1.00  0.00    -0.031 C 
HETATM   20  C21 UNL     1      14.296 130.637  -3.076  1.00  0.00     0.010 C 
HETATM   21  C23 UNL     1      15.658 130.109  -5.107  1.00  0.00     0.016 C 
HETATM   22  C24 UNL     1      16.772 131.190  -3.204  1.00  0.00     0.015 C 
HETATM   23  C20 UNL     1      13.095 131.485  -2.981  1.00  0.00     0.001 C 
HETATM   24  C19 UNL     1      13.329 133.007  -2.947  1.00  0.00     0.006 C 
HETATM   25  C25 UNL     1      16.902 129.908  -2.336  1.00  0.00     0.013 C 
ENDBRANCH   6   9
BRANCH   1  26
HETATM   26  C5  UNL     1      23.364 131.031  -0.747  1.00  0.00     0.177 C 
BRANCH  26  27
HETATM   27  S1  UNL     1      24.713 130.355  -1.751  1.00  0.00    -0.150 SA
BRANCH  27  28
HETATM   28  C4  UNL     1      24.076 129.004  -2.792  1.00  0.00     0.177 C 
BRANCH  28  29
HETATM   29  C3  UNL     1      22.822 129.419  -3.482  1.00  0.00     0.226 C 
HETATM   30  N1  UNL     1      21.575 128.894  -3.079  1.00  0.00    -0.361 N 
ATOM     31  H1  UNL     1      21.548 128.226  -2.309  1.00  0.00     0.162 HD
HETATM   32  O1  UNL     1      22.913 130.244  -4.425  1.00  0.00    -0.273 OA
BRANCH  30  33
HETATM   33  C2  UNL     1      20.332 129.271  -3.721  1.00  0.00     0.118 C 
HETATM   34  C1  UNL     1      19.626 128.015  -4.142  1.00  0.00     0.026 C 
ENDBRANCH  30  33
ENDBRANCH  28  29
ENDBRANCH  27  28
ENDBRANCH  26  27
ENDBRANCH   1  26
TORSDOF 6
ENDMDL
MODEL 3
REMARK VINA RESULT: -9.029326127      2.359      4.395
REMARK  6 active torsions:
REMARK  status: ('A' for Active; 'I' for Inactive)
REMARK    1  A    between atoms: C2_2  and  N1_3 
REMARK       I    between atoms: N1_3  and  C3_5 
REMARK    2  A    between atoms: C3_5  and  C4_7 
REMARK    3  A    between atoms: C4_7  and  S1_8 
REMARK    4  A    between atoms: S1_8  and  C5_9 
REMARK    5  A    between atoms: C5_9  and  C6_10 
REMARK       I    between atoms: C6_10  and  N2_12 
REMARK    6  A    between atoms: N3_15  and  C9_16 
ROOT
HETATM    1  C6  UNL     1      22.205 131.354  -0.560  1.00  0.00     0.230 C 
HETATM    2  O2  UNL     1      22.379 130.619   0.463  1.00  0.00    -0.272 OA
HETATM    3  N2  UNL     1      20.946 131.486  -1.186  1.00  0.00    -0.326 N 
HETATM    4  C7  UNL     1      20.756 132.311  -2.342  1.00  0.00     0.150 C 
HETATM    5  C8  UNL     1      19.292 132.150  -2.742  1.00  0.00     0.170 C 
HETATM    6  N3  UNL     1      18.414 132.306  -1.645  1.00  0.00    -0.286 N 
HETATM    7  O3  UNL     1      18.648 131.550  -0.587  1.00  0.00    -0.263 OA
HETATM    8  C26 UNL     1      19.801 130.785  -0.676  1.00  0.00     0.329 C 
ENDROOT
BRANCH   6   9
HETATM    9  C9  UNL     1      17.010 132.465  -2.009  1.00  0.00     0.114 C 
HETATM   10  C10 UNL     1      16.859 133.887  -2.321  1.00  0.00     0.037 C 
HETATM   11  C11 UNL     1      15.482 134.379  -2.795  1.00  0.00    -0.038 C 
HETATM   12  C12 UNL     1      14.793 135.219  -1.706  1.00  0.00     0.015 C 
HETATM   13  C13 UNL     1      15.717 135.311  -3.941  1.00  0.00     0.010 C 
HETATM   14  C18 UNL     1      14.669 133.208  -3.047  1.00  0.00     0.003 C 
HETATM   15  C14 UNL     1      16.155 134.583  -5.151  1.00  0.00     0.002 C 
HETATM   16  C15 UNL     1      16.293 133.095  -4.988  1.00  0.00     0.010 C 
HETATM   17  C16 UNL     1      15.108 132.503  -4.266  1.00  0.00    -0.032 C 
HETATM   18  C17 UNL     1      14.096 132.205  -5.334  1.00  0.00     0.016 C 
HETATM   19  C22 UNL     1      15.446 131.143  -3.629  1.00  0.00    -0.031 C 
HETATM   20  C21 UNL     1      14.188 130.761  -2.898  1.00  0.00     0.010 C 
HETATM   21  C23 UNL     1      15.727 130.176  -4.782  1.00  0.00     0.016 C 
HETATM   22  C24 UNL     1      16.662 131.337  -2.830  1.00  0.00     0.015 C 
HETATM   23  C20 UNL     1      12.977 131.598  -2.940  1.00  0.00     0.001 C 
HETATM   24  C19 UNL     1      13.195 133.124  -2.941  1.00  0.00     0.006 C 
HETATM   25  C25 UNL     1      16.725 130.089  -1.907  1.00  0.00     0.013 C 
ENDBRANCH   6   9
BRANCH   1  26
HETATM   26  C5  UNL     1      23.422 132.073  -1.056  1.00  0.00     0.177 C 
BRANCH  26  27
HETATM   27  S1  UNL     1      24.470 130.986  -2.059  1.00  0.00    -0.150 SA
BRANCH  27  28
HETATM   28  C4  UNL     1      23.580 130.520  -3.578  1.00  0.00     0.177 C 
BRANCH  28  29
HETATM   29  C3  UNL     1      22.742 129.310  -3.345  1.00  0.00     0.226 C 
HETATM   30  N1  UNL     1      21.431 129.236  -3.864  1.00  0.00    -0.361 N 
ATOM     31  H1  UNL     1      21.069 130.024  -4.400  1.00  0.00     0.162 HD
HETATM   32  O1  UNL     1      23.238 128.369  -2.677  1.00  0.00    -0.273 OA
BRANCH  30  33
HETATM   33  C2  UNL     1      20.583 128.078  -3.662  1.00  0.00     0.118 C 
HETATM   34  C1  UNL     1      19.237 128.378  -4.255  1.00  0.00     0.026 C 
ENDBRANCH  30  33
ENDBRANCH  28  29
ENDBRANCH  27  28
ENDBRANCH  26  27
ENDBRANCH   1  26
TORSDOF 6
ENDMDL
MODEL 4
REMARK VINA RESULT: -8.991057107      2.714      3.106
REMARK  6 active torsions:
REMARK  status: ('A' for Active; 'I' for Inactive)
REMARK    1  A    between atoms: C2_2  and  N1_3 
REMARK       I    between atoms: N1_3  and  C3_5 
REMARK    2  A    between atoms: C3_5  and  C4_7 
REMARK    3  A    between atoms: C4_7  and  S1_8 
REMARK    4  A    between atoms: S1_8  and  C5_9 
REMARK    5  A    between atoms: C5_9  and  C6_10 
REMARK       I    between atoms: C6_10  and  N2_12 
REMARK    6  A    between atoms: N3_15  and  C9_16 
ROOT
HETATM    1  C6  UNL     1      21.421 129.590  -2.098  1.00  0.00     0.230 C 
HETATM    2  O2  UNL     1      21.683 130.080  -0.954  1.00  0.00    -0.272 OA
HETATM    3  N2  UNL     1      20.218 129.875  -2.781  1.00  0.00    -0.326 N 
HETATM    4  C7  UNL     1      19.925 129.316  -4.067  1.00  0.00     0.150 C 
HETATM    5  C8  UNL     1      18.532 129.816  -4.439  1.00  0.00     0.170 C 
HETATM    6  N3  UNL     1      18.395 131.212  -4.259  1.00  0.00    -0.286 N 
HETATM    7  O3  UNL     1      18.709 131.688  -3.068  1.00  0.00    -0.263 OA
HETATM    8  C26 UNL     1      19.236 130.746  -2.197  1.00  0.00     0.329 C 
ENDROOT
BRANCH   6   9
HETATM    9  C9  UNL     1      17.205 131.789  -4.876  1.00  0.00     0.114 C 
HETATM   10  C10 UNL     1      16.293 130.660  -5.068  1.00  0.00     0.037 C 
HETATM   11  C11 UNL     1      14.906 130.947  -5.664  1.00  0.00    -0.038 C 
HETATM   12  C12 UNL     1      14.808 130.422  -7.107  1.00  0.00     0.015 C 
HETATM   13  C13 UNL     1      13.914 130.154  -4.874  1.00  0.00     0.010 C 
HETATM   14  C18 UNL     1      14.737 132.384  -5.692  1.00  0.00     0.003 C 
HETATM   15  C14 UNL     1      13.727 130.715  -3.519  1.00  0.00     0.002 C 
HETATM   16  C15 UNL     1      14.563 131.925  -3.206  1.00  0.00     0.010 C 
HETATM   17  C16 UNL     1      14.536 132.927  -4.335  1.00  0.00    -0.032 C 
HETATM   18  C17 UNL     1      13.338 133.793  -4.072  1.00  0.00     0.016 C 
HETATM   19  C22 UNL     1      15.748 133.874  -4.290  1.00  0.00    -0.031 C 
HETATM   20  C21 UNL     1      15.589 134.726  -5.519  1.00  0.00     0.010 C 
HETATM   21  C23 UNL     1      15.602 134.712  -3.017  1.00  0.00     0.016 C 
HETATM   22  C24 UNL     1      16.945 133.030  -4.200  1.00  0.00     0.015 C 
HETATM   23  C20 UNL     1      14.435 134.584  -6.423  1.00  0.00     0.001 C 
HETATM   24  C19 UNL     1      13.911 133.153  -6.650  1.00  0.00     0.006 C 
HETATM   25  C25 UNL     1      18.119 133.980  -4.564  1.00  0.00     0.013 C 
ENDBRANCH   6   9
BRANCH   1  26
HETATM   26  C5  UNL     1      22.473 128.693  -2.675  1.00  0.00     0.177 C 
BRANCH  26  27
HETATM   27  S1  UNL     1      24.025 129.587  -2.952  1.00  0.00    -0.150 SA
BRANCH  27  28
HETATM   28  C4  UNL     1      23.807 130.772  -4.318  1.00  0.00     0.177 C 
BRANCH  28  29
HETATM   29  C3  UNL     1      24.042 132.166  -3.846  1.00  0.00     0.226 C 
HETATM   30  N1  UNL     1      25.203 132.487  -3.112  1.00  0.00    -0.361 N 
ATOM     31  H1  UNL     1      25.878 131.749  -2.910  1.00  0.00     0.162 HD
HETATM   32  O1  UNL     1      23.178 133.036  -4.122  1.00  0.00    -0.273 OA
BRANCH  30  33
HETATM   33  C2  UNL     1      25.471 133.829  -2.634  1.00  0.00     0.118 C 
HETATM   34  C1  UNL     1      26.957 134.043  -2.657  1.00  0.00     0.026 C 
ENDBRANCH  30  33
ENDBRANCH  28  29
ENDBRANCH  27  28
ENDBRANCH  26  27
ENDBRANCH   1  26
TORSDOF 6
ENDMDL
MODEL 5
REMARK VINA RESULT: -8.926531426      1.627      2.238
REMARK  6 active torsions:
REMARK  status: ('A' for Active; 'I' for Inactive)
REMARK    1  A    between atoms: C2_2  and  N1_3 
REMARK       I    between atoms: N1_3  and  C3_5 
REMARK    2  A    between atoms: C3_5  and  C4_7 
REMARK    3  A    between atoms: C4_7  and  S1_8 
REMARK    4  A    between atoms: S1_8  and  C5_9 
REMARK    5  A    between atoms: C5_9  and  C6_10 
REMARK       I    between atoms: C6_10  and  N2_12 
REMARK    6  A    between atoms: N3_15  and  C9_16 
ROOT
HETATM    1  C6  UNL     1      20.790 130.727  -0.419  1.00  0.00     0.230 C 
HETATM    2  O2  UNL     1      20.405 130.632   0.789  1.00  0.00    -0.272 OA
HETATM    3  N2  UNL     1      19.879 130.869  -1.490  1.00  0.00    -0.326 N 
HETATM    4  C7  UNL     1      20.317 130.971  -2.850  1.00  0.00     0.150 C 
HETATM    5  C8  UNL     1      19.052 131.058  -3.698  1.00  0.00     0.170 C 
HETATM    6  N3  UNL     1      18.140 132.020  -3.205  1.00  0.00    -0.286 N 
HETATM    7  O3  UNL     1      17.790 131.909  -1.936  1.00  0.00    -0.263 OA
HETATM    8  C26 UNL     1      18.465 130.915  -1.243  1.00  0.00     0.329 C 
ENDROOT
BRANCH   6   9
HETATM    9  C9  UNL     1      17.063 132.364  -4.129  1.00  0.00     0.114 C 
HETATM   10  C10 UNL     1      16.141 131.229  -4.073  1.00  0.00     0.037 C 
HETATM   11  C11 UNL     1      14.855 131.304  -4.911  1.00  0.00    -0.038 C 
HETATM   12  C12 UNL     1      14.923 130.344  -6.111  1.00  0.00     0.015 C 
HETATM   13  C13 UNL     1      13.738 130.802  -4.052  1.00  0.00     0.010 C 
HETATM   14  C18 UNL     1      14.747 132.655  -5.418  1.00  0.00     0.003 C 
HETATM   15  C14 UNL     1      13.400 131.767  -2.984  1.00  0.00     0.002 C 
HETATM   16  C15 UNL     1      14.235 133.017  -2.963  1.00  0.00     0.010 C 
HETATM   17  C16 UNL     1      14.393 133.603  -4.345  1.00  0.00    -0.032 C 
HETATM   18  C17 UNL     1      13.207 134.503  -4.536  1.00  0.00     0.016 C 
HETATM   19  C22 UNL     1      15.625 134.520  -4.439  1.00  0.00    -0.031 C 
HETATM   20  C21 UNL     1      15.661 134.933  -5.886  1.00  0.00     0.010 C 
HETATM   21  C23 UNL     1      15.349 135.722  -3.532  1.00  0.00     0.016 C 
HETATM   22  C24 UNL     1      16.767 133.756  -3.925  1.00  0.00     0.015 C 
HETATM   23  C20 UNL     1      14.629 134.504  -6.845  1.00  0.00     0.001 C 
HETATM   24  C19 UNL     1      14.083 133.073  -6.673  1.00  0.00     0.006 C 
HETATM   25  C25 UNL     1      18.015 134.544  -4.410  1.00  0.00     0.013 C 
ENDBRANCH   6   9
BRANCH   1  26
HETATM   26  C5  UNL     1      22.272 130.682  -0.632  1.00  0.00     0.177 C 
BRANCH  26  27
HETATM   27  S1  UNL     1      23.037 132.291  -0.301  1.00  0.00    -0.150 SA
BRANCH  27  28
HETATM   28  C4  UNL     1      24.305 132.104   0.993  1.00  0.00     0.177 C 
BRANCH  28  29
HETATM   29  C3  UNL     1      25.642 132.520   0.482  1.00  0.00     0.226 C 
HETATM   30  N1  UNL     1      25.825 132.815  -0.886  1.00  0.00    -0.361 N 
ATOM     31  H1  UNL     1      25.028 132.738  -1.517  1.00  0.00     0.162 HD
HETATM   32  O1  UNL     1      26.590 132.598   1.303  1.00  0.00    -0.273 OA
BRANCH  30  33
HETATM   33  C2  UNL     1      27.107 133.224  -1.425  1.00  0.00     0.118 C 
HETATM   34  C1  UNL     1      26.861 133.923  -2.731  1.00  0.00     0.026 C 
ENDBRANCH  30  33
ENDBRANCH  28  29
ENDBRANCH  27  28
ENDBRANCH  26  27
ENDBRANCH   1  26
TORSDOF 6
ENDMDL
