MODEL 1
REMARK VINA RESULT: -5.868624904      0.000      0.000
REMARK  3 active torsions:
REMARK  status: ('A' for Active; 'I' for Inactive)
REMARK    1  A    between atoms: C1_4  and  C2_6 
REMARK    2  A    between atoms: C2_6  and  N3_7 
REMARK    3  A    between atoms: N3_7  and  C3_9 
ROOT
HETATM    1  C3  UNL     1      13.864  16.485  20.055  1.00  0.00     0.030 C 
HETATM    2  C4  UNL     1      13.657  17.597  19.075  1.00  0.00     0.035 C 
HETATM    3  C5  UNL     1      14.338  17.264  17.764  1.00  0.00    -0.012 C 
HETATM    4  C6  UNL     1      15.818  17.070  17.928  1.00  0.00     0.009 C 
HETATM    5  C7  UNL     1      16.035  15.978  18.947  1.00  0.00    -0.012 C 
HETATM    6  C8  UNL     1      15.477  14.666  18.421  1.00  0.00     0.009 C 
HETATM    7  C9  UNL     1      13.998  14.849  18.161  1.00  0.00    -0.012 C 
HETATM    8  C10 UNL     1      13.747  15.979  17.199  1.00  0.00     0.009 C 
HETATM    9  C11 UNL     1      13.319  15.204  19.465  1.00  0.00     0.035 C 
HETATM   10  C12 UNL     1      15.367  16.279  20.250  1.00  0.00     0.035 C 
ENDROOT
BRANCH   1  11
HETATM   11  N3  UNL     1      13.287  16.739  21.308  1.00  0.00    -0.387 N 
ATOM     12  H3  UNL     1      12.283  16.899  21.387  1.00  0.00     0.159 HD
BRANCH  11  13
HETATM   13  C2  UNL     1      14.095  16.772  22.449  1.00  0.00     0.128 C 
BRANCH  13  14
HETATM   14  C1  UNL     1      13.239  16.701  23.663  1.00  0.00     0.125 C 
HETATM   15  N1  UNL     1      13.648  16.139  24.747  1.00  0.00    -0.387 N 
ATOM     16  H12 UNL     1      13.062  16.090  25.580  1.00  0.00     0.157 HD
ATOM     17  H11 UNL     1      14.583  15.731  24.773  1.00  0.00     0.157 HD
HETATM   18  N2  UNL     1      11.940  17.267  23.626  1.00  0.00    -0.082 NA
ENDBRANCH  13  14
ENDBRANCH  11  13
ENDBRANCH   1  11
TORSDOF 3
ENDMDL
MODEL 2
REMARK VINA RESULT: -5.854616865      2.506      4.340
REMARK  3 active torsions:
REMARK  status: ('A' for Active; 'I' for Inactive)
REMARK    1  A    between atoms: C1_4  and  C2_6 
REMARK    2  A    between atoms: C2_6  and  N3_7 
REMARK    3  A    between atoms: N3_7  and  C3_9 
ROOT
HETATM    1  C3  UNL     1      14.090  16.428  16.511  1.00  0.00     0.030 C 
HETATM    2  C4  UNL     1      12.974  15.460  16.749  1.00  0.00     0.035 C 
HETATM    3  C5  UNL     1      12.002  15.498  15.587  1.00  0.00    -0.012 C 
HETATM    4  C6  UNL     1      11.395  16.858  15.400  1.00  0.00     0.009 C 
HETATM    5  C7  UNL     1      12.518  17.846  15.201  1.00  0.00    -0.012 C 
HETATM    6  C8  UNL     1      13.268  17.521  13.920  1.00  0.00     0.009 C 
HETATM    7  C9  UNL     1      13.824  16.119  14.038  1.00  0.00    -0.012 C 
HETATM    8  C10 UNL     1      12.732  15.119  14.305  1.00  0.00     0.009 C 
HETATM    9  C11 UNL     1      14.777  16.074  15.211  1.00  0.00     0.035 C 
HETATM   10  C12 UNL     1      13.496  17.826  16.331  1.00  0.00     0.035 C 
ENDROOT
BRANCH   1  11
HETATM   11  N3  UNL     1      15.015  16.474  17.565  1.00  0.00    -0.387 N 
ATOM     12  H3  UNL     1      15.712  15.736  17.667  1.00  0.00     0.159 HD
BRANCH  11  13
HETATM   13  C2  UNL     1      14.976  17.534  18.475  1.00  0.00     0.128 C 
BRANCH  13  14
HETATM   14  C1  UNL     1      14.706  17.005  19.838  1.00  0.00     0.125 C 
HETATM   15  N1  UNL     1      15.657  16.777  20.677  1.00  0.00    -0.387 N 
ATOM     16  H12 UNL     1      15.472  16.415  21.612  1.00  0.00     0.157 HD
ATOM     17  H11 UNL     1      16.621  16.964  20.397  1.00  0.00     0.157 HD
HETATM   18  N2  UNL     1      13.367  16.745  20.226  1.00  0.00    -0.082 NA
ENDBRANCH  13  14
ENDBRANCH  11  13
ENDBRANCH   1  11
TORSDOF 3
ENDMDL
MODEL 3
REMARK VINA RESULT: -5.843242623      2.511      4.052
REMARK  3 active torsions:
REMARK  status: ('A' for Active; 'I' for Inactive)
REMARK    1  A    between atoms: C1_4  and  C2_6 
REMARK    2  A    between atoms: C2_6  and  N3_7 
REMARK    3  A    between atoms: N3_7  and  C3_9 
ROOT
HETATM    1  C3  UNL     1      14.061  16.504  16.522  1.00  0.00     0.030 C 
HETATM    2  C4  UNL     1      13.471  17.868  16.342  1.00  0.00     0.035 C 
HETATM    3  C5  UNL     1      12.529  17.870  15.156  1.00  0.00    -0.012 C 
HETATM    4  C6  UNL     1      13.225  17.501  13.878  1.00  0.00     0.009 C 
HETATM    5  C7  UNL     1      13.858  16.143  14.067  1.00  0.00    -0.012 C 
HETATM    6  C8  UNL     1      12.777  15.100  14.294  1.00  0.00     0.009 C 
HETATM    7  C9  UNL     1      11.996  15.486  15.531  1.00  0.00    -0.012 C 
HETATM    8  C10 UNL     1      11.410  16.866  15.398  1.00  0.00     0.009 C 
HETATM    9  C11 UNL     1      12.940  15.506  16.712  1.00  0.00     0.035 C 
HETATM   10  C12 UNL     1      14.789  16.111  15.236  1.00  0.00     0.035 C 
ENDROOT
BRANCH   1  11
HETATM   11  N3  UNL     1      14.973  16.433  17.585  1.00  0.00    -0.387 N 
ATOM     12  H3  UNL     1      15.570  15.613  17.695  1.00  0.00     0.159 HD
BRANCH  11  13
HETATM   13  C2  UNL     1      15.061  17.491  18.495  1.00  0.00     0.128 C 
BRANCH  13  14
HETATM   14  C1  UNL     1      14.735  16.998  19.859  1.00  0.00     0.125 C 
HETATM   15  N1  UNL     1      15.649  16.800  20.744  1.00  0.00    -0.387 N 
ATOM     16  H12 UNL     1      15.426  16.462  21.680  1.00  0.00     0.157 HD
ATOM     17  H11 UNL     1      16.623  16.984  20.501  1.00  0.00     0.157 HD
HETATM   18  N2  UNL     1      13.381  16.742  20.196  1.00  0.00    -0.082 NA
ENDBRANCH  13  14
ENDBRANCH  11  13
ENDBRANCH   1  11
TORSDOF 3
ENDMDL
MODEL 4
REMARK VINA RESULT: -5.831132137      0.202      1.886
REMARK  3 active torsions:
REMARK  status: ('A' for Active; 'I' for Inactive)
REMARK    1  A    between atoms: C1_4  and  C2_6 
REMARK    2  A    between atoms: C2_6  and  N3_7 
REMARK    3  A    between atoms: N3_7  and  C3_9 
ROOT
HETATM    1  C3  UNL     1      13.855  16.349  20.035  1.00  0.00     0.030 C 
HETATM    2  C4  UNL     1      13.316  15.170  19.287  1.00  0.00     0.035 C 
HETATM    3  C5  UNL     1      14.007  15.052  17.944  1.00  0.00    -0.012 C 
HETATM    4  C6  UNL     1      13.798  16.268  17.090  1.00  0.00     0.009 C 
HETATM    5  C7  UNL     1      14.302  17.467  17.857  1.00  0.00    -0.012 C 
HETATM    6  C8  UNL     1      15.799  17.342  18.082  1.00  0.00     0.009 C 
HETATM    7  C9  UNL     1      16.057  16.075  18.869  1.00  0.00    -0.012 C 
HETATM    8  C10 UNL     1      15.503  14.869  18.160  1.00  0.00     0.009 C 
HETATM    9  C11 UNL     1      15.349  16.183  20.201  1.00  0.00     0.035 C 
HETATM   10  C12 UNL     1      13.640  17.605  19.190  1.00  0.00     0.035 C 
ENDROOT
BRANCH   1  11
HETATM   11  N3  UNL     1      13.236  16.542  21.279  1.00  0.00    -0.387 N 
ATOM     12  H3  UNL     1      12.221  16.484  21.361  1.00  0.00     0.159 HD
BRANCH  11  13
HETATM   13  C2  UNL     1      14.016  16.817  22.406  1.00  0.00     0.128 C 
BRANCH  13  14
HETATM   14  C1  UNL     1      13.174  16.713  23.627  1.00  0.00     0.125 C 
HETATM   15  N1  UNL     1      13.588  16.109  24.686  1.00  0.00    -0.387 N 
ATOM     16  H12 UNL     1      13.011  16.038  25.524  1.00  0.00     0.157 HD
ATOM     17  H11 UNL     1      14.518  15.688  24.686  1.00  0.00     0.157 HD
HETATM   18  N2  UNL     1      11.881  17.297  23.627  1.00  0.00    -0.082 NA
ENDBRANCH  13  14
ENDBRANCH  11  13
ENDBRANCH   1  11
TORSDOF 3
ENDMDL
MODEL 5
REMARK VINA RESULT: -5.811287310      2.506      4.367
REMARK  3 active torsions:
REMARK  status: ('A' for Active; 'I' for Inactive)
REMARK    1  A    between atoms: C1_4  and  C2_6 
REMARK    2  A    between atoms: C2_6  and  N3_7 
REMARK    3  A    between atoms: N3_7  and  C3_9 
ROOT
HETATM    1  C3  UNL     1      14.131  16.460  16.467  1.00  0.00     0.030 C 
HETATM    2  C4  UNL     1      14.826  16.082  15.196  1.00  0.00     0.035 C 
HETATM    3  C5  UNL     1      13.837  16.083  14.048  1.00  0.00    -0.012 C 
HETATM    4  C6  UNL     1      12.717  15.107  14.264  1.00  0.00     0.009 C 
HETATM    5  C7  UNL     1      12.038  15.457  15.566  1.00  0.00    -0.012 C 
HETATM    6  C8  UNL     1      11.405  16.834  15.462  1.00  0.00     0.009 C 
HETATM    7  C9  UNL     1      12.497  17.837  15.159  1.00  0.00    -0.012 C 
HETATM    8  C10 UNL     1      13.237  17.475  13.899  1.00  0.00     0.009 C 
HETATM    9  C11 UNL     1      13.497  17.821  16.293  1.00  0.00     0.035 C 
HETATM   10  C12 UNL     1      12.994  15.469  16.716  1.00  0.00     0.035 C 
ENDROOT
BRANCH   1  11
HETATM   11  N3  UNL     1      14.980  16.448  17.584  1.00  0.00    -0.387 N 
ATOM     12  H3  UNL     1      15.611  15.661  17.739  1.00  0.00     0.159 HD
BRANCH  11  13
HETATM   13  C2  UNL     1      14.957  17.517  18.484  1.00  0.00     0.128 C 
BRANCH  13  14
HETATM   14  C1  UNL     1      14.686  17.004  19.853  1.00  0.00     0.125 C 
HETATM   15  N1  UNL     1      15.634  16.810  20.703  1.00  0.00    -0.387 N 
ATOM     16  H12 UNL     1      15.449  16.459  21.642  1.00  0.00     0.157 HD
ATOM     17  H11 UNL     1      16.596  17.013  20.429  1.00  0.00     0.157 HD
HETATM   18  N2  UNL     1      13.349  16.723  20.234  1.00  0.00    -0.082 NA
ENDBRANCH  13  14
ENDBRANCH  11  13
ENDBRANCH   1  11
TORSDOF 3
ENDMDL
