MODEL 1
REMARK VINA RESULT: -6.109929209      0.000      0.000
REMARK  4 active torsions:
REMARK  status: ('A' for Active; 'I' for Inactive)
REMARK    1  A    between atoms: C1_2  and  C2_4 
REMARK    2  A    between atoms: C4_6  and  O2_7 
REMARK    3  A    between atoms: C5_9  and  N2_10 
REMARK    4  A    between atoms: N2_10  and  C6_12 
ROOT
HETATM    1  C2  UNL     1      13.313  15.570  16.423  1.00  0.00     0.079 C 
HETATM    2  C3  UNL     1      12.717  14.609  17.404  1.00  0.00     0.047 C 
HETATM    3  C4  UNL     1      13.903  14.285  18.368  1.00  0.00     0.141 C 
HETATM    4  C5  UNL     1      14.507  15.613  18.467  1.00  0.00     0.106 C 
HETATM    5  C11 UNL     1      14.652  15.967  16.950  1.00  0.00     0.041 C 
ENDROOT
BRANCH   4   6
HETATM    6  N2  UNL     1      15.745  15.876  19.021  1.00  0.00    -0.410 N 
ATOM      7  H2  UNL     1      16.424  15.115  19.012  1.00  0.00     0.154 HD
BRANCH   6   8
HETATM    8  C6  UNL     1      16.156  17.070  19.584  1.00  0.00     0.077 C 
HETATM    9  C7  UNL     1      16.310  17.098  21.089  1.00  0.00     0.024 C 
HETATM   10  C8  UNL     1      17.839  16.998  21.311  1.00  0.00     0.002 C 
HETATM   11  C9  UNL     1      18.334  17.902  20.226  1.00  0.00     0.002 C 
HETATM   12  C10 UNL     1      17.507  17.471  19.036  1.00  0.00     0.024 C 
ENDBRANCH   6   8
ENDBRANCH   4   6
BRANCH   3  13
HETATM   13  O2  UNL     1      13.239  13.827  19.514  1.00  0.00    -0.394 OA
ATOM     14  H2  UNL     1      12.335  14.049  19.327  1.00  0.00     0.210 HD
ENDBRANCH   3  13
BRANCH   1  15
HETATM   15  C1  UNL     1      12.513  16.815  16.255  1.00  0.00     0.235 C 
HETATM   16  N1  UNL     1      13.138  18.087  16.229  1.00  0.00    -0.062 NA
HETATM   17  O1  UNL     1      11.251  16.746  16.135  1.00  0.00    -0.277 OA
ENDBRANCH   1  15
TORSDOF 4
ENDMDL
MODEL 2
REMARK VINA RESULT: -6.084657930      1.791      2.208
REMARK  4 active torsions:
REMARK  status: ('A' for Active; 'I' for Inactive)
REMARK    1  A    between atoms: C1_2  and  C2_4 
REMARK    2  A    between atoms: C4_6  and  O2_7 
REMARK    3  A    between atoms: C5_9  and  N2_10 
REMARK    4  A    between atoms: N2_10  and  C6_12 
ROOT
HETATM    1  C2  UNL     1      12.730  16.376  14.446  1.00  0.00     0.079 C 
HETATM    2  C3  UNL     1      11.868  15.856  15.555  1.00  0.00     0.047 C 
HETATM    3  C4  UNL     1      12.895  15.478  16.671  1.00  0.00     0.141 C 
HETATM    4  C5  UNL     1      13.829  16.594  16.532  1.00  0.00     0.106 C 
HETATM    5  C11 UNL     1      14.110  16.533  14.994  1.00  0.00     0.041 C 
ENDROOT
BRANCH   4   6
HETATM    6  N2  UNL     1      15.076  16.657  17.125  1.00  0.00    -0.410 N 
ATOM      7  H2  UNL     1      15.785  16.015  16.773  1.00  0.00     0.154 HD
BRANCH   6   8
HETATM    8  C6  UNL     1      15.456  17.505  18.149  1.00  0.00     0.077 C 
HETATM    9  C7  UNL     1      14.790  17.296  19.491  1.00  0.00     0.024 C 
HETATM   10  C8  UNL     1      15.860  16.553  20.329  1.00  0.00     0.002 C 
HETATM   11  C9  UNL     1      17.095  17.290  19.915  1.00  0.00     0.002 C 
HETATM   12  C10 UNL     1      16.939  17.375  18.413  1.00  0.00     0.024 C 
ENDBRANCH   6   8
ENDBRANCH   4   6
BRANCH   3  13
HETATM   13  O2  UNL     1      12.098  15.486  17.824  1.00  0.00    -0.394 OA
ATOM     14  H2  UNL     1      12.075  16.409  18.048  1.00  0.00     0.210 HD
ENDBRANCH   3  13
BRANCH   1  15
HETATM   15  C1  UNL     1      12.298  17.708  13.938  1.00  0.00     0.235 C 
HETATM   16  N1  UNL     1      13.248  18.675  13.523  1.00  0.00    -0.062 NA
HETATM   17  O1  UNL     1      11.063  17.991  13.873  1.00  0.00    -0.277 OA
ENDBRANCH   1  15
TORSDOF 4
ENDMDL
MODEL 3
REMARK VINA RESULT: -6.073906074      1.955      2.536
REMARK  4 active torsions:
REMARK  status: ('A' for Active; 'I' for Inactive)
REMARK    1  A    between atoms: C1_2  and  C2_4 
REMARK    2  A    between atoms: C4_6  and  O2_7 
REMARK    3  A    between atoms: C5_9  and  N2_10 
REMARK    4  A    between atoms: N2_10  and  C6_12 
ROOT
HETATM    1  C2  UNL     1      11.900  17.504  14.824  1.00  0.00     0.079 C 
HETATM    2  C3  UNL     1      11.594  16.059  15.065  1.00  0.00     0.047 C 
HETATM    3  C4  UNL     1      12.960  15.469  15.543  1.00  0.00     0.141 C 
HETATM    4  C5  UNL     1      13.425  16.575  16.378  1.00  0.00     0.106 C 
HETATM    5  C11 UNL     1      13.260  17.768  15.379  1.00  0.00     0.041 C 
ENDROOT
BRANCH   4   6
HETATM    6  N2  UNL     1      14.706  16.698  16.881  1.00  0.00    -0.410 N 
ATOM      7  H2  UNL     1      15.427  16.120  16.450  1.00  0.00     0.154 HD
BRANCH   6   8
HETATM    8  C6  UNL     1      15.108  17.529  17.911  1.00  0.00     0.077 C 
HETATM    9  C7  UNL     1      14.573  17.214  19.291  1.00  0.00     0.024 C 
HETATM   10  C8  UNL     1      15.760  16.520  20.003  1.00  0.00     0.002 C 
HETATM   11  C9  UNL     1      16.899  17.366  19.528  1.00  0.00     0.002 C 
HETATM   12  C10 UNL     1      16.613  17.502  18.049  1.00  0.00     0.024 C 
ENDBRANCH   6   8
ENDBRANCH   4   6
BRANCH   3  13
HETATM   13  O2  UNL     1      12.563  14.311  16.225  1.00  0.00    -0.394 OA
ATOM     14  H2  UNL     1      12.457  14.626  17.115  1.00  0.00     0.210 HD
ENDBRANCH   3  13
BRANCH   1  15
HETATM   15  C1  UNL     1      10.953  18.430  15.505  1.00  0.00     0.235 C 
HETATM   16  N1  UNL     1      11.273  19.800  15.685  1.00  0.00    -0.062 NA
HETATM   17  O1  UNL     1       9.841  17.996  15.936  1.00  0.00    -0.277 OA
ENDBRANCH   1  15
TORSDOF 4
ENDMDL
MODEL 4
REMARK VINA RESULT: -6.068974805      2.308      3.374
REMARK  4 active torsions:
REMARK  status: ('A' for Active; 'I' for Inactive)
REMARK    1  A    between atoms: C1_2  and  C2_4 
REMARK    2  A    between atoms: C4_6  and  O2_7 
REMARK    3  A    between atoms: C5_9  and  N2_10 
REMARK    4  A    between atoms: N2_10  and  C6_12 
ROOT
HETATM    1  C2  UNL     1      13.024  17.733  14.586  1.00  0.00     0.079 C 
HETATM    2  C3  UNL     1      11.820  16.852  14.712  1.00  0.00     0.047 C 
HETATM    3  C4  UNL     1      12.410  15.495  15.213  1.00  0.00     0.141 C 
HETATM    4  C5  UNL     1      13.419  15.995  16.144  1.00  0.00     0.106 C 
HETATM    5  C11 UNL     1      14.167  17.015  15.223  1.00  0.00     0.041 C 
ENDROOT
BRANCH   4   6
HETATM    6  N2  UNL     1      14.415  15.226  16.716  1.00  0.00    -0.410 N 
ATOM      7  H2  UNL     1      14.985  14.667  16.081  1.00  0.00     0.154 HD
BRANCH   6   8
HETATM    8  C6  UNL     1      14.714  15.139  18.063  1.00  0.00     0.077 C 
HETATM    9  C7  UNL     1      15.738  16.115  18.599  1.00  0.00     0.024 C 
HETATM   10  C8  UNL     1      14.888  17.186  19.328  1.00  0.00     0.002 C 
HETATM   11  C9  UNL     1      13.869  16.319  19.997  1.00  0.00     0.002 C 
HETATM   12  C10 UNL     1      13.471  15.367  18.892  1.00  0.00     0.024 C 
ENDBRANCH   6   8
ENDBRANCH   4   6
BRANCH   3  13
HETATM   13  O2  UNL     1      11.292  14.880  15.793  1.00  0.00    -0.394 OA
ATOM     14  H2  UNL     1      11.676  14.124  16.221  1.00  0.00     0.210 HD
ENDBRANCH   3  13
BRANCH   1  15
HETATM   15  C1  UNL     1      12.874  19.041  15.283  1.00  0.00     0.235 C 
HETATM   16  N1  UNL     1      11.659  19.393  15.923  1.00  0.00    -0.062 NA
HETATM   17  O1  UNL     1      13.843  19.861  15.308  1.00  0.00    -0.277 OA
ENDBRANCH   1  15
TORSDOF 4
ENDMDL
MODEL 5
REMARK VINA RESULT: -6.005676010      2.315      3.117
REMARK  4 active torsions:
REMARK  status: ('A' for Active; 'I' for Inactive)
REMARK    1  A    between atoms: C1_2  and  C2_4 
REMARK    2  A    between atoms: C4_6  and  O2_7 
REMARK    3  A    between atoms: C5_9  and  N2_10 
REMARK    4  A    between atoms: N2_10  and  C6_12 
ROOT
HETATM    1  C2  UNL     1      12.567  16.992  14.455  1.00  0.00     0.079 C 
HETATM    2  C3  UNL     1      13.332  15.813  13.940  1.00  0.00     0.047 C 
HETATM    3  C4  UNL     1      14.822  16.190  14.221  1.00  0.00     0.141 C 
HETATM    4  C5  UNL     1      14.670  16.826  15.529  1.00  0.00     0.106 C 
HETATM    5  C11 UNL     1      13.528  17.847  15.212  1.00  0.00     0.041 C 
ENDROOT
BRANCH   4   6
HETATM    6  N2  UNL     1      15.650  17.564  16.165  1.00  0.00    -0.410 N 
ATOM      7  H2  UNL     1      16.466  17.821  15.609  1.00  0.00     0.154 HD
BRANCH   6   8
HETATM    8  C6  UNL     1      15.635  17.989  17.481  1.00  0.00     0.077 C 
HETATM    9  C7  UNL     1      14.690  17.271  18.419  1.00  0.00     0.024 C 
HETATM   10  C8  UNL     1      15.611  16.318  19.221  1.00  0.00     0.002 C 
HETATM   11  C9  UNL     1      16.790  17.209  19.457  1.00  0.00     0.002 C 
HETATM   12  C10 UNL     1      17.006  17.836  18.097  1.00  0.00     0.024 C 
ENDBRANCH   6   8
ENDBRANCH   4   6
BRANCH   3  13
HETATM   13  O2  UNL     1      15.453  14.939  14.217  1.00  0.00    -0.394 OA
ATOM     14  H2  UNL     1      16.287  15.131  14.628  1.00  0.00     0.210 HD
ENDBRANCH   3  13
BRANCH   1  15
HETATM   15  C1  UNL     1      11.468  16.620  15.390  1.00  0.00     0.235 C 
HETATM   16  N1  UNL     1      10.558  17.595  15.871  1.00  0.00    -0.062 NA
HETATM   17  O1  UNL     1      11.339  15.416  15.769  1.00  0.00    -0.277 OA
ENDBRANCH   1  15
TORSDOF 4
ENDMDL
