MODEL 1
REMARK VINA RESULT: -6.104195441      0.000      0.000
REMARK  6 active torsions:
REMARK  status: ('A' for Active; 'I' for Inactive)
REMARK    1  A    between atoms: C3_3  and  C4_4 
REMARK    2  A    between atoms: C4_4  and  O1_5 
REMARK    3  A    between atoms: C6_8  and  C7_9 
REMARK    4  A    between atoms: C7_9  and  O2_10 
REMARK    5  A    between atoms: C7_9  and  O3_12 
REMARK    6  A    between atoms: C8_14  and  C9_15 
ROOT
HETATM    1  C4  UNL     1      14.366  15.593  17.921  1.00  0.00     0.080 C 
HETATM    2  C5  UNL     1      13.398  15.427  19.102  1.00  0.00     0.052 C 
HETATM    3  C6  UNL     1      14.515  16.064  19.942  1.00  0.00     0.051 C 
HETATM    4  C8  UNL     1      14.920  16.786  18.668  1.00  0.00     0.036 C 
ENDROOT
BRANCH   1   5
HETATM    5  C3  UNL     1      13.612  15.887  16.706  1.00  0.00     0.007 C 
HETATM    6  C2  UNL     1      12.611  15.103  16.356  1.00  0.00    -0.032 C 
HETATM    7  C1  UNL     1      11.777  15.306  15.141  1.00  0.00     0.036 C 
ENDBRANCH   1   5
BRANCH   1   8
HETATM    8  O1  UNL     1      15.242  14.524  17.777  1.00  0.00    -0.385 OA
ATOM      9  H1  UNL     1      16.054  14.638  18.255  1.00  0.00     0.211 HD
ENDBRANCH   1   8
BRANCH   4  10
HETATM   10  C9  UNL     1      16.398  16.925  18.447  1.00  0.00    -0.015 C 
HETATM   11  C10 UNL     1      16.604  18.026  17.429  1.00  0.00     0.010 C 
HETATM   12  C11 UNL     1      17.143  17.318  19.691  1.00  0.00     0.010 C 
ENDBRANCH   4  10
BRANCH   3  13
HETATM   13  C7  UNL     1      13.931  16.935  21.010  1.00  0.00     0.258 C 
BRANCH  13  14
HETATM   14  O2  UNL     1      14.485  16.672  22.256  1.00  0.00    -0.371 OA
ATOM     15  H2  UNL     1      13.939  16.996  22.963  1.00  0.00     0.212 HD
ENDBRANCH  13  14
BRANCH  13  16
HETATM   16  O3  UNL     1      12.562  16.907  21.070  1.00  0.00    -0.371 OA
ATOM     17  H3  UNL     1      12.147  17.740  20.879  1.00  0.00     0.212 HD
ENDBRANCH  13  16
ENDBRANCH   3  13
TORSDOF 6
ENDMDL
MODEL 2
REMARK VINA RESULT: -5.706214586      2.415      3.205
REMARK  6 active torsions:
REMARK  status: ('A' for Active; 'I' for Inactive)
REMARK    1  A    between atoms: C3_3  and  C4_4 
REMARK    2  A    between atoms: C4_4  and  O1_5 
REMARK    3  A    between atoms: C6_8  and  C7_9 
REMARK    4  A    between atoms: C7_9  and  O2_10 
REMARK    5  A    between atoms: C7_9  and  O3_12 
REMARK    6  A    between atoms: C8_14  and  C9_15 
ROOT
HETATM    1  C4  UNL     1      14.728  16.621  20.381  1.00  0.00     0.080 C 
HETATM    2  C5  UNL     1      13.342  16.495  21.031  1.00  0.00     0.052 C 
HETATM    3  C6  UNL     1      14.114  16.373  22.353  1.00  0.00     0.051 C 
HETATM    4  C8  UNL     1      15.181  17.228  21.690  1.00  0.00     0.036 C 
ENDROOT
BRANCH   1   5
HETATM    5  C3  UNL     1      14.656  17.529  19.240  1.00  0.00     0.007 C 
HETATM    6  C2  UNL     1      15.392  17.291  18.172  1.00  0.00    -0.032 C 
HETATM    7  C1  UNL     1      15.399  18.147  16.956  1.00  0.00     0.036 C 
ENDBRANCH   1   5
BRANCH   1   8
HETATM    8  O1  UNL     1      15.299  15.393  20.067  1.00  0.00    -0.385 OA
ATOM      9  H1  UNL     1      15.722  14.976  20.808  1.00  0.00     0.211 HD
ENDBRANCH   1   8
BRANCH   4  10
HETATM   10  C9  UNL     1      16.598  16.847  22.003  1.00  0.00    -0.015 C 
HETATM   11  C10 UNL     1      17.499  17.672  21.108  1.00  0.00     0.010 C 
HETATM   12  C11 UNL     1      16.986  17.142  23.424  1.00  0.00     0.010 C 
ENDBRANCH   4  10
BRANCH   3  13
HETATM   13  C7  UNL     1      13.359  17.040  23.460  1.00  0.00     0.258 C 
BRANCH  13  14
HETATM   14  O2  UNL     1      13.875  16.719  24.709  1.00  0.00    -0.371 OA
ATOM     15  H2  UNL     1      14.238  17.479  25.150  1.00  0.00     0.212 HD
ENDBRANCH  13  14
BRANCH  13  16
HETATM   16  O3  UNL     1      12.005  16.826  23.424  1.00  0.00    -0.371 OA
ATOM     17  H3  UNL     1      11.660  16.388  24.193  1.00  0.00     0.212 HD
ENDBRANCH  13  16
ENDBRANCH   3  13
TORSDOF 6
ENDMDL
MODEL 3
REMARK VINA RESULT: -5.572928022      2.043      4.240
REMARK  6 active torsions:
REMARK  status: ('A' for Active; 'I' for Inactive)
REMARK    1  A    between atoms: C3_3  and  C4_4 
REMARK    2  A    between atoms: C4_4  and  O1_5 
REMARK    3  A    between atoms: C6_8  and  C7_9 
REMARK    4  A    between atoms: C7_9  and  O2_10 
REMARK    5  A    between atoms: C7_9  and  O3_12 
REMARK    6  A    between atoms: C8_14  and  C9_15 
ROOT
HETATM    1  C4  UNL     1      14.538  17.767  17.028  1.00  0.00     0.080 C 
HETATM    2  C5  UNL     1      14.652  17.312  18.491  1.00  0.00     0.052 C 
HETATM    3  C6  UNL     1      13.716  16.168  18.076  1.00  0.00     0.051 C 
HETATM    4  C8  UNL     1      14.329  16.306  16.692  1.00  0.00     0.036 C 
ENDROOT
BRANCH   1   5
HETATM    5  C3  UNL     1      15.803  18.352  16.595  1.00  0.00     0.007 C 
HETATM    6  C2  UNL     1      15.847  19.056  15.481  1.00  0.00    -0.032 C 
HETATM    7  C1  UNL     1      17.078  19.696  14.945  1.00  0.00     0.036 C 
ENDBRANCH   1   5
BRANCH   1   8
HETATM    8  O1  UNL     1      13.445  18.592  16.795  1.00  0.00    -0.385 OA
ATOM      9  H1  UNL     1      13.281  19.206  17.501  1.00  0.00     0.211 HD
ENDBRANCH   1   8
BRANCH   4  10
HETATM   10  C9  UNL     1      13.375  16.145  15.545  1.00  0.00    -0.015 C 
HETATM   11  C10 UNL     1      14.193  15.800  14.318  1.00  0.00     0.010 C 
HETATM   12  C11 UNL     1      12.388  15.032  15.754  1.00  0.00     0.010 C 
ENDBRANCH   4  10
BRANCH   3  13
HETATM   13  C7  UNL     1      14.072  14.912  18.808  1.00  0.00     0.258 C 
BRANCH  13  14
HETATM   14  O2  UNL     1      15.054  14.185  18.148  1.00  0.00    -0.371 OA
ATOM     15  H2  UNL     1      15.172  13.322  18.527  1.00  0.00     0.212 HD
ENDBRANCH  13  14
BRANCH  13  16
HETATM   16  O3  UNL     1      12.997  14.116  19.109  1.00  0.00    -0.371 OA
ATOM     17  H3  UNL     1      12.561  14.344  19.922  1.00  0.00     0.212 HD
ENDBRANCH  13  16
ENDBRANCH   3  13
TORSDOF 6
ENDMDL
MODEL 4
REMARK VINA RESULT: -5.540606750      2.708      4.213
REMARK  6 active torsions:
REMARK  status: ('A' for Active; 'I' for Inactive)
REMARK    1  A    between atoms: C3_3  and  C4_4 
REMARK    2  A    between atoms: C4_4  and  O1_5 
REMARK    3  A    between atoms: C6_8  and  C7_9 
REMARK    4  A    between atoms: C7_9  and  O2_10 
REMARK    5  A    between atoms: C7_9  and  O3_12 
REMARK    6  A    between atoms: C8_14  and  C9_15 
ROOT
HETATM    1  C4  UNL     1      15.856  16.734  19.388  1.00  0.00     0.080 C 
HETATM    2  C5  UNL     1      17.172  16.863  18.605  1.00  0.00     0.052 C 
HETATM    3  C6  UNL     1      17.679  17.632  19.834  1.00  0.00     0.051 C 
HETATM    4  C8  UNL     1      16.708  16.785  20.638  1.00  0.00     0.036 C 
ENDROOT
BRANCH   1   5
HETATM    5  C3  UNL     1      15.229  15.450  19.088  1.00  0.00     0.007 C 
HETATM    6  C2  UNL     1      13.919  15.380  18.961  1.00  0.00    -0.032 C 
HETATM    7  C1  UNL     1      13.175  14.129  18.657  1.00  0.00     0.036 C 
ENDBRANCH   1   5
BRANCH   1   8
HETATM    8  O1  UNL     1      15.003  17.816  19.207  1.00  0.00    -0.385 OA
ATOM      9  H1  UNL     1      15.459  18.621  18.994  1.00  0.00     0.211 HD
ENDBRANCH   1   8
BRANCH   4  10
HETATM   10  C9  UNL     1      15.996  17.499  21.750  1.00  0.00    -0.015 C 
HETATM   11  C10 UNL     1      14.935  16.561  22.287  1.00  0.00     0.010 C 
HETATM   12  C11 UNL     1      16.902  17.854  22.895  1.00  0.00     0.010 C 
ENDBRANCH   4  10
BRANCH   3  13
HETATM   13  C7  UNL     1      19.128  17.338  20.070  1.00  0.00     0.258 C 
BRANCH  13  14
HETATM   14  O2  UNL     1      19.330  16.624  21.244  1.00  0.00    -0.371 OA
ATOM     15  H2  UNL     1      19.348  17.190  22.007  1.00  0.00     0.212 HD
ENDBRANCH  13  14
BRANCH  13  16
HETATM   16  O3  UNL     1      19.938  18.444  20.030  1.00  0.00    -0.371 OA
ATOM     17  H3  UNL     1      20.559  18.497  20.747  1.00  0.00     0.212 HD
ENDBRANCH  13  16
ENDBRANCH   3  13
TORSDOF 6
ENDMDL
MODEL 5
REMARK VINA RESULT: -5.535501691      2.092      3.279
REMARK  6 active torsions:
REMARK  status: ('A' for Active; 'I' for Inactive)
REMARK    1  A    between atoms: C3_3  and  C4_4 
REMARK    2  A    between atoms: C4_4  and  O1_5 
REMARK    3  A    between atoms: C6_8  and  C7_9 
REMARK    4  A    between atoms: C7_9  and  O2_10 
REMARK    5  A    between atoms: C7_9  and  O3_12 
REMARK    6  A    between atoms: C8_14  and  C9_15 
ROOT
HETATM    1  C4  UNL     1      14.741  17.241  17.153  1.00  0.00     0.080 C 
HETATM    2  C5  UNL     1      16.077  17.910  17.511  1.00  0.00     0.052 C 
HETATM    3  C6  UNL     1      15.769  17.465  18.948  1.00  0.00     0.051 C 
HETATM    4  C8  UNL     1      15.004  16.313  18.318  1.00  0.00     0.036 C 
ENDROOT
BRANCH   1   5
HETATM    5  C3  UNL     1      14.829  16.647  15.823  1.00  0.00     0.007 C 
HETATM    6  C2  UNL     1      13.762  16.085  15.290  1.00  0.00    -0.032 C 
HETATM    7  C1  UNL     1      13.737  15.449  13.945  1.00  0.00     0.036 C 
ENDBRANCH   1   5
BRANCH   1   8
HETATM    8  O1  UNL     1      13.649  18.088  17.303  1.00  0.00    -0.385 OA
ATOM      9  H1  UNL     1      13.001  17.990  16.615  1.00  0.00     0.211 HD
ENDBRANCH   1   8
BRANCH   4  10
HETATM   10  C9  UNL     1      13.726  15.934  19.008  1.00  0.00    -0.015 C 
HETATM   11  C10 UNL     1      13.594  14.427  18.922  1.00  0.00     0.010 C 
HETATM   12  C11 UNL     1      13.713  16.303  20.464  1.00  0.00     0.010 C 
ENDBRANCH   4  10
BRANCH   3  13
HETATM   13  C7  UNL     1      17.031  17.081  19.656  1.00  0.00     0.258 C 
BRANCH  13  14
HETATM   14  O2  UNL     1      16.847  16.980  21.029  1.00  0.00    -0.371 OA
ATOM     15  H2  UNL     1      17.425  16.335  21.419  1.00  0.00     0.212 HD
ENDBRANCH  13  14
BRANCH  13  16
HETATM   16  O3  UNL     1      18.103  17.885  19.366  1.00  0.00    -0.371 OA
ATOM     17  H3  UNL     1      17.868  18.723  18.985  1.00  0.00     0.212 HD
ENDBRANCH  13  16
ENDBRANCH   3  13
TORSDOF 6
ENDMDL
