MODEL 1
REMARK VINA RESULT: -7.426489833      0.000      0.000
REMARK  5 active torsions:
REMARK  status: ('A' for Active; 'I' for Inactive)
REMARK    1  A    between atoms: C2_2  and  O1_3 
REMARK    2  A    between atoms: C4_6  and  N1_7 
REMARK       I    between atoms: N1_7  and  C5_9 
REMARK       I    between atoms: C5_9  and  N4_15 
REMARK    3  A    between atoms: N2_10  and  N3_12 
REMARK    4  A    between atoms: N4_15  and  S1_17 
REMARK    5  A    between atoms: S1_17  and  N5_18 
ROOT
HETATM    1  N1  UNL     1      57.587  15.948  42.356  1.00  0.00    -0.219 N 
ATOM      2  H1  UNL     1      57.617  14.929  42.376  1.00  0.00     0.178 HD
HETATM    3  C5  UNL     1      58.006  16.652  43.522  1.00  0.00     0.703 C 
HETATM    4  N2  UNL     1      57.584  16.292  44.711  1.00  0.00    -0.138 N 
ATOM      5  H2  UNL     1      57.884  16.795  45.546  1.00  0.00     0.205 HD
HETATM    6  N4  UNL     1      58.882  17.757  43.486  1.00  0.00    -0.099 N 
ATOM      7  H4  UNL     1      58.662  18.562  42.899  1.00  0.00     0.199 HD
ENDROOT
BRANCH   1   8
HETATM    8  C4  UNL     1      57.126  16.585  41.153  1.00  0.00     0.113 C 
HETATM    9  C3  UNL     1      56.886  15.652  39.981  1.00  0.00     0.064 C 
HETATM   10  C2  UNL     1      55.566  16.386  39.762  1.00  0.00     0.065 C 
HETATM   11  C1  UNL     1      54.417  15.491  39.388  1.00  0.00     0.047 C 
HETATM   12  C6  UNL     1      55.629  16.809  41.194  1.00  0.00     0.004 C 
HETATM   13  C7  UNL     1      55.273  18.238  41.486  1.00  0.00     0.020 C 
HETATM   14  C8  UNL     1      54.904  15.859  42.129  1.00  0.00     0.020 C 
BRANCH  10  15
HETATM   15  O1  UNL     1      55.676  17.432  38.832  1.00  0.00    -0.389 OA
ATOM     16  H1  UNL     1      56.549  17.805  38.871  1.00  0.00     0.210 HD
ENDBRANCH  10  15
ENDBRANCH   1   8
BRANCH   4  17
HETATM   17  N3  UNL     1      56.716  15.203  44.804  1.00  0.00    -0.331 N 
ATOM     18  H32 UNL     1      56.257  14.845  43.966  1.00  0.00     0.177 HD
ATOM     19  H31 UNL     1      56.558  14.786  45.722  1.00  0.00     0.177 HD
ENDBRANCH   4  17
BRANCH   6  20
HETATM   20  S1  UNL     1      60.313  17.749  44.424  1.00  0.00     0.330 S 
HETATM   21  O2  UNL     1      61.375  16.862  43.882  1.00  0.00    -0.182 OA
HETATM   22  O3  UNL     1      60.054  17.337  45.850  1.00  0.00    -0.182 OA
BRANCH  20  23
HETATM   23  N5  UNL     1      60.957  19.366  44.499  1.00  0.00    -0.311 N 
ATOM     24  H52 UNL     1      60.533  20.180  44.054  1.00  0.00     0.170 HD
ATOM     25  H51 UNL     1      61.814  19.361  45.053  1.00  0.00     0.170 HD
ENDBRANCH  20  23
ENDBRANCH   6  20
TORSDOF 5
ENDMDL
MODEL 2
REMARK VINA RESULT: -7.035898141      0.906      1.076
REMARK  5 active torsions:
REMARK  status: ('A' for Active; 'I' for Inactive)
REMARK    1  A    between atoms: C2_2  and  O1_3 
REMARK    2  A    between atoms: C4_6  and  N1_7 
REMARK       I    between atoms: N1_7  and  C5_9 
REMARK       I    between atoms: C5_9  and  N4_15 
REMARK    3  A    between atoms: N2_10  and  N3_12 
REMARK    4  A    between atoms: N4_15  and  S1_17 
REMARK    5  A    between atoms: S1_17  and  N5_18 
ROOT
HETATM    1  N1  UNL     1      57.682  16.036  42.520  1.00  0.00    -0.219 N 
ATOM      2  H1  UNL     1      57.681  15.020  42.608  1.00  0.00     0.178 HD
HETATM    3  C5  UNL     1      58.165  16.801  43.622  1.00  0.00     0.703 C 
HETATM    4  N2  UNL     1      57.777  16.534  44.846  1.00  0.00    -0.138 N 
ATOM      5  H2  UNL     1      58.122  17.081  45.635  1.00  0.00     0.205 HD
HETATM    6  N4  UNL     1      59.072  17.872  43.481  1.00  0.00    -0.099 N 
ATOM      7  H4  UNL     1      58.855  18.643  42.850  1.00  0.00     0.199 HD
ENDROOT
BRANCH   1   8
HETATM    8  C4  UNL     1      57.196  16.608  41.294  1.00  0.00     0.113 C 
HETATM    9  C3  UNL     1      57.014  15.626  40.154  1.00  0.00     0.064 C 
HETATM   10  C2  UNL     1      55.659  16.281  39.903  1.00  0.00     0.065 C 
HETATM   11  C1  UNL     1      54.561  15.314  39.552  1.00  0.00     0.047 C 
HETATM   12  C6  UNL     1      55.690  16.753  41.320  1.00  0.00     0.004 C 
HETATM   13  C7  UNL     1      55.256  18.171  41.562  1.00  0.00     0.020 C 
HETATM   14  C8  UNL     1      55.008  15.798  42.282  1.00  0.00     0.020 C 
BRANCH  10  15
HETATM   15  O1  UNL     1      55.720  17.299  38.939  1.00  0.00    -0.389 OA
ATOM     16  H1  UNL     1      56.620  17.582  38.827  1.00  0.00     0.210 HD
ENDBRANCH  10  15
ENDBRANCH   1   8
BRANCH   4  17
HETATM   17  N3  UNL     1      56.879  15.483  45.042  1.00  0.00    -0.331 N 
ATOM     18  H32 UNL     1      55.920  15.564  44.706  1.00  0.00     0.177 HD
ATOM     19  H31 UNL     1      57.210  14.647  45.524  1.00  0.00     0.177 HD
ENDBRANCH   4  17
BRANCH   6  20
HETATM   20  S1  UNL     1      60.536  17.879  44.367  1.00  0.00     0.330 S 
HETATM   21  O2  UNL     1      61.208  19.204  44.398  1.00  0.00    -0.182 OA
HETATM   22  O3  UNL     1      61.527  16.875  43.833  1.00  0.00    -0.182 OA
BRANCH  20  23
HETATM   23  N5  UNL     1      60.212  17.408  46.012  1.00  0.00    -0.311 N 
ATOM     24  H52 UNL     1      59.288  17.184  46.379  1.00  0.00     0.170 HD
ATOM     25  H51 UNL     1      61.088  17.394  46.536  1.00  0.00     0.170 HD
ENDBRANCH  20  23
ENDBRANCH   6  20
TORSDOF 5
ENDMDL
MODEL 3
REMARK VINA RESULT: -6.908604978      1.016      1.016
REMARK  5 active torsions:
REMARK  status: ('A' for Active; 'I' for Inactive)
REMARK    1  A    between atoms: C2_2  and  O1_3 
REMARK    2  A    between atoms: C4_6  and  N1_7 
REMARK       I    between atoms: N1_7  and  C5_9 
REMARK       I    between atoms: C5_9  and  N4_15 
REMARK    3  A    between atoms: N2_10  and  N3_12 
REMARK    4  A    between atoms: N4_15  and  S1_17 
REMARK    5  A    between atoms: S1_17  and  N5_18 
ROOT
HETATM    1  N1  UNL     1      57.608  16.108  41.759  1.00  0.00    -0.219 N 
ATOM      2  H1  UNL     1      58.005  15.169  41.725  1.00  0.00     0.178 HD
HETATM    3  C5  UNL     1      57.860  16.898  42.919  1.00  0.00     0.703 C 
HETATM    4  N2  UNL     1      57.719  16.391  44.120  1.00  0.00    -0.138 N 
ATOM      5  H2  UNL     1      57.899  16.955  44.951  1.00  0.00     0.205 HD
HETATM    6  N4  UNL     1      58.270  18.246  42.862  1.00  0.00    -0.099 N 
ATOM      7  H4  UNL     1      57.717  18.925  42.339  1.00  0.00     0.199 HD
ENDROOT
BRANCH   1   8
HETATM    8  C4  UNL     1      56.830  16.552  40.636  1.00  0.00     0.113 C 
HETATM    9  C3  UNL     1      56.568  15.498  39.578  1.00  0.00     0.064 C 
HETATM   10  C2  UNL     1      55.115  15.967  39.577  1.00  0.00     0.065 C 
HETATM   11  C1  UNL     1      54.107  14.855  39.470  1.00  0.00     0.047 C 
HETATM   12  C6  UNL     1      55.350  16.511  40.948  1.00  0.00     0.004 C 
HETATM   13  C7  UNL     1      54.787  17.874  41.232  1.00  0.00     0.020 C 
HETATM   14  C8  UNL     1      54.993  15.528  42.048  1.00  0.00     0.020 C 
BRANCH  10  15
HETATM   15  O1  UNL     1      54.860  16.935  38.593  1.00  0.00    -0.389 OA
ATOM     16  H1  UNL     1      55.006  17.803  38.951  1.00  0.00     0.210 HD
ENDBRANCH  10  15
ENDBRANCH   1   8
BRANCH   4  17
HETATM   17  N3  UNL     1      57.315  15.059  44.234  1.00  0.00    -0.331 N 
ATOM     18  H32 UNL     1      56.422  14.763  43.840  1.00  0.00     0.177 HD
ATOM     19  H31 UNL     1      57.932  14.405  44.716  1.00  0.00     0.177 HD
ENDBRANCH   4  17
BRANCH   6  20
HETATM   20  S1  UNL     1      59.695  18.745  43.669  1.00  0.00     0.330 S 
HETATM   21  O2  UNL     1      60.732  17.684  43.757  1.00  0.00    -0.182 OA
HETATM   22  O3  UNL     1      59.414  19.229  45.068  1.00  0.00    -0.182 OA
BRANCH  20  23
HETATM   23  N5  UNL     1      60.389  20.099  42.820  1.00  0.00    -0.311 N 
ATOM     24  H52 UNL     1      59.862  20.751  42.241  1.00  0.00     0.170 HD
ATOM     25  H51 UNL     1      61.393  20.127  42.999  1.00  0.00     0.170 HD
ENDBRANCH  20  23
ENDBRANCH   6  20
TORSDOF 5
ENDMDL
MODEL 4
REMARK VINA RESULT: -6.854473059      1.854      2.776
REMARK  5 active torsions:
REMARK  status: ('A' for Active; 'I' for Inactive)
REMARK    1  A    between atoms: C2_2  and  O1_3 
REMARK    2  A    between atoms: C4_6  and  N1_7 
REMARK       I    between atoms: N1_7  and  C5_9 
REMARK       I    between atoms: C5_9  and  N4_15 
REMARK    3  A    between atoms: N2_10  and  N3_12 
REMARK    4  A    between atoms: N4_15  and  S1_17 
REMARK    5  A    between atoms: S1_17  and  N5_18 
ROOT
HETATM    1  N1  UNL     1      57.331  18.351  41.711  1.00  0.00    -0.219 N 
ATOM      2  H1  UNL     1      57.110  19.346  41.748  1.00  0.00     0.178 HD
HETATM    3  C5  UNL     1      58.039  17.782  42.810  1.00  0.00     0.703 C 
HETATM    4  N2  UNL     1      59.096  18.379  43.308  1.00  0.00    -0.138 N 
ATOM      5  H2  UNL     1      59.603  17.972  44.095  1.00  0.00     0.205 HD
HETATM    6  N4  UNL     1      57.666  16.570  43.426  1.00  0.00    -0.099 N 
ATOM      7  H4  UNL     1      57.561  15.725  42.865  1.00  0.00     0.199 HD
ENDROOT
BRANCH   1   8
HETATM    8  C4  UNL     1      56.909  17.610  40.555  1.00  0.00     0.113 C 
HETATM    9  C3  UNL     1      57.136  16.112  40.632  1.00  0.00     0.064 C 
HETATM   10  C2  UNL     1      55.715  15.945  40.099  1.00  0.00     0.065 C 
HETATM   11  C1  UNL     1      54.942  14.826  40.743  1.00  0.00     0.047 C 
HETATM   12  C6  UNL     1      55.424  17.320  40.605  1.00  0.00     0.004 C 
HETATM   13  C7  UNL     1      54.636  18.215  39.692  1.00  0.00     0.020 C 
HETATM   14  C8  UNL     1      54.855  17.330  42.011  1.00  0.00     0.020 C 
BRANCH  10  15
HETATM   15  O1  UNL     1      55.674  15.807  38.703  1.00  0.00    -0.389 OA
ATOM     16  H1  UNL     1      55.324  16.599  38.312  1.00  0.00     0.210 HD
ENDBRANCH  10  15
ENDBRANCH   1   8
BRANCH   4  17
HETATM   17  N3  UNL     1      59.509  19.584  42.736  1.00  0.00    -0.331 N 
ATOM     18  H32 UNL     1      60.256  19.586  42.041  1.00  0.00     0.177 HD
ATOM     19  H31 UNL     1      59.046  20.443  43.031  1.00  0.00     0.177 HD
ENDBRANCH   4  17
BRANCH   6  20
HETATM   20  S1  UNL     1      57.387  16.515  45.114  1.00  0.00     0.330 S 
HETATM   21  O2  UNL     1      58.523  17.029  45.922  1.00  0.00    -0.182 OA
HETATM   22  O3  UNL     1      57.078  15.119  45.592  1.00  0.00    -0.182 OA
BRANCH  20  23
HETATM   23  N5  UNL     1      55.985  17.477  45.495  1.00  0.00    -0.311 N 
ATOM     24  H52 UNL     1      55.747  18.358  45.040  1.00  0.00     0.170 HD
ATOM     25  H51 UNL     1      55.455  17.018  46.235  1.00  0.00     0.170 HD
ENDBRANCH  20  23
ENDBRANCH   6  20
TORSDOF 5
ENDMDL
MODEL 5
REMARK VINA RESULT: -6.815394648      1.742      2.903
REMARK  5 active torsions:
REMARK  status: ('A' for Active; 'I' for Inactive)
REMARK    1  A    between atoms: C2_2  and  O1_3 
REMARK    2  A    between atoms: C4_6  and  N1_7 
REMARK       I    between atoms: N1_7  and  C5_9 
REMARK       I    between atoms: C5_9  and  N4_15 
REMARK    3  A    between atoms: N2_10  and  N3_12 
REMARK    4  A    between atoms: N4_15  and  S1_17 
REMARK    5  A    between atoms: S1_17  and  N5_18 
ROOT
HETATM    1  N1  UNL     1      57.497  18.304  41.750  1.00  0.00    -0.219 N 
ATOM      2  H1  UNL     1      57.221  19.275  41.608  1.00  0.00     0.178 HD
HETATM    3  C5  UNL     1      58.259  17.988  42.912  1.00  0.00     0.703 C 
HETATM    4  N2  UNL     1      59.290  18.721  43.258  1.00  0.00    -0.138 N 
ATOM      5  H2  UNL     1      59.836  18.496  44.090  1.00  0.00     0.205 HD
HETATM    6  N4  UNL     1      57.968  16.895  43.754  1.00  0.00    -0.099 N 
ATOM      7  H4  UNL     1      57.900  15.955  43.364  1.00  0.00     0.199 HD
ENDROOT
BRANCH   1   8
HETATM    8  C4  UNL     1      57.093  17.338  40.765  1.00  0.00     0.113 C 
HETATM    9  C3  UNL     1      57.338  15.891  41.145  1.00  0.00     0.064 C 
HETATM   10  C2  UNL     1      55.924  15.599  40.649  1.00  0.00     0.065 C 
HETATM   11  C1  UNL     1      55.160  14.623  41.502  1.00  0.00     0.047 C 
HETATM   12  C6  UNL     1      55.612  17.044  40.865  1.00  0.00     0.004 C 
HETATM   13  C7  UNL     1      54.819  17.725  39.787  1.00  0.00     0.020 C 
HETATM   14  C8  UNL     1      55.032  17.330  42.238  1.00  0.00     0.020 C 
BRANCH  10  15
HETATM   15  O1  UNL     1      55.895  15.182  39.310  1.00  0.00    -0.389 OA
ATOM     16  H1  UNL     1      55.134  14.633  39.160  1.00  0.00     0.210 HD
ENDBRANCH  10  15
ENDBRANCH   1   8
BRANCH   4  17
HETATM   17  N3  UNL     1      59.622  19.818  42.459  1.00  0.00    -0.331 N 
ATOM     18  H32 UNL     1      58.885  20.358  42.006  1.00  0.00     0.177 HD
ATOM     19  H31 UNL     1      60.608  20.053  42.346  1.00  0.00     0.177 HD
ENDBRANCH   4  17
BRANCH   6  20
HETATM   20  S1  UNL     1      57.729  17.143  45.431  1.00  0.00     0.330 S 
HETATM   21  O2  UNL     1      56.984  18.389  45.749  1.00  0.00    -0.182 OA
HETATM   22  O3  UNL     1      59.031  17.180  46.190  1.00  0.00    -0.182 OA
BRANCH  20  23
HETATM   23  N5  UNL     1      56.828  15.803  46.085  1.00  0.00    -0.311 N 
ATOM     24  H52 UNL     1      56.776  15.569  47.076  1.00  0.00     0.170 HD
ATOM     25  H51 UNL     1      56.370  15.303  45.323  1.00  0.00     0.170 HD
ENDBRANCH  20  23
ENDBRANCH   6  20
TORSDOF 5
ENDMDL
