MODEL 1
REMARK VINA RESULT: -8.699716509      0.000      0.000
REMARK  5 active torsions:
REMARK  status: ('A' for Active; 'I' for Inactive)
REMARK    1  A    between atoms: C4_4  and  O1_5 
REMARK    2  A    between atoms: O1_5  and  C5_6 
REMARK    3  A    between atoms: C5_6  and  C6_7 
REMARK    4  A    between atoms: C6_7  and  C7_8 
REMARK    5  A    between atoms: C7_8  and  C8_9 
ROOT
HETATM    1  C8  UNL     1      25.157  31.699   7.262  1.00  0.00    -0.029 A 
HETATM    2  C9  UNL     1      25.584  31.999   8.565  1.00  0.00     0.096 A 
HETATM    3  N1  UNL     1      24.851  33.011   9.034  1.00  0.00    -0.365 N 
ATOM      4  H1  UNL     1      24.956  33.425   9.961  1.00  0.00     0.165 HD
HETATM    5  C10 UNL     1      23.956  33.407   8.115  1.00  0.00     0.043 A 
HETATM    6  C11 UNL     1      23.009  34.388   8.139  1.00  0.00     0.031 A 
HETATM    7  C12 UNL     1      22.212  34.589   7.052  1.00  0.00     0.014 A 
HETATM    8  C13 UNL     1      22.361  33.808   5.939  1.00  0.00    -0.025 A 
HETATM    9  C14 UNL     1      21.566  33.997   4.833  1.00  0.00     0.012 A 
HETATM   10  C15 UNL     1      21.725  33.207   3.721  1.00  0.00     0.001 A 
HETATM   11  C16 UNL     1      22.668  32.210   3.660  1.00  0.00     0.001 A 
HETATM   12  C17 UNL     1      23.481  32.020   4.795  1.00  0.00     0.013 A 
HETATM   13  C18 UNL     1      23.322  32.808   5.906  1.00  0.00    -0.013 A 
HETATM   14  C19 UNL     1      24.158  32.572   7.000  1.00  0.00     0.009 A 
ENDROOT
BRANCH   1  15
HETATM   15  C7  UNL     1      25.745  30.653   6.472  1.00  0.00     0.043 C 
BRANCH  15  16
HETATM   16  C6  UNL     1      25.575  29.268   7.135  1.00  0.00     0.031 C 
BRANCH  16  17
HETATM   17  C5  UNL     1      24.242  28.667   6.662  1.00  0.00     0.176 C 
BRANCH  17  18
HETATM   18  O1  UNL     1      23.301  28.872   7.663  1.00  0.00    -0.351 OA
BRANCH  18  19
HETATM   19  C4  UNL     1      22.124  29.569   7.329  1.00  0.00     0.068 A 
HETATM   20  C3  UNL     1      21.447  29.331   6.153  1.00  0.00     0.037 A 
HETATM   21  C2  UNL     1      20.293  30.004   5.806  1.00  0.00     0.003 A 
HETATM   22  C1  UNL     1      19.777  30.957   6.656  1.00  0.00     0.000 A 
HETATM   23  C21 UNL     1      20.448  31.202   7.834  1.00  0.00     0.003 A 
HETATM   24  C20 UNL     1      21.605  30.525   8.178  1.00  0.00     0.037 A 
ENDBRANCH  18  19
ENDBRANCH  17  18
ENDBRANCH  16  17
ENDBRANCH  15  16
ENDBRANCH   1  15
TORSDOF 5
ENDMDL
MODEL 2
REMARK VINA RESULT: -8.487078838      1.500      2.801
REMARK  5 active torsions:
REMARK  status: ('A' for Active; 'I' for Inactive)
REMARK    1  A    between atoms: C4_4  and  O1_5 
REMARK    2  A    between atoms: O1_5  and  C5_6 
REMARK    3  A    between atoms: C5_6  and  C6_7 
REMARK    4  A    between atoms: C6_7  and  C7_8 
REMARK    5  A    between atoms: C7_8  and  C8_9 
ROOT
HETATM    1  C8  UNL     1      25.527  30.764   5.958  1.00  0.00    -0.029 A 
HETATM    2  C9  UNL     1      25.723  30.364   4.627  1.00  0.00     0.096 A 
HETATM    3  N1  UNL     1      24.992  31.147   3.831  1.00  0.00    -0.365 N 
ATOM      4  H1  UNL     1      24.954  31.069   2.814  1.00  0.00     0.165 HD
HETATM    5  C10 UNL     1      24.314  32.050   4.557  1.00  0.00     0.043 A 
HETATM    6  C11 UNL     1      23.452  33.042   4.190  1.00  0.00     0.031 A 
HETATM    7  C12 UNL     1      22.888  33.837   5.142  1.00  0.00     0.014 A 
HETATM    8  C13 UNL     1      23.186  33.642   6.462  1.00  0.00    -0.025 A 
HETATM    9  C14 UNL     1      22.626  34.434   7.437  1.00  0.00     0.012 A 
HETATM   10  C15 UNL     1      22.931  34.229   8.760  1.00  0.00     0.001 A 
HETATM   11  C16 UNL     1      23.794  33.240   9.166  1.00  0.00     0.001 A 
HETATM   12  C17 UNL     1      24.366  32.430   8.165  1.00  0.00     0.013 A 
HETATM   13  C18 UNL     1      24.061  32.635   6.845  1.00  0.00    -0.013 A 
HETATM   14  C19 UNL     1      24.659  31.799   5.898  1.00  0.00     0.009 A 
ENDROOT
BRANCH   1  15
HETATM   15  C7  UNL     1      26.174  30.121   7.067  1.00  0.00     0.043 C 
BRANCH  15  16
HETATM   16  C6  UNL     1      25.731  28.648   7.216  1.00  0.00     0.031 C 
BRANCH  16  17
HETATM   17  C5  UNL     1      24.451  28.613   8.066  1.00  0.00     0.176 C 
BRANCH  17  18
HETATM   18  O1  UNL     1      23.377  28.395   7.214  1.00  0.00    -0.351 OA
BRANCH  18  19
HETATM   19  C4  UNL     1      22.348  29.357   7.191  1.00  0.00     0.068 A 
HETATM   20  C3  UNL     1      21.789  29.796   6.011  1.00  0.00     0.037 A 
HETATM   21  C2  UNL     1      20.781  30.738   5.967  1.00  0.00     0.003 A 
HETATM   22  C1  UNL     1      20.298  31.276   7.139  1.00  0.00     0.000 A 
HETATM   23  C21 UNL     1      20.852  30.843   8.324  1.00  0.00     0.003 A 
HETATM   24  C20 UNL     1      21.862  29.898   8.364  1.00  0.00     0.037 A 
ENDBRANCH  18  19
ENDBRANCH  17  18
ENDBRANCH  16  17
ENDBRANCH  15  16
ENDBRANCH   1  15
TORSDOF 5
ENDMDL
MODEL 3
REMARK VINA RESULT: -8.359717806      1.473      3.729
REMARK  5 active torsions:
REMARK  status: ('A' for Active; 'I' for Inactive)
REMARK    1  A    between atoms: C4_4  and  O1_5 
REMARK    2  A    between atoms: O1_5  and  C5_6 
REMARK    3  A    between atoms: C5_6  and  C6_7 
REMARK    4  A    between atoms: C6_7  and  C7_8 
REMARK    5  A    between atoms: C7_8  and  C8_9 
ROOT
HETATM    1  C8  UNL     1      22.979  33.960   5.954  1.00  0.00    -0.029 A 
HETATM    2  C9  UNL     1      22.417  34.815   6.914  1.00  0.00     0.096 A 
HETATM    3  N1  UNL     1      22.934  34.520   8.109  1.00  0.00    -0.365 N 
ATOM      4  H1  UNL     1      22.695  34.993   8.980  1.00  0.00     0.165 HD
HETATM    5  C10 UNL     1      23.812  33.510   8.001  1.00  0.00     0.043 A 
HETATM    6  C11 UNL     1      24.578  32.874   8.934  1.00  0.00     0.031 A 
HETATM    7  C12 UNL     1      25.405  31.859   8.557  1.00  0.00     0.014 A 
HETATM    8  C13 UNL     1      25.468  31.479   7.244  1.00  0.00    -0.025 A 
HETATM    9  C14 UNL     1      26.296  30.456   6.845  1.00  0.00     0.012 A 
HETATM   10  C15 UNL     1      26.352  30.082   5.525  1.00  0.00     0.001 A 
HETATM   11  C16 UNL     1      25.595  30.700   4.558  1.00  0.00     0.001 A 
HETATM   12  C17 UNL     1      24.748  31.746   4.971  1.00  0.00     0.013 A 
HETATM   13  C18 UNL     1      24.693  32.120   6.288  1.00  0.00    -0.013 A 
HETATM   14  C19 UNL     1      23.833  33.164   6.637  1.00  0.00     0.009 A 
ENDROOT
BRANCH   1  15
HETATM   15  C7  UNL     1      22.632  34.018   4.561  1.00  0.00     0.043 C 
BRANCH  15  16
HETATM   16  C6  UNL     1      21.153  33.641   4.322  1.00  0.00     0.031 C 
BRANCH  16  17
HETATM   17  C5  UNL     1      21.079  32.130   4.047  1.00  0.00     0.176 C 
BRANCH  17  18
HETATM   18  O1  UNL     1      20.293  31.553   5.035  1.00  0.00    -0.351 OA
BRANCH  18  19
HETATM   19  C4  UNL     1      20.946  30.917   6.109  1.00  0.00     0.068 A 
HETATM   20  C3  UNL     1      21.792  29.847   5.914  1.00  0.00     0.037 A 
HETATM   21  C2  UNL     1      22.440  29.209   6.953  1.00  0.00     0.003 A 
HETATM   22  C1  UNL     1      22.249  29.643   8.245  1.00  0.00     0.000 A 
HETATM   23  C21 UNL     1      21.404  30.712   8.450  1.00  0.00     0.003 A 
HETATM   24  C20 UNL     1      20.756  31.348   7.406  1.00  0.00     0.037 A 
ENDBRANCH  18  19
ENDBRANCH  17  18
ENDBRANCH  16  17
ENDBRANCH  15  16
ENDBRANCH   1  15
TORSDOF 5
ENDMDL
MODEL 4
REMARK VINA RESULT: -8.110351634      3.461      5.723
REMARK  5 active torsions:
REMARK  status: ('A' for Active; 'I' for Inactive)
REMARK    1  A    between atoms: C4_4  and  O1_5 
REMARK    2  A    between atoms: O1_5  and  C5_6 
REMARK    3  A    between atoms: C5_6  and  C6_7 
REMARK    4  A    between atoms: C6_7  and  C7_8 
REMARK    5  A    between atoms: C7_8  and  C8_9 
ROOT
HETATM    1  C8  UNL     1      25.765  30.827   6.199  1.00  0.00    -0.029 A 
HETATM    2  C9  UNL     1      25.993  30.258   4.936  1.00  0.00     0.096 A 
HETATM    3  N1  UNL     1      25.180  30.838   4.051  1.00  0.00    -0.365 N 
ATOM      4  H1  UNL     1      25.143  30.610   3.057  1.00  0.00     0.165 HD
HETATM    5  C10 UNL     1      24.417  31.765   4.653  1.00  0.00     0.043 A 
HETATM    6  C11 UNL     1      23.455  32.600   4.166  1.00  0.00     0.031 A 
HETATM    7  C12 UNL     1      22.818  33.465   5.004  1.00  0.00     0.014 A 
HETATM    8  C13 UNL     1      23.143  33.495   6.332  1.00  0.00    -0.025 A 
HETATM    9  C14 UNL     1      22.510  34.360   7.194  1.00  0.00     0.012 A 
HETATM   10  C15 UNL     1      22.843  34.382   8.526  1.00  0.00     0.001 A 
HETATM   11  C16 UNL     1      23.806  33.556   9.052  1.00  0.00     0.001 A 
HETATM   12  C17 UNL     1      24.452  32.671   8.167  1.00  0.00     0.013 A 
HETATM   13  C18 UNL     1      24.119  32.649   6.837  1.00  0.00    -0.013 A 
HETATM   14  C19 UNL     1      24.794  31.749   6.009  1.00  0.00     0.009 A 
ENDROOT
BRANCH   1  15
HETATM   15  C7  UNL     1      26.482  30.421   7.376  1.00  0.00     0.043 C 
BRANCH  15  16
HETATM   16  C6  UNL     1      26.623  28.885   7.462  1.00  0.00     0.031 C 
BRANCH  16  17
HETATM   17  C5  UNL     1      27.321  28.538   8.786  1.00  0.00     0.176 C 
BRANCH  17  18
HETATM   18  O1  UNL     1      28.228  27.517   8.538  1.00  0.00    -0.351 OA
BRANCH  18  19
HETATM   19  C4  UNL     1      28.124  26.341   9.306  1.00  0.00     0.068 A 
HETATM   20  C3  UNL     1      26.903  25.789   9.629  1.00  0.00     0.037 A 
HETATM   21  C2  UNL     1      26.780  24.639  10.382  1.00  0.00     0.003 A 
HETATM   22  C1  UNL     1      27.909  23.998  10.840  1.00  0.00     0.000 A 
HETATM   23  C21 UNL     1      29.134  24.543  10.522  1.00  0.00     0.003 A 
HETATM   24  C20 UNL     1      29.254  25.697   9.768  1.00  0.00     0.037 A 
ENDBRANCH  18  19
ENDBRANCH  17  18
ENDBRANCH  16  17
ENDBRANCH  15  16
ENDBRANCH   1  15
TORSDOF 5
ENDMDL
MODEL 5
REMARK VINA RESULT: -8.053874611      2.115      4.772
REMARK  5 active torsions:
REMARK  status: ('A' for Active; 'I' for Inactive)
REMARK    1  A    between atoms: C4_4  and  O1_5 
REMARK    2  A    between atoms: O1_5  and  C5_6 
REMARK    3  A    between atoms: C5_6  and  C6_7 
REMARK    4  A    between atoms: C6_7  and  C7_8 
REMARK    5  A    between atoms: C7_8  and  C8_9 
ROOT
HETATM    1  C8  UNL     1      21.316  29.170   6.662  1.00  0.00    -0.029 A 
HETATM    2  C9  UNL     1      20.963  28.178   7.589  1.00  0.00     0.096 A 
HETATM    3  N1  UNL     1      22.055  27.812   8.263  1.00  0.00    -0.365 N 
ATOM      4  H1  UNL     1      22.076  27.105   8.999  1.00  0.00     0.165 HD
HETATM    5  C10 UNL     1      23.123  28.505   7.836  1.00  0.00     0.043 A 
HETATM    6  C11 UNL     1      24.432  28.476   8.219  1.00  0.00     0.031 A 
HETATM    7  C12 UNL     1      25.335  29.299   7.615  1.00  0.00     0.014 A 
HETATM    8  C13 UNL     1      24.928  30.152   6.626  1.00  0.00    -0.025 A 
HETATM    9  C14 UNL     1      25.825  30.989   6.004  1.00  0.00     0.012 A 
HETATM   10  C15 UNL     1      25.408  31.841   5.012  1.00  0.00     0.001 A 
HETATM   11  C16 UNL     1      24.098  31.897   4.600  1.00  0.00     0.001 A 
HETATM   12  C17 UNL     1      23.182  31.038   5.238  1.00  0.00     0.013 A 
HETATM   13  C18 UNL     1      23.600  30.188   6.229  1.00  0.00    -0.013 A 
HETATM   14  C19 UNL     1      22.645  29.359   6.825  1.00  0.00     0.009 A 
ENDROOT
BRANCH   1  15
HETATM   15  C7  UNL     1      20.365  29.780   5.774  1.00  0.00     0.043 C 
BRANCH  15  16
HETATM   16  C6  UNL     1      19.093  30.239   6.523  1.00  0.00     0.031 C 
BRANCH  16  17
HETATM   17  C5  UNL     1      19.501  31.294   7.564  1.00  0.00     0.176 C 
BRANCH  17  18
HETATM   18  O1  UNL     1      19.957  32.414   6.882  1.00  0.00    -0.351 OA
BRANCH  18  19
HETATM   19  C4  UNL     1      21.197  32.960   7.267  1.00  0.00     0.068 A 
HETATM   20  C3  UNL     1      21.925  32.443   8.316  1.00  0.00     0.037 A 
HETATM   21  C2  UNL     1      23.141  32.964   8.709  1.00  0.00     0.003 A 
HETATM   22  C1  UNL     1      23.669  34.045   8.039  1.00  0.00     0.000 A 
HETATM   23  C21 UNL     1      22.947  34.569   6.989  1.00  0.00     0.003 A 
HETATM   24  C20 UNL     1      21.728  34.044   6.598  1.00  0.00     0.037 A 
ENDBRANCH  18  19
ENDBRANCH  17  18
ENDBRANCH  16  17
ENDBRANCH  15  16
ENDBRANCH   1  15
TORSDOF 5
ENDMDL
