MODEL 1
REMARK VINA RESULT: -5.527862462      0.000      0.000
REMARK  3 active torsions:
REMARK  status: ('A' for Active; 'I' for Inactive)
REMARK    1  A    between atoms: C2_5  and  C3_6 
REMARK    2  A    between atoms: C6_17  and  N5_18 
REMARK    3  A    between atoms: C11_24  and  N6_25 
ROOT
HETATM    1  N1  UNL     1      59.519  66.917  26.528  1.00  0.00    -0.396 N 
ATOM      2  H11 UNL     1      58.533  67.168  26.465  1.00  0.00     0.156 HD
ATOM      3  H12 UNL     1      60.072  67.284  27.303  1.00  0.00     0.156 HD
HETATM    4  C1  UNL     1      60.055  66.157  25.642  1.00  0.00     0.079 A 
HETATM    5  C2  UNL     1      61.373  65.822  25.726  1.00  0.00     0.061 A 
HETATM    6  C5  UNL     1      61.903  64.998  24.762  1.00  0.00     0.108 A 
HETATM    7  N4  UNL     1      61.149  64.527  23.749  1.00  0.00    -0.349 N 
ATOM      8  H4  UNL     1      61.583  63.918  23.055  1.00  0.00     0.166 HD
HETATM    9  C6  UNL     1      59.826  64.835  23.617  1.00  0.00     0.139 A 
HETATM   10  C11 UNL     1      59.296  65.653  24.577  1.00  0.00     0.173 A 
ENDROOT
BRANCH   5  11
HETATM   11  C3  UNL     1      62.231  66.351  26.811  1.00  0.00     0.181 A 
HETATM   12  N2  UNL     1      63.347  67.082  26.729  1.00  0.00    -0.274 N 
HETATM   13  N3  UNL     1      63.784  67.329  27.950  1.00  0.00    -0.243 N 
ATOM     14  H2  UNL     1      63.789  67.398  25.865  1.00  0.00     0.189 HD
HETATM   15  C4  UNL     1      62.928  66.740  28.826  1.00  0.00     0.386 A 
ATOM     16  H3  UNL     1      64.616  67.867  28.193  1.00  0.00     0.192 HD
HETATM   17  O1  UNL     1      63.027  66.763  30.097  1.00  0.00    -0.236 OA
HETATM   18  O2  UNL     1      62.008  66.164  28.086  1.00  0.00    -0.240 OA
ENDBRANCH   5  11
BRANCH  10  19
HETATM   19  N6  UNL     1      57.939  66.021  24.504  1.00  0.00    -0.109 N 
HETATM   20  O4  UNL     1      57.082  65.296  25.009  1.00  0.00    -0.532 OA
HETATM   21  O5  UNL     1      57.584  67.175  23.878  1.00  0.00    -0.532 OA
ENDBRANCH  10  19
BRANCH   9  22
HETATM   22  N5  UNL     1      59.113  64.323  22.533  1.00  0.00    -0.361 N 
HETATM   23  C7  UNL     1      59.111  65.066  21.253  1.00  0.00     0.150 C 
HETATM   24  C8  UNL     1      58.577  64.263  20.122  1.00  0.00     0.187 C 
HETATM   25  O3  UNL     1      57.371  63.635  20.367  1.00  0.00    -0.388 OA
HETATM   26  C9  UNL     1      57.088  63.427  21.682  1.00  0.00     0.187 C 
HETATM   27  C10 UNL     1      58.333  63.104  22.515  1.00  0.00     0.150 C 
ENDBRANCH   9  22
TORSDOF 3
ENDMDL
MODEL 2
REMARK VINA RESULT: -5.512270412      2.419      7.286
REMARK  3 active torsions:
REMARK  status: ('A' for Active; 'I' for Inactive)
REMARK    1  A    between atoms: C2_5  and  C3_6 
REMARK    2  A    between atoms: C6_17  and  N5_18 
REMARK    3  A    between atoms: C11_24  and  N6_25 
ROOT
HETATM    1  N1  UNL     1      60.766  64.858  24.608  1.00  0.00    -0.396 N 
ATOM      2  H11 UNL     1      61.594  64.331  24.329  1.00  0.00     0.156 HD
ATOM      3  H12 UNL     1      59.961  64.877  23.982  1.00  0.00     0.156 HD
HETATM    4  C1  UNL     1      60.744  65.491  25.725  1.00  0.00     0.079 A 
HETATM    5  C2  UNL     1      59.639  66.195  26.098  1.00  0.00     0.061 A 
HETATM    6  C5  UNL     1      59.655  66.850  27.307  1.00  0.00     0.108 A 
HETATM    7  N4  UNL     1      60.734  66.807  28.114  1.00  0.00    -0.349 N 
ATOM      8  H4  UNL     1      60.702  67.308  29.002  1.00  0.00     0.166 HD
HETATM    9  C6  UNL     1      61.866  66.120  27.787  1.00  0.00     0.139 A 
HETATM   10  C11 UNL     1      61.851  65.465  26.585  1.00  0.00     0.173 A 
ENDROOT
BRANCH   5  11
HETATM   11  C3  UNL     1      58.453  66.284  25.215  1.00  0.00     0.181 A 
HETATM   12  N2  UNL     1      57.934  67.350  24.597  1.00  0.00    -0.274 N 
HETATM   13  N3  UNL     1      56.871  66.969  23.913  1.00  0.00    -0.243 N 
ATOM     14  H2  UNL     1      58.300  68.301  24.644  1.00  0.00     0.189 HD
HETATM   15  C4  UNL     1      56.710  65.632  24.105  1.00  0.00     0.386 A 
ATOM     16  H3  UNL     1      56.277  67.570  23.343  1.00  0.00     0.192 HD
HETATM   17  O1  UNL     1      55.786  64.912  23.601  1.00  0.00    -0.236 OA
HETATM   18  O2  UNL     1      57.692  65.269  24.898  1.00  0.00    -0.240 OA
ENDBRANCH   5  11
BRANCH  10  19
HETATM   19  N6  UNL     1      62.986  64.741  26.174  1.00  0.00    -0.109 N 
HETATM   20  O4  UNL     1      63.900  65.321  25.588  1.00  0.00    -0.532 OA
HETATM   21  O5  UNL     1      63.066  63.407  26.428  1.00  0.00    -0.532 OA
ENDBRANCH  10  19
BRANCH   9  22
HETATM   22  N5  UNL     1      62.949  66.134  28.666  1.00  0.00    -0.361 N 
HETATM   23  C7  UNL     1      63.935  67.235  28.581  1.00  0.00     0.150 C 
HETATM   24  C8  UNL     1      64.843  67.286  29.756  1.00  0.00     0.187 C 
HETATM   25  O3  UNL     1      65.429  66.082  30.096  1.00  0.00    -0.388 OA
HETATM   26  C9  UNL     1      64.763  64.976  29.665  1.00  0.00     0.187 C 
HETATM   27  C10 UNL     1      63.240  65.152  29.688  1.00  0.00     0.150 C 
ENDBRANCH   9  22
TORSDOF 3
ENDMDL
MODEL 3
REMARK VINA RESULT: -5.506340013      1.395      1.615
REMARK  3 active torsions:
REMARK  status: ('A' for Active; 'I' for Inactive)
REMARK    1  A    between atoms: C2_5  and  C3_6 
REMARK    2  A    between atoms: C6_17  and  N5_18 
REMARK    3  A    between atoms: C11_24  and  N6_25 
ROOT
HETATM    1  N1  UNL     1      58.286  66.819  25.400  1.00  0.00    -0.396 N 
ATOM      2  H11 UNL     1      57.322  66.950  25.094  1.00  0.00     0.156 HD
ATOM      3  H12 UNL     1      58.615  67.328  26.220  1.00  0.00     0.156 HD
HETATM    4  C1  UNL     1      59.071  66.032  24.757  1.00  0.00     0.079 A 
HETATM    5  C2  UNL     1      60.359  65.858  25.165  1.00  0.00     0.061 A 
HETATM    6  C5  UNL     1      61.161  64.998  24.454  1.00  0.00     0.108 A 
HETATM    7  N4  UNL     1      60.699  64.338  23.373  1.00  0.00    -0.349 N 
ATOM      8  H4  UNL     1      61.330  63.709  22.874  1.00  0.00     0.166 HD
HETATM    9  C6  UNL     1      59.420  64.479  22.921  1.00  0.00     0.139 A 
HETATM   10  C11 UNL     1      58.618  65.333  23.630  1.00  0.00     0.173 A 
ENDROOT
BRANCH   5  11
HETATM   11  C3  UNL     1      60.901  66.594  26.330  1.00  0.00     0.181 A 
HETATM   12  N2  UNL     1      62.066  67.237  26.459  1.00  0.00    -0.274 N 
HETATM   13  N3  UNL     1      62.135  67.750  27.674  1.00  0.00    -0.243 N 
ATOM     14  H2  UNL     1      62.783  67.318  25.739  1.00  0.00     0.189 HD
HETATM   15  C4  UNL     1      60.990  67.424  28.329  1.00  0.00     0.386 A 
ATOM     16  H3  UNL     1      62.910  68.295  28.052  1.00  0.00     0.192 HD
HETATM   17  O1  UNL     1      60.699  67.747  29.529  1.00  0.00    -0.236 OA
HETATM   18  O2  UNL     1      60.280  66.727  27.473  1.00  0.00    -0.240 OA
ENDBRANCH   5  11
BRANCH  10  19
HETATM   19  N6  UNL     1      57.287  65.537  23.219  1.00  0.00    -0.109 N 
HETATM   20  O4  UNL     1      57.031  66.416  22.397  1.00  0.00    -0.532 OA
HETATM   21  O5  UNL     1      56.294  64.763  23.734  1.00  0.00    -0.532 OA
ENDBRANCH  10  19
BRANCH   9  22
HETATM   22  N5  UNL     1      59.017  63.776  21.786  1.00  0.00    -0.361 N 
HETATM   23  C7  UNL     1      59.306  64.336  20.447  1.00  0.00     0.150 C 
HETATM   24  C8  UNL     1      59.099  63.351  19.354  1.00  0.00     0.187 C 
HETATM   25  O3  UNL     1      57.893  62.678  19.392  1.00  0.00    -0.388 OA
HETATM   26  C9  UNL     1      57.300  62.631  20.616  1.00  0.00     0.187 C 
HETATM   27  C10 UNL     1      58.310  62.513  21.763  1.00  0.00     0.150 C 
ENDBRANCH   9  22
TORSDOF 3
ENDMDL
MODEL 4
REMARK VINA RESULT: -5.480093334      0.307      1.052
REMARK  3 active torsions:
REMARK  status: ('A' for Active; 'I' for Inactive)
REMARK    1  A    between atoms: C2_5  and  C3_6 
REMARK    2  A    between atoms: C6_17  and  N5_18 
REMARK    3  A    between atoms: C11_24  and  N6_25 
ROOT
HETATM    1  N1  UNL     1      59.643  66.905  26.621  1.00  0.00    -0.396 N 
ATOM      2  H11 UNL     1      58.655  67.153  26.588  1.00  0.00     0.156 HD
ATOM      3  H12 UNL     1      60.214  67.258  27.389  1.00  0.00     0.156 HD
HETATM    4  C1  UNL     1      60.159  66.167  25.705  1.00  0.00     0.079 A 
HETATM    5  C2  UNL     1      61.480  65.835  25.749  1.00  0.00     0.061 A 
HETATM    6  C5  UNL     1      61.988  65.034  24.754  1.00  0.00     0.108 A 
HETATM    7  N4  UNL     1      61.211  64.582  23.750  1.00  0.00    -0.349 N 
ATOM      8  H4  UNL     1      61.630  63.990  23.033  1.00  0.00     0.166 HD
HETATM    9  C6  UNL     1      59.884  64.886  23.659  1.00  0.00     0.139 A 
HETATM   10  C11 UNL     1      59.375  65.681  24.650  1.00  0.00     0.173 A 
ENDROOT
BRANCH   5  11
HETATM   11  C3  UNL     1      62.364  66.345  26.822  1.00  0.00     0.181 A 
HETATM   12  N2  UNL     1      63.486  67.064  26.726  1.00  0.00    -0.274 N 
HETATM   13  N3  UNL     1      63.948  67.295  27.941  1.00  0.00    -0.243 N 
ATOM     14  H2  UNL     1      63.916  67.382  25.857  1.00  0.00     0.189 HD
HETATM   15  C4  UNL     1      63.100  66.708  28.827  1.00  0.00     0.386 A 
ATOM     16  H3  UNL     1      64.790  67.821  28.174  1.00  0.00     0.192 HD
HETATM   17  O1  UNL     1      63.222  66.719  30.097  1.00  0.00    -0.236 OA
HETATM   18  O2  UNL     1      62.161  66.149  28.100  1.00  0.00    -0.240 OA
ENDBRANCH   5  11
BRANCH  10  19
HETATM   19  N6  UNL     1      58.015  66.045  24.619  1.00  0.00    -0.109 N 
HETATM   20  O4  UNL     1      57.170  65.284  25.088  1.00  0.00    -0.532 OA
HETATM   21  O5  UNL     1      57.646  67.235  24.072  1.00  0.00    -0.532 OA
ENDBRANCH  10  19
BRANCH   9  22
HETATM   22  N5  UNL     1      59.145  64.394  22.582  1.00  0.00    -0.361 N 
HETATM   23  C7  UNL     1      58.579  63.028  22.657  1.00  0.00     0.150 C 
HETATM   24  C8  UNL     1      57.578  62.761  21.592  1.00  0.00     0.187 C 
HETATM   25  O3  UNL     1      57.979  63.095  20.312  1.00  0.00    -0.388 OA
HETATM   26  C9  UNL     1      58.969  64.026  20.245  1.00  0.00     0.187 C 
HETATM   27  C10 UNL     1      58.861  65.089  21.345  1.00  0.00     0.150 C 
ENDBRANCH   9  22
TORSDOF 3
ENDMDL
MODEL 5
REMARK VINA RESULT: -5.402758975      1.901      2.660
REMARK  3 active torsions:
REMARK  status: ('A' for Active; 'I' for Inactive)
REMARK    1  A    between atoms: C2_5  and  C3_6 
REMARK    2  A    between atoms: C6_17  and  N5_18 
REMARK    3  A    between atoms: C11_24  and  N6_25 
ROOT
HETATM    1  N1  UNL     1      62.080  64.733  24.410  1.00  0.00    -0.396 N 
ATOM      2  H11 UNL     1      62.326  64.092  23.656  1.00  0.00     0.156 HD
ATOM      3  H12 UNL     1      62.817  65.068  25.031  1.00  0.00     0.156 HD
HETATM    4  C1  UNL     1      60.862  65.104  24.578  1.00  0.00     0.079 A 
HETATM    5  C2  UNL     1      60.534  65.959  25.586  1.00  0.00     0.061 A 
HETATM    6  C5  UNL     1      59.219  66.339  25.721  1.00  0.00     0.108 A 
HETATM    7  N4  UNL     1      58.266  65.880  24.887  1.00  0.00    -0.349 N 
ATOM      8  H4  UNL     1      57.303  66.187  25.025  1.00  0.00     0.166 HD
HETATM    9  C6  UNL     1      58.541  65.020  23.864  1.00  0.00     0.139 A 
HETATM   10  C11 UNL     1      59.849  64.643  23.725  1.00  0.00     0.173 A 
ENDROOT
BRANCH   5  11
HETATM   11  C3  UNL     1      61.556  66.453  26.536  1.00  0.00     0.181 A 
HETATM   12  N2  UNL     1      61.950  67.707  26.781  1.00  0.00    -0.274 N 
HETATM   13  N3  UNL     1      62.892  67.683  27.707  1.00  0.00    -0.243 N 
ATOM     14  H2  UNL     1      61.584  68.545  26.329  1.00  0.00     0.189 HD
HETATM   15  C4  UNL     1      63.101  66.386  28.054  1.00  0.00     0.386 A 
ATOM     16  H3  UNL     1      63.375  68.494  28.093  1.00  0.00     0.192 HD
HETATM   17  O1  UNL     1      63.940  65.971  28.921  1.00  0.00    -0.236 OA
HETATM   18  O2  UNL     1      62.269  65.685  27.318  1.00  0.00    -0.240 OA
ENDBRANCH   5  11
BRANCH  10  19
HETATM   19  N6  UNL     1      60.210  63.751  22.698  1.00  0.00    -0.109 N 
HETATM   20  O4  UNL     1      60.485  62.583  22.973  1.00  0.00    -0.532 OA
HETATM   21  O5  UNL     1      60.251  64.183  21.409  1.00  0.00    -0.532 OA
ENDBRANCH  10  19
BRANCH   9  22
HETATM   22  N5  UNL     1      57.500  64.574  23.050  1.00  0.00    -0.361 N 
HETATM   23  C7  UNL     1      56.900  63.245  23.304  1.00  0.00     0.150 C 
HETATM   24  C8  UNL     1      55.624  63.040  22.571  1.00  0.00     0.187 C 
HETATM   25  O3  UNL     1      55.664  63.349  21.225  1.00  0.00    -0.388 OA
HETATM   26  C9  UNL     1      56.646  64.219  20.865  1.00  0.00     0.187 C 
HETATM   27  C10 UNL     1      56.917  65.286  21.932  1.00  0.00     0.150 C 
ENDBRANCH   9  22
TORSDOF 3
ENDMDL
