MODEL 1
REMARK VINA RESULT: -10.177393408      0.000      0.000
REMARK  15 active torsions:
REMARK  status: ('A' for Active; 'I' for Inactive)
REMARK    1  A    between atoms: C2_2  and  C19_29 
REMARK    2  A    between atoms: C3_3  and  C4_4 
REMARK    3  A    between atoms: C4_4  and  O1_5 
REMARK    4  A    between atoms: C4_4  and  O4_18 
REMARK    5  A    between atoms: O1_5  and  C5_6 
REMARK    6  A    between atoms: C5_6  and  C6_8 
REMARK    7  A    between atoms: C7_9  and  C8_10 
REMARK    8  A    between atoms: C11_13  and  O3_14 
REMARK    9  A    between atoms: O4_18  and  C14_19 
REMARK   10  A    between atoms: C15_21  and  O6_22 
REMARK   11  A    between atoms: C16_24  and  O7_25 
REMARK   12  A    between atoms: C19_29  and  C20_30 
REMARK   13  A    between atoms: C20_30  and  C21_31 
REMARK   14  A    between atoms: C22_32  and  C24_34 
REMARK   15  A    between atoms: C24_34  and  C25_35 
ROOT
HETATM    1  C4  UNL     1      48.415  53.073  18.772  1.00  0.00     0.297 C 
ENDROOT
BRANCH   1   2
HETATM    2  C3  UNL     1      48.180  54.237  19.648  1.00  0.00     0.036 C 
HETATM    3  C2  UNL     1      49.041  55.233  19.816  1.00  0.00    -0.083 C 
HETATM    4  C1  UNL     1      50.355  55.248  19.105  1.00  0.00     0.043 C 
BRANCH   3   5
HETATM    5  C19 UNL     1      48.715  56.312  20.749  1.00  0.00     0.037 C 
BRANCH   5   6
HETATM    6  C20 UNL     1      47.497  57.120  20.505  1.00  0.00     0.031 C 
BRANCH   6   7
HETATM    7  C21 UNL     1      47.628  58.337  19.691  1.00  0.00    -0.024 C 
HETATM    8  C22 UNL     1      46.652  58.899  18.984  1.00  0.00    -0.085 C 
HETATM    9  C23 UNL     1      45.319  58.270  19.001  1.00  0.00     0.043 C 
BRANCH   8  10
HETATM   10  C24 UNL     1      46.911  60.119  18.252  1.00  0.00     0.068 C 
BRANCH  10  11
HETATM   11  C25 UNL     1      45.789  60.902  17.701  1.00  0.00     0.160 A 
HETATM   12  O8  UNL     1      46.136  62.136  17.062  1.00  0.00    -0.370 OA
HETATM   13  C26 UNL     1      45.094  62.027  18.147  1.00  0.00     0.080 A 
HETATM   14  C27 UNL     1      43.743  62.354  17.468  1.00  0.00     0.048 C 
HETATM   15  C28 UNL     1      45.364  62.943  19.288  1.00  0.00     0.048 C 
ENDBRANCH  10  11
ENDBRANCH   8  10
ENDBRANCH   6   7
ENDBRANCH   5   6
ENDBRANCH   3   5
ENDBRANCH   1   2
BRANCH   1  16
HETATM   16  O1  UNL     1      47.273  52.744  17.980  1.00  0.00    -0.283 OA
BRANCH  16  17
HETATM   17  C5  UNL     1      47.257  51.583  17.211  1.00  0.00     0.285 C 
HETATM   18  O2  UNL     1      48.034  51.571  16.211  1.00  0.00    -0.260 OA
BRANCH  17  19
HETATM   19  C6  UNL     1      46.415  50.428  17.496  1.00  0.00     0.079 C 
HETATM   20  C7  UNL     1      46.824  49.423  18.221  1.00  0.00    -0.012 C 
BRANCH  20  21
HETATM   21  C8  UNL     1      46.052  48.212  18.565  1.00  0.00     0.030 C 
HETATM   22  C9  UNL     1      46.105  47.896  20.004  1.00  0.00    -0.020 C 
HETATM   23  C10 UNL     1      45.094  47.366  20.657  1.00  0.00     0.001 C 
HETATM   24  C11 UNL     1      43.780  47.015  20.045  1.00  0.00     0.140 C 
HETATM   25  C12 UNL     1      43.885  47.069  18.531  1.00  0.00     0.036 C 
HETATM   26  C13 UNL     1      44.605  48.337  18.142  1.00  0.00     0.015 C 
BRANCH  24  27
HETATM   27  O3  UNL     1      43.461  45.709  20.399  1.00  0.00    -0.392 OA
ATOM     28  H3  UNL     1      43.343  45.200  19.606  1.00  0.00     0.210 HD
ENDBRANCH  24  27
ENDBRANCH  20  21
ENDBRANCH  17  19
ENDBRANCH  16  17
ENDBRANCH   1  16
BRANCH   1  29
HETATM   29  O4  UNL     1      48.899  52.015  19.498  1.00  0.00    -0.327 OA
BRANCH  29  30
HETATM   30  C14 UNL     1      50.232  51.702  19.237  1.00  0.00     0.272 A 
HETATM   31  O5  UNL     1      51.063  51.997  20.284  1.00  0.00    -0.329 OA
HETATM   32  C15 UNL     1      51.809  50.906  20.629  1.00  0.00     0.289 A 
HETATM   33  C16 UNL     1      51.451  49.741  19.775  1.00  0.00     0.181 A 
HETATM   34  C17 UNL     1      50.428  50.293  18.805  1.00  0.00     0.071 A 
HETATM   35  C18 UNL     1      50.966  50.205  17.382  1.00  0.00     0.017 C 
BRANCH  32  36
HETATM   36  O6  UNL     1      51.754  50.591  21.984  1.00  0.00    -0.369 OA
ATOM     37  H6  UNL     1      51.485  49.697  22.161  1.00  0.00     0.212 HD
ENDBRANCH  32  36
BRANCH  33  38
HETATM   38  O7  UNL     1      52.541  49.194  19.099  1.00  0.00    -0.390 OA
ATOM     39  H7  UNL     1      52.301  48.510  18.485  1.00  0.00     0.210 HD
ENDBRANCH  33  38
ENDBRANCH  29  30
ENDBRANCH   1  29
TORSDOF 15
ENDMDL
MODEL 2
REMARK VINA RESULT: -9.883560195      1.030      1.596
REMARK  15 active torsions:
REMARK  status: ('A' for Active; 'I' for Inactive)
REMARK    1  A    between atoms: C2_2  and  C19_29 
REMARK    2  A    between atoms: C3_3  and  C4_4 
REMARK    3  A    between atoms: C4_4  and  O1_5 
REMARK    4  A    between atoms: C4_4  and  O4_18 
REMARK    5  A    between atoms: O1_5  and  C5_6 
REMARK    6  A    between atoms: C5_6  and  C6_8 
REMARK    7  A    between atoms: C7_9  and  C8_10 
REMARK    8  A    between atoms: C11_13  and  O3_14 
REMARK    9  A    between atoms: O4_18  and  C14_19 
REMARK   10  A    between atoms: C15_21  and  O6_22 
REMARK   11  A    between atoms: C16_24  and  O7_25 
REMARK   12  A    between atoms: C19_29  and  C20_30 
REMARK   13  A    between atoms: C20_30  and  C21_31 
REMARK   14  A    between atoms: C22_32  and  C24_34 
REMARK   15  A    between atoms: C24_34  and  C25_35 
ROOT
HETATM    1  C4  UNL     1      48.783  53.319  18.119  1.00  0.00     0.297 C 
ENDROOT
BRANCH   1   2
HETATM    2  C3  UNL     1      48.815  54.473  19.037  1.00  0.00     0.036 C 
HETATM    3  C2  UNL     1      48.367  55.685  18.733  1.00  0.00    -0.083 C 
HETATM    4  C1  UNL     1      47.775  55.976  17.392  1.00  0.00     0.043 C 
BRANCH   3   5
HETATM    5  C19 UNL     1      48.495  56.763  19.713  1.00  0.00     0.037 C 
BRANCH   5   6
HETATM    6  C20 UNL     1      47.324  57.632  19.973  1.00  0.00     0.031 C 
BRANCH   6   7
HETATM    7  C21 UNL     1      47.070  58.745  19.047  1.00  0.00    -0.024 C 
HETATM    8  C22 UNL     1      45.878  59.099  18.576  1.00  0.00    -0.085 C 
HETATM    9  C23 UNL     1      44.696  58.329  19.002  1.00  0.00     0.043 C 
BRANCH   8  10
HETATM   10  C24 UNL     1      45.769  60.241  17.694  1.00  0.00     0.068 C 
BRANCH  10  11
HETATM   11  C25 UNL     1      44.609  61.145  17.799  1.00  0.00     0.160 A 
HETATM   12  O8  UNL     1      44.695  62.367  17.056  1.00  0.00    -0.370 OA
HETATM   13  C26 UNL     1      44.365  62.312  18.527  1.00  0.00     0.080 A 
HETATM   14  C27 UNL     1      42.899  62.790  18.649  1.00  0.00     0.048 C 
HETATM   15  C28 UNL     1      45.280  63.151  19.347  1.00  0.00     0.048 C 
ENDBRANCH  10  11
ENDBRANCH   8  10
ENDBRANCH   6   7
ENDBRANCH   5   6
ENDBRANCH   3   5
ENDBRANCH   1   2
BRANCH   1  16
HETATM   16  O1  UNL     1      47.583  52.554  18.242  1.00  0.00    -0.283 OA
BRANCH  16  17
HETATM   17  C5  UNL     1      47.205  51.665  17.239  1.00  0.00     0.285 C 
HETATM   18  O2  UNL     1      47.610  51.942  16.072  1.00  0.00    -0.260 OA
BRANCH  17  19
HETATM   19  C6  UNL     1      46.395  50.475  17.468  1.00  0.00     0.079 C 
HETATM   20  C7  UNL     1      46.767  49.516  18.271  1.00  0.00    -0.012 C 
BRANCH  20  21
HETATM   21  C8  UNL     1      46.022  48.276  18.569  1.00  0.00     0.030 C 
HETATM   22  C9  UNL     1      46.085  47.905  19.995  1.00  0.00    -0.020 C 
HETATM   23  C10 UNL     1      45.087  47.328  20.627  1.00  0.00     0.001 C 
HETATM   24  C11 UNL     1      43.780  46.973  20.005  1.00  0.00     0.140 C 
HETATM   25  C12 UNL     1      43.880  47.089  18.494  1.00  0.00     0.036 C 
HETATM   26  C13 UNL     1      44.571  48.387  18.153  1.00  0.00     0.015 C 
BRANCH  24  27
HETATM   27  O3  UNL     1      43.489  45.648  20.308  1.00  0.00    -0.392 OA
ATOM     28  H3  UNL     1      42.878  45.630  21.035  1.00  0.00     0.210 HD
ENDBRANCH  24  27
ENDBRANCH  20  21
ENDBRANCH  17  19
ENDBRANCH  16  17
ENDBRANCH   1  16
BRANCH   1  29
HETATM   29  O4  UNL     1      49.923  52.568  18.250  1.00  0.00    -0.327 OA
BRANCH  29  30
HETATM   30  C14 UNL     1      49.938  51.739  19.370  1.00  0.00     0.272 A 
HETATM   31  O5  UNL     1      50.148  50.424  19.057  1.00  0.00    -0.329 OA
HETATM   32  C15 UNL     1      51.190  49.916  19.779  1.00  0.00     0.289 A 
HETATM   33  C16 UNL     1      51.780  50.969  20.650  1.00  0.00     0.181 A 
HETATM   34  C17 UNL     1      50.903  52.180  20.413  1.00  0.00     0.071 A 
HETATM   35  C18 UNL     1      50.202  52.571  21.708  1.00  0.00     0.017 C 
BRANCH  32  36
HETATM   36  O6  UNL     1      52.157  49.283  19.004  1.00  0.00    -0.369 OA
ATOM     37  H6  UNL     1      53.002  49.203  19.432  1.00  0.00     0.212 HD
ENDBRANCH  32  36
BRANCH  33  38
HETATM   38  O7  UNL     1      51.804  50.622  22.000  1.00  0.00    -0.390 OA
ATOM     39  H7  UNL     1      51.854  49.686  22.149  1.00  0.00     0.210 HD
ENDBRANCH  33  38
ENDBRANCH  29  30
ENDBRANCH   1  29
TORSDOF 15
ENDMDL
MODEL 3
REMARK VINA RESULT: -9.780225575      2.548      3.954
REMARK  15 active torsions:
REMARK  status: ('A' for Active; 'I' for Inactive)
REMARK    1  A    between atoms: C2_2  and  C19_29 
REMARK    2  A    between atoms: C3_3  and  C4_4 
REMARK    3  A    between atoms: C4_4  and  O1_5 
REMARK    4  A    between atoms: C4_4  and  O4_18 
REMARK    5  A    between atoms: O1_5  and  C5_6 
REMARK    6  A    between atoms: C5_6  and  C6_8 
REMARK    7  A    between atoms: C7_9  and  C8_10 
REMARK    8  A    between atoms: C11_13  and  O3_14 
REMARK    9  A    between atoms: O4_18  and  C14_19 
REMARK   10  A    between atoms: C15_21  and  O6_22 
REMARK   11  A    between atoms: C16_24  and  O7_25 
REMARK   12  A    between atoms: C19_29  and  C20_30 
REMARK   13  A    between atoms: C20_30  and  C21_31 
REMARK   14  A    between atoms: C22_32  and  C24_34 
REMARK   15  A    between atoms: C24_34  and  C25_35 
ROOT
HETATM    1  C4  UNL     1      48.222  53.012  17.771  1.00  0.00     0.297 C 
ENDROOT
BRANCH   1   2
HETATM    2  C3  UNL     1      48.069  54.471  17.613  1.00  0.00     0.036 C 
HETATM    3  C2  UNL     1      47.359  55.050  16.652  1.00  0.00    -0.083 C 
HETATM    4  C1  UNL     1      46.640  54.237  15.625  1.00  0.00     0.043 C 
BRANCH   3   5
HETATM    5  C19 UNL     1      47.319  56.510  16.572  1.00  0.00     0.037 C 
BRANCH   5   6
HETATM    6  C20 UNL     1      46.842  57.275  17.748  1.00  0.00     0.031 C 
BRANCH   6   7
HETATM    7  C21 UNL     1      47.822  57.626  18.786  1.00  0.00    -0.024 C 
HETATM    8  C22 UNL     1      47.632  57.508  20.097  1.00  0.00    -0.085 C 
HETATM    9  C23 UNL     1      46.340  56.984  20.575  1.00  0.00     0.043 C 
BRANCH   8  10
HETATM   10  C24 UNL     1      48.698  57.861  21.009  1.00  0.00     0.068 C 
BRANCH  10  11
HETATM   11  C25 UNL     1      49.519  56.805  21.629  1.00  0.00     0.160 A 
HETATM   12  O8  UNL     1      50.930  57.046  21.668  1.00  0.00    -0.370 OA
HETATM   13  C26 UNL     1      50.319  55.784  21.112  1.00  0.00     0.080 A 
HETATM   14  C27 UNL     1      50.747  54.649  22.072  1.00  0.00     0.048 C 
HETATM   15  C28 UNL     1      50.756  55.508  19.716  1.00  0.00     0.048 C 
ENDBRANCH  10  11
ENDBRANCH   8  10
ENDBRANCH   6   7
ENDBRANCH   5   6
ENDBRANCH   3   5
ENDBRANCH   1   2
BRANCH   1  16
HETATM   16  O1  UNL     1      47.021  52.299  17.474  1.00  0.00    -0.283 OA
BRANCH  16  17
HETATM   17  C5  UNL     1      47.068  51.085  16.793  1.00  0.00     0.285 C 
HETATM   18  O2  UNL     1      47.856  51.036  15.804  1.00  0.00    -0.260 OA
BRANCH  17  19
HETATM   19  C6  UNL     1      46.280  49.915  17.158  1.00  0.00     0.079 C 
HETATM   20  C7  UNL     1      46.591  49.144  18.164  1.00  0.00    -0.012 C 
BRANCH  20  21
HETATM   21  C8  UNL     1      45.861  47.941  18.613  1.00  0.00     0.030 C 
HETATM   22  C9  UNL     1      45.889  47.774  20.077  1.00  0.00    -0.020 C 
HETATM   23  C10 UNL     1      44.884  47.269  20.757  1.00  0.00     0.001 C 
HETATM   24  C11 UNL     1      43.602  46.800  20.155  1.00  0.00     0.140 C 
HETATM   25  C12 UNL     1      43.745  46.706  18.646  1.00  0.00     0.036 C 
HETATM   26  C13 UNL     1      44.422  47.959  18.146  1.00  0.00     0.015 C 
BRANCH  24  27
HETATM   27  O3  UNL     1      43.328  45.524  20.633  1.00  0.00    -0.392 OA
ATOM     28  H3  UNL     1      42.897  45.029  19.947  1.00  0.00     0.210 HD
ENDBRANCH  24  27
ENDBRANCH  20  21
ENDBRANCH  17  19
ENDBRANCH  16  17
ENDBRANCH   1  16
BRANCH   1  29
HETATM   29  O4  UNL     1      48.743  52.714  19.004  1.00  0.00    -0.327 OA
BRANCH  29  30
HETATM   30  C14 UNL     1      49.712  51.713  18.991  1.00  0.00     0.272 A 
HETATM   31  O5  UNL     1      50.681  51.922  18.047  1.00  0.00    -0.329 OA
HETATM   32  C15 UNL     1      51.923  51.873  18.613  1.00  0.00     0.289 A 
HETATM   33  C16 UNL     1      51.818  51.640  20.079  1.00  0.00     0.181 A 
HETATM   34  C17 UNL     1      50.332  51.481  20.323  1.00  0.00     0.071 A 
HETATM   35  C18 UNL     1      50.043  50.079  20.847  1.00  0.00     0.017 C 
BRANCH  32  36
HETATM   36  O6  UNL     1      52.720  52.976  18.320  1.00  0.00    -0.369 OA
ATOM     37  H6  UNL     1      52.231  53.742  18.043  1.00  0.00     0.212 HD
ENDBRANCH  32  36
BRANCH  33  38
HETATM   38  O7  UNL     1      52.522  50.519  20.515  1.00  0.00    -0.390 OA
ATOM     39  H7  UNL     1      52.053  50.006  21.162  1.00  0.00     0.210 HD
ENDBRANCH  33  38
ENDBRANCH  29  30
ENDBRANCH   1  29
TORSDOF 15
ENDMDL
MODEL 4
REMARK VINA RESULT: -9.771259202      2.461      4.557
REMARK  15 active torsions:
REMARK  status: ('A' for Active; 'I' for Inactive)
REMARK    1  A    between atoms: C2_2  and  C19_29 
REMARK    2  A    between atoms: C3_3  and  C4_4 
REMARK    3  A    between atoms: C4_4  and  O1_5 
REMARK    4  A    between atoms: C4_4  and  O4_18 
REMARK    5  A    between atoms: O1_5  and  C5_6 
REMARK    6  A    between atoms: C5_6  and  C6_8 
REMARK    7  A    between atoms: C7_9  and  C8_10 
REMARK    8  A    between atoms: C11_13  and  O3_14 
REMARK    9  A    between atoms: O4_18  and  C14_19 
REMARK   10  A    between atoms: C15_21  and  O6_22 
REMARK   11  A    between atoms: C16_24  and  O7_25 
REMARK   12  A    between atoms: C19_29  and  C20_30 
REMARK   13  A    between atoms: C20_30  and  C21_31 
REMARK   14  A    between atoms: C22_32  and  C24_34 
REMARK   15  A    between atoms: C24_34  and  C25_35 
ROOT
HETATM    1  C4  UNL     1      50.709  52.745  19.360  1.00  0.00     0.297 C 
ENDROOT
BRANCH   1   2
HETATM    2  C3  UNL     1      49.335  52.853  18.833  1.00  0.00     0.036 C 
HETATM    3  C2  UNL     1      48.904  52.242  17.736  1.00  0.00    -0.083 C 
HETATM    4  C1  UNL     1      49.811  51.371  16.929  1.00  0.00     0.043 C 
BRANCH   3   5
HETATM    5  C19 UNL     1      47.529  52.462  17.286  1.00  0.00     0.037 C 
BRANCH   5   6
HETATM    6  C20 UNL     1      47.246  53.615  16.400  1.00  0.00     0.031 C 
BRANCH   6   7
HETATM    7  C21 UNL     1      47.410  54.967  16.952  1.00  0.00    -0.024 C 
HETATM    8  C22 UNL     1      47.086  56.097  16.332  1.00  0.00    -0.085 C 
HETATM    9  C23 UNL     1      46.513  56.016  14.976  1.00  0.00     0.043 C 
BRANCH   8  10
HETATM   10  C24 UNL     1      47.271  57.363  17.008  1.00  0.00     0.068 C 
BRANCH  10  11
HETATM   11  C25 UNL     1      46.104  58.206  17.326  1.00  0.00     0.160 A 
HETATM   12  O8  UNL     1      46.359  59.349  18.150  1.00  0.00    -0.370 OA
HETATM   13  C26 UNL     1      45.288  58.331  18.453  1.00  0.00     0.080 A 
HETATM   14  C27 UNL     1      43.942  59.073  18.288  1.00  0.00     0.048 C 
HETATM   15  C28 UNL     1      45.425  57.750  19.816  1.00  0.00     0.048 C 
ENDBRANCH  10  11
ENDBRANCH   8  10
ENDBRANCH   6   7
ENDBRANCH   5   6
ENDBRANCH   3   5
ENDBRANCH   1   2
BRANCH   1  16
HETATM   16  O1  UNL     1      50.806  51.832  20.454  1.00  0.00    -0.283 OA
BRANCH  16  17
HETATM   17  C5  UNL     1      51.323  50.553  20.264  1.00  0.00     0.285 C 
HETATM   18  O2  UNL     1      52.530  50.388  20.608  1.00  0.00    -0.260 OA
BRANCH  17  19
HETATM   19  C6  UNL     1      50.563  49.441  19.708  1.00  0.00     0.079 C 
HETATM   20  C7  UNL     1      49.263  49.368  19.791  1.00  0.00    -0.012 C 
BRANCH  20  21
HETATM   21  C8  UNL     1      48.404  48.288  19.263  1.00  0.00     0.030 C 
HETATM   22  C9  UNL     1      46.986  48.463  19.626  1.00  0.00    -0.020 C 
HETATM   23  C10 UNL     1      45.998  48.111  18.833  1.00  0.00     0.001 C 
HETATM   24  C11 UNL     1      46.169  47.495  17.486  1.00  0.00     0.140 C 
HETATM   25  C12 UNL     1      47.611  47.060  17.297  1.00  0.00     0.036 C 
HETATM   26  C13 UNL     1      48.517  48.176  17.758  1.00  0.00     0.015 C 
BRANCH  24  27
HETATM   27  O3  UNL     1      45.372  46.358  17.413  1.00  0.00    -0.392 OA
ATOM     28  H3  UNL     1      45.453  45.987  16.543  1.00  0.00     0.210 HD
ENDBRANCH  24  27
ENDBRANCH  20  21
ENDBRANCH  17  19
ENDBRANCH  16  17
ENDBRANCH   1  16
BRANCH   1  29
HETATM   29  O4  UNL     1      51.214  53.989  19.641  1.00  0.00    -0.327 OA
BRANCH  29  30
HETATM   30  C14 UNL     1      50.558  54.654  20.675  1.00  0.00     0.272 A 
HETATM   31  O5  UNL     1      51.349  54.840  21.775  1.00  0.00    -0.329 OA
HETATM   32  C15 UNL     1      51.363  56.156  22.142  1.00  0.00     0.289 A 
HETATM   33  C16 UNL     1      50.537  56.965  21.205  1.00  0.00     0.181 A 
HETATM   34  C17 UNL     1      49.955  55.946  20.250  1.00  0.00     0.071 A 
HETATM   35  C18 UNL     1      48.436  55.931  20.375  1.00  0.00     0.017 C 
BRANCH  32  36
HETATM   36  O6  UNL     1      52.642  56.685  22.295  1.00  0.00    -0.369 OA
ATOM     37  H6  UNL     1      52.795  57.082  23.145  1.00  0.00     0.212 HD
ENDBRANCH  32  36
BRANCH  33  38
HETATM   38  O7  UNL     1      49.532  57.693  21.840  1.00  0.00    -0.390 OA
ATOM     39  H7  UNL     1      49.358  58.532  21.431  1.00  0.00     0.210 HD
ENDBRANCH  33  38
ENDBRANCH  29  30
ENDBRANCH   1  29
TORSDOF 15
ENDMDL
MODEL 5
REMARK VINA RESULT: -9.568871532      1.671      2.180
REMARK  15 active torsions:
REMARK  status: ('A' for Active; 'I' for Inactive)
REMARK    1  A    between atoms: C2_2  and  C19_29 
REMARK    2  A    between atoms: C3_3  and  C4_4 
REMARK    3  A    between atoms: C4_4  and  O1_5 
REMARK    4  A    between atoms: C4_4  and  O4_18 
REMARK    5  A    between atoms: O1_5  and  C5_6 
REMARK    6  A    between atoms: C5_6  and  C6_8 
REMARK    7  A    between atoms: C7_9  and  C8_10 
REMARK    8  A    between atoms: C11_13  and  O3_14 
REMARK    9  A    between atoms: O4_18  and  C14_19 
REMARK   10  A    between atoms: C15_21  and  O6_22 
REMARK   11  A    between atoms: C16_24  and  O7_25 
REMARK   12  A    between atoms: C19_29  and  C20_30 
REMARK   13  A    between atoms: C20_30  and  C21_31 
REMARK   14  A    between atoms: C22_32  and  C24_34 
REMARK   15  A    between atoms: C24_34  and  C25_35 
ROOT
HETATM    1  C4  UNL     1      49.719  54.192  19.437  1.00  0.00     0.297 C 
ENDROOT
BRANCH   1   2
HETATM    2  C3  UNL     1      48.854  55.219  20.049  1.00  0.00     0.036 C 
HETATM    3  C2  UNL     1      49.303  56.291  20.689  1.00  0.00    -0.083 C 
HETATM    4  C1  UNL     1      50.768  56.544  20.841  1.00  0.00     0.043 C 
BRANCH   3   5
HETATM    5  C19 UNL     1      48.346  57.217  21.296  1.00  0.00     0.037 C 
BRANCH   5   6
HETATM    6  C20 UNL     1      47.102  57.538  20.559  1.00  0.00     0.031 C 
BRANCH   6   7
HETATM    7  C21 UNL     1      47.168  58.562  19.507  1.00  0.00    -0.024 C 
HETATM    8  C22 UNL     1      46.139  58.988  18.780  1.00  0.00    -0.085 C 
HETATM    9  C23 UNL     1      44.810  58.401  19.031  1.00  0.00     0.043 C 
BRANCH   8  10
HETATM   10  C24 UNL     1      46.340  60.029  17.796  1.00  0.00     0.068 C 
BRANCH  10  11
HETATM   11  C25 UNL     1      45.251  60.975  17.490  1.00  0.00     0.160 A 
HETATM   12  O8  UNL     1      45.644  62.208  16.875  1.00  0.00    -0.370 OA
HETATM   13  C26 UNL     1      44.785  62.135  18.113  1.00  0.00     0.080 A 
HETATM   14  C27 UNL     1      43.395  62.667  17.695  1.00  0.00     0.048 C 
HETATM   15  C28 UNL     1      45.350  62.921  19.244  1.00  0.00     0.048 C 
ENDBRANCH  10  11
ENDBRANCH   8  10
ENDBRANCH   6   7
ENDBRANCH   5   6
ENDBRANCH   3   5
ENDBRANCH   1   2
BRANCH   1  16
HETATM   16  O1  UNL     1      49.516  54.074  18.028  1.00  0.00    -0.283 OA
BRANCH  16  17
HETATM   17  C5  UNL     1      48.244  53.832  17.514  1.00  0.00     0.285 C 
HETATM   18  O2  UNL     1      47.635  54.841  17.051  1.00  0.00    -0.260 OA
BRANCH  17  19
HETATM   19  C6  UNL     1      47.611  52.521  17.489  1.00  0.00     0.079 C 
HETATM   20  C7  UNL     1      47.941  51.597  16.628  1.00  0.00    -0.012 C 
BRANCH  20  21
HETATM   21  C8  UNL     1      47.361  50.243  16.521  1.00  0.00     0.030 C 
HETATM   22  C9  UNL     1      48.390  49.195  16.395  1.00  0.00    -0.020 C 
HETATM   23  C10 UNL     1      48.254  47.995  16.916  1.00  0.00     0.001 C 
HETATM   24  C11 UNL     1      47.065  47.535  17.689  1.00  0.00     0.140 C 
HETATM   25  C12 UNL     1      45.928  48.528  17.525  1.00  0.00     0.036 C 
HETATM   26  C13 UNL     1      46.475  49.923  17.705  1.00  0.00     0.015 C 
BRANCH  24  27
HETATM   27  O3  UNL     1      46.640  46.318  17.168  1.00  0.00    -0.392 OA
ATOM     28  H3  UNL     1      46.566  45.693  17.879  1.00  0.00     0.210 HD
ENDBRANCH  24  27
ENDBRANCH  20  21
ENDBRANCH  17  19
ENDBRANCH  16  17
ENDBRANCH   1  16
BRANCH   1  29
HETATM   29  O4  UNL     1      49.600  53.002  20.107  1.00  0.00    -0.327 OA
BRANCH  29  30
HETATM   30  C14 UNL     1      50.743  52.206  20.071  1.00  0.00     0.272 A 
HETATM   31  O5  UNL     1      51.083  51.705  21.298  1.00  0.00    -0.329 OA
HETATM   32  C15 UNL     1      51.226  50.348  21.242  1.00  0.00     0.289 A 
HETATM   33  C16 UNL     1      50.934  49.851  19.870  1.00  0.00     0.181 A 
HETATM   34  C17 UNL     1      50.660  51.107  19.072  1.00  0.00     0.071 A 
HETATM   35  C18 UNL     1      51.706  51.258  17.973  1.00  0.00     0.017 C 
BRANCH  32  36
HETATM   36  O6  UNL     1      50.493  49.664  22.208  1.00  0.00    -0.369 OA
ATOM     37  H6  UNL     1      50.265  48.776  21.961  1.00  0.00     0.212 HD
ENDBRANCH  32  36
BRANCH  33  38
HETATM   38  O7  UNL     1      51.979  49.117  19.312  1.00  0.00    -0.390 OA
ATOM     39  H7  UNL     1      51.774  48.759  18.457  1.00  0.00     0.210 HD
ENDBRANCH  33  38
ENDBRANCH  29  30
ENDBRANCH   1  29
TORSDOF 15
ENDMDL
