MODEL 1
REMARK VINA RESULT: -6.470515980      0.000      0.000
REMARK  6 active torsions:
REMARK  status: ('A' for Active; 'I' for Inactive)
REMARK    1  A    between atoms: O1_1  and  C1_3 
REMARK    2  A    between atoms: C1_3  and  C2_4 
REMARK    3  A    between atoms: C2_4  and  C3_5 
REMARK    4  A    between atoms: C3_5  and  N1_6 
REMARK    5  A    between atoms: N1_6  and  C4_8 
REMARK    6  A    between atoms: C5_11  and  N3_12 
ROOT
HETATM    1  C4  UNL     1       6.165  20.975  72.160  1.00  0.00     0.707 A 
HETATM    2  N2  UNL     1       6.624  20.340  73.253  1.00  0.00    -0.020 N 
ATOM      3  H2  UNL     1       7.207  19.502  73.254  1.00  0.00     0.203 HD
HETATM    4  C5  UNL     1       6.187  20.988  74.342  1.00  0.00     0.709 A 
HETATM    5  N4  UNL     1       5.450  22.036  73.939  1.00  0.00    -0.117 N 
ATOM      6  H4  UNL     1       4.984  22.716  74.540  1.00  0.00     0.206 HD
HETATM    7  N5  UNL     1       5.443  22.021  72.599  1.00  0.00    -0.117 N 
ATOM      8  H5  UNL     1       4.964  22.697  72.005  1.00  0.00     0.206 HD
ENDROOT
BRANCH   1   9
HETATM    9  N1  UNL     1       6.404  20.608  70.934  1.00  0.00    -0.224 N 
ATOM     10  H1  UNL     1       5.868  21.041  70.182  1.00  0.00     0.177 HD
BRANCH   9  11
HETATM   11  C3  UNL     1       7.386  19.624  70.594  1.00  0.00     0.140 C 
BRANCH  11  12
HETATM   12  C2  UNL     1       8.758  20.286  70.422  1.00  0.00     0.046 C 
BRANCH  12  13
HETATM   13  C1  UNL     1       9.525  20.259  71.726  1.00  0.00     0.165 C 
BRANCH  13  14
HETATM   14  O1  UNL     1      10.647  19.460  71.519  1.00  0.00    -0.401 OA
ATOM     15  H1  UNL     1      10.628  19.188  70.609  1.00  0.00     0.209 HD
ENDBRANCH  13  14
ENDBRANCH  12  13
ENDBRANCH  11  12
ENDBRANCH   9  11
ENDBRANCH   1   9
BRANCH   4  16
HETATM   16  N3  UNL     1       6.419  20.681  75.716  1.00  0.00    -0.216 N 
HETATM   17  C6  UNL     1       6.720  19.364  76.175  1.00  0.00     0.141 C 
HETATM   18  C7  UNL     1       6.292  19.074  77.575  1.00  0.00     0.020 C 
HETATM   19  C8  UNL     1       6.602  20.174  78.548  1.00  0.00     0.003 C 
HETATM   20  C9  UNL     1       7.284  21.323  77.842  1.00  0.00     0.020 C 
HETATM   21  C10 UNL     1       6.349  21.753  76.715  1.00  0.00     0.141 C 
ENDBRANCH   4  16
TORSDOF 6
ENDMDL
MODEL 2
REMARK VINA RESULT: -6.307098340      0.896      1.276
REMARK  6 active torsions:
REMARK  status: ('A' for Active; 'I' for Inactive)
REMARK    1  A    between atoms: O1_1  and  C1_3 
REMARK    2  A    between atoms: C1_3  and  C2_4 
REMARK    3  A    between atoms: C2_4  and  C3_5 
REMARK    4  A    between atoms: C3_5  and  N1_6 
REMARK    5  A    between atoms: N1_6  and  C4_8 
REMARK    6  A    between atoms: C5_11  and  N3_12 
ROOT
HETATM    1  C4  UNL     1       6.107  20.118  72.180  1.00  0.00     0.707 A 
HETATM    2  N2  UNL     1       6.472  20.749  73.310  1.00  0.00    -0.020 N 
ATOM      3  H2  UNL     1       6.863  21.689  73.366  1.00  0.00     0.203 HD
HETATM    4  C5  UNL     1       6.236  19.938  74.351  1.00  0.00     0.709 A 
HETATM    5  N4  UNL     1       5.721  18.790  73.880  1.00  0.00    -0.117 N 
ATOM      6  H4  UNL     1       5.441  17.979  74.433  1.00  0.00     0.206 HD
HETATM    7  N5  UNL     1       5.646  18.909  72.547  1.00  0.00    -0.117 N 
ATOM      8  H5  UNL     1       5.293  18.195  71.911  1.00  0.00     0.206 HD
ENDROOT
BRANCH   1   9
HETATM    9  N1  UNL     1       6.204  20.623  70.984  1.00  0.00    -0.224 N 
ATOM     10  H1  UNL     1       5.366  21.011  70.550  1.00  0.00     0.177 HD
BRANCH   9  11
HETATM   11  C3  UNL     1       7.432  20.661  70.252  1.00  0.00     0.140 C 
BRANCH  11  12
HETATM   12  C2  UNL     1       8.432  19.665  70.851  1.00  0.00     0.046 C 
BRANCH  12  13
HETATM   13  C1  UNL     1       9.508  20.396  71.624  1.00  0.00     0.165 C 
BRANCH  13  14
HETATM   14  O1  UNL     1      10.622  19.560  71.658  1.00  0.00    -0.401 OA
ATOM     15  H1  UNL     1      11.339  20.069  72.018  1.00  0.00     0.209 HD
ENDBRANCH  13  14
ENDBRANCH  12  13
ENDBRANCH  11  12
ENDBRANCH   9  11
ENDBRANCH   1   9
BRANCH   4  16
HETATM   16  N3  UNL     1       6.464  20.177  75.739  1.00  0.00    -0.216 N 
HETATM   17  C6  UNL     1       6.899  19.159  76.638  1.00  0.00     0.141 C 
HETATM   18  C7  UNL     1       6.469  19.348  78.055  1.00  0.00     0.020 C 
HETATM   19  C8  UNL     1       6.627  20.752  78.559  1.00  0.00     0.003 C 
HETATM   20  C9  UNL     1       7.194  21.638  77.474  1.00  0.00     0.020 C 
HETATM   21  C10 UNL     1       6.247  21.521  76.282  1.00  0.00     0.141 C 
ENDBRANCH   4  16
TORSDOF 6
ENDMDL
MODEL 3
REMARK VINA RESULT: -6.276944825      0.896      1.740
REMARK  6 active torsions:
REMARK  status: ('A' for Active; 'I' for Inactive)
REMARK    1  A    between atoms: O1_1  and  C1_3 
REMARK    2  A    between atoms: C1_3  and  C2_4 
REMARK    3  A    between atoms: C2_4  and  C3_5 
REMARK    4  A    between atoms: C3_5  and  N1_6 
REMARK    5  A    between atoms: N1_6  and  C4_8 
REMARK    6  A    between atoms: C5_11  and  N3_12 
ROOT
HETATM    1  C4  UNL     1       6.094  20.155  72.122  1.00  0.00     0.707 A 
HETATM    2  N2  UNL     1       6.435  20.823  73.239  1.00  0.00    -0.020 N 
ATOM      3  H2  UNL     1       6.825  21.765  73.272  1.00  0.00     0.203 HD
HETATM    4  C5  UNL     1       6.179  20.045  74.300  1.00  0.00     0.709 A 
HETATM    5  N4  UNL     1       5.675  18.883  73.856  1.00  0.00    -0.117 N 
ATOM      6  H4  UNL     1       5.384  18.090  74.429  1.00  0.00     0.206 HD
HETATM    7  N5  UNL     1       5.625  18.959  72.519  1.00  0.00    -0.117 N 
ATOM      8  H5  UNL     1       5.286  18.224  71.899  1.00  0.00     0.206 HD
ENDROOT
BRANCH   1   9
HETATM    9  N1  UNL     1       6.214  20.622  70.913  1.00  0.00    -0.224 N 
ATOM     10  H1  UNL     1       5.387  21.005  70.454  1.00  0.00     0.177 HD
BRANCH   9  11
HETATM   11  C3  UNL     1       7.453  20.623  70.199  1.00  0.00     0.140 C 
BRANCH  11  12
HETATM   12  C2  UNL     1       8.435  19.639  70.846  1.00  0.00     0.046 C 
BRANCH  12  13
HETATM   13  C1  UNL     1       9.498  20.386  71.622  1.00  0.00     0.165 C 
BRANCH  13  14
HETATM   14  O1  UNL     1      10.627  19.571  71.648  1.00  0.00    -0.401 OA
ATOM     15  H1  UNL     1      10.320  18.677  71.741  1.00  0.00     0.209 HD
ENDBRANCH  13  14
ENDBRANCH  12  13
ENDBRANCH  11  12
ENDBRANCH   9  11
ENDBRANCH   1   9
BRANCH   4  16
HETATM   16  N3  UNL     1       6.380  20.330  75.684  1.00  0.00    -0.216 N 
HETATM   17  C6  UNL     1       6.278  21.645  76.226  1.00  0.00     0.141 C 
HETATM   18  C7  UNL     1       7.115  21.892  77.436  1.00  0.00     0.020 C 
HETATM   19  C8  UNL     1       7.071  20.782  78.446  1.00  0.00     0.003 C 
HETATM   20  C9  UNL     1       6.168  19.670  77.964  1.00  0.00     0.020 C 
HETATM   21  C10 UNL     1       6.707  19.236  76.603  1.00  0.00     0.141 C 
ENDBRANCH   4  16
TORSDOF 6
ENDMDL
MODEL 4
REMARK VINA RESULT: -6.116559755      0.225      1.253
REMARK  6 active torsions:
REMARK  status: ('A' for Active; 'I' for Inactive)
REMARK    1  A    between atoms: O1_1  and  C1_3 
REMARK    2  A    between atoms: C1_3  and  C2_4 
REMARK    3  A    between atoms: C2_4  and  C3_5 
REMARK    4  A    between atoms: C3_5  and  N1_6 
REMARK    5  A    between atoms: N1_6  and  C4_8 
REMARK    6  A    between atoms: C5_11  and  N3_12 
ROOT
HETATM    1  C4  UNL     1       6.158  21.060  72.108  1.00  0.00     0.707 A 
HETATM    2  N2  UNL     1       6.597  20.461  73.229  1.00  0.00    -0.020 N 
ATOM      3  H2  UNL     1       7.181  19.626  73.267  1.00  0.00     0.203 HD
HETATM    4  C5  UNL     1       6.138  21.143  74.288  1.00  0.00     0.709 A 
HETATM    5  N4  UNL     1       5.407  22.175  73.838  1.00  0.00    -0.117 N 
ATOM      6  H4  UNL     1       4.927  22.873  74.408  1.00  0.00     0.206 HD
HETATM    7  N5  UNL     1       5.425  22.117  72.499  1.00  0.00    -0.117 N 
ATOM      8  H5  UNL     1       4.956  22.772  71.875  1.00  0.00     0.206 HD
ENDROOT
BRANCH   1   9
HETATM    9  N1  UNL     1       6.421  20.654  70.899  1.00  0.00    -0.224 N 
ATOM     10  H1  UNL     1       5.925  21.088  70.120  1.00  0.00     0.177 HD
BRANCH   9  11
HETATM   11  C3  UNL     1       7.374  19.627  70.614  1.00  0.00     0.140 C 
BRANCH  11  12
HETATM   12  C2  UNL     1       8.768  20.238  70.431  1.00  0.00     0.046 C 
BRANCH  12  13
HETATM   13  C1  UNL     1       9.527  20.223  71.740  1.00  0.00     0.165 C 
BRANCH  13  14
HETATM   14  O1  UNL     1      10.683  19.474  71.529  1.00  0.00    -0.401 OA
ATOM     15  H1  UNL     1      11.223  19.965  70.920  1.00  0.00     0.209 HD
ENDBRANCH  13  14
ENDBRANCH  12  13
ENDBRANCH  11  12
ENDBRANCH   9  11
ENDBRANCH   1   9
BRANCH   4  16
HETATM   16  N3  UNL     1       6.344  20.881  75.676  1.00  0.00    -0.216 N 
HETATM   17  C6  UNL     1       6.420  21.915  76.655  1.00  0.00     0.141 C 
HETATM   18  C7  UNL     1       7.254  21.590  77.849  1.00  0.00     0.020 C 
HETATM   19  C8  UNL     1       7.027  20.210  78.395  1.00  0.00     0.003 C 
HETATM   20  C9  UNL     1       5.986  19.486  77.574  1.00  0.00     0.020 C 
HETATM   21  C10 UNL     1       6.489  19.495  76.133  1.00  0.00     0.141 C 
ENDBRANCH   4  16
TORSDOF 6
ENDMDL
MODEL 5
REMARK VINA RESULT: -5.866981699      2.196      5.912
REMARK  6 active torsions:
REMARK  status: ('A' for Active; 'I' for Inactive)
REMARK    1  A    between atoms: O1_1  and  C1_3 
REMARK    2  A    between atoms: C1_3  and  C2_4 
REMARK    3  A    between atoms: C2_4  and  C3_5 
REMARK    4  A    between atoms: C3_5  and  N1_6 
REMARK    5  A    between atoms: N1_6  and  C4_8 
REMARK    6  A    between atoms: C5_11  and  N3_12 
ROOT
HETATM    1  C4  UNL     1       6.168  19.611  75.785  1.00  0.00     0.707 A 
HETATM    2  N2  UNL     1       6.999  19.253  74.790  1.00  0.00    -0.020 N 
ATOM      3  H2  UNL     1       7.678  18.492  74.827  1.00  0.00     0.203 HD
HETATM    4  C5  UNL     1       6.788  20.061  73.742  1.00  0.00     0.709 A 
HETATM    5  N4  UNL     1       5.822  20.933  74.072  1.00  0.00    -0.117 N 
ATOM      6  H4  UNL     1       5.445  21.673  73.480  1.00  0.00     0.206 HD
HETATM    7  N5  UNL     1       5.447  20.649  75.327  1.00  0.00    -0.117 N 
ATOM      8  H5  UNL     1       4.728  21.144  75.854  1.00  0.00     0.206 HD
ENDROOT
BRANCH   1   9
HETATM    9  N1  UNL     1       6.112  19.031  76.949  1.00  0.00    -0.224 N 
ATOM     10  H1  UNL     1       5.409  18.306  77.100  1.00  0.00     0.177 HD
BRANCH   9  11
HETATM   11  C3  UNL     1       6.993  19.362  78.027  1.00  0.00     0.140 C 
BRANCH  11  12
HETATM   12  C2  UNL     1       6.647  20.750  78.581  1.00  0.00     0.046 C 
BRANCH  12  13
HETATM   13  C1  UNL     1       7.613  21.786  78.051  1.00  0.00     0.165 C 
BRANCH  13  14
HETATM   14  O1  UNL     1       6.890  22.614  77.196  1.00  0.00    -0.401 OA
ATOM     15  H1  UNL     1       6.867  23.475  77.598  1.00  0.00     0.209 HD
ENDBRANCH  13  14
ENDBRANCH  12  13
ENDBRANCH  11  12
ENDBRANCH   9  11
ENDBRANCH   1   9
BRANCH   4  16
HETATM   16  N3  UNL     1       7.434  20.059  72.469  1.00  0.00    -0.216 N 
HETATM   17  C6  UNL     1       8.850  19.976  72.321  1.00  0.00     0.141 C 
HETATM   18  C7  UNL     1       9.391  20.625  71.090  1.00  0.00     0.020 C 
HETATM   19  C8  UNL     1       8.602  20.332  69.848  1.00  0.00     0.003 C 
HETATM   20  C9  UNL     1       7.431  19.433  70.170  1.00  0.00     0.020 C 
HETATM   21  C10 UNL     1       6.623  20.147  71.251  1.00  0.00     0.141 C 
ENDBRANCH   4  16
TORSDOF 6
ENDMDL
