MODEL 1
REMARK VINA RESULT: -7.532229076      0.000      0.000
REMARK  5 active torsions:
REMARK  status: ('A' for Active; 'I' for Inactive)
REMARK    1  A    between atoms: C2_2  and  C3_3 
REMARK    2  A    between atoms: N2_8  and  C6_9 
REMARK    3  A    between atoms: C6_9  and  C7_10 
REMARK    4  A    between atoms: C11_14  and  C12_16 
REMARK       I    between atoms: C12_16  and  N3_18 
REMARK    5  A    between atoms: N3_18  and  C13_20 
REMARK       I    between atoms: N5_26  and  C18_27 
ROOT
HETATM    1  C13 UNL     1       3.290   3.622  22.137  1.00  0.00     0.123 C 
HETATM    2  C14 UNL     1       2.329   3.852  21.035  1.00  0.00     0.091 C 
HETATM    3  N4  UNL     1       1.588   4.049  20.177  1.00  0.00    -0.195 NA
HETATM    4  C15 UNL     1       4.166   2.456  21.787  1.00  0.00     0.048 C 
HETATM    5  C16 UNL     1       3.830   1.205  22.554  1.00  0.00     0.023 C 
HETATM    6  C17 UNL     1       2.456   0.680  22.220  1.00  0.00     0.126 C 
HETATM    7  N5  UNL     1       1.514   1.302  23.109  1.00  0.00    -0.352 N 
HETATM    8  C18 UNL     1       0.795   0.423  23.942  1.00  0.00     0.215 C 
HETATM    9  C19 UNL     1       1.020  -1.045  23.876  1.00  0.00     0.117 C 
HETATM   10  O2  UNL     1      -0.071   0.828  24.781  1.00  0.00    -0.274 OA
HETATM   11  C20 UNL     1       1.225   2.701  23.245  1.00  0.00     0.129 C 
HETATM   12  C21 UNL     1       2.518   3.450  23.403  1.00  0.00     0.066 C 
ENDROOT
BRANCH   1  13
HETATM   13  N3  UNL     1       4.143   4.806  22.240  1.00  0.00    -0.337 N 
HETATM   14  C12 UNL     1       3.624   6.075  22.588  1.00  0.00     0.243 C 
HETATM   15  O1  UNL     1       2.395   6.188  22.815  1.00  0.00    -0.271 OA
ATOM     16  H3  UNL     1       5.141   4.713  22.055  1.00  0.00     0.164 HD
BRANCH  14  17
HETATM   17  C11 UNL     1       4.509   7.255  22.685  1.00  0.00     0.127 C 
HETATM   18  C10 UNL     1       5.006   7.511  24.083  1.00  0.00     0.095 C 
HETATM   19  C5  UNL     1       6.407   7.980  23.907  1.00  0.00     0.036 A 
HETATM   20  C4  UNL     1       6.808   7.774  22.614  1.00  0.00    -0.007 A 
HETATM   21  N1  UNL     1       7.430   8.535  24.557  1.00  0.00    -0.302 N 
HETATM   22  C3  UNL     1       8.117   8.241  22.559  1.00  0.00     0.036 A 
HETATM   23  C22 UNL     1       5.715   7.149  21.806  1.00  0.00     0.078 C 
HETATM   24  N2  UNL     1       8.479   8.706  23.767  1.00  0.00    -0.295 N 
ATOM     25  H1  UNL     1       7.407   8.797  25.543  1.00  0.00     0.186 HD
HETATM   26 CL1  UNL     1       3.566   8.681  22.128  1.00  0.00    -0.108 Cl
BRANCH  22  27
HETATM   27  C2  UNL     1       8.924   8.195  21.305  1.00  0.00     0.055 C 
HETATM   28  C1  UNL     1       8.447   9.361  20.433  1.00  0.00     0.011 C 
ENDBRANCH  22  27
BRANCH  24  29
HETATM   29  C6  UNL     1       9.764   9.278  24.122  1.00  0.00     0.153 C 
BRANCH  29  30
HETATM   30  C7  UNL     1      10.660   8.263  24.790  1.00  0.00     0.005 A 
HETATM   31  C8  UNL     1      11.397   8.825  26.008  1.00  0.00     0.007 A 
HETATM   32  C9  UNL     1      10.386   7.726  26.125  1.00  0.00     0.007 A 
ENDBRANCH  29  30
ENDBRANCH  24  29
ENDBRANCH  14  17
ENDBRANCH   1  13
TORSDOF 5
ENDMDL
MODEL 2
REMARK VINA RESULT: -7.528749098      4.904      9.748
REMARK  5 active torsions:
REMARK  status: ('A' for Active; 'I' for Inactive)
REMARK    1  A    between atoms: C2_2  and  C3_3 
REMARK    2  A    between atoms: N2_8  and  C6_9 
REMARK    3  A    between atoms: C6_9  and  C7_10 
REMARK    4  A    between atoms: C11_14  and  C12_16 
REMARK       I    between atoms: C12_16  and  N3_18 
REMARK    5  A    between atoms: N3_18  and  C13_20 
REMARK       I    between atoms: N5_26  and  C18_27 
ROOT
HETATM    1  C13 UNL     1       7.000   6.827  21.061  1.00  0.00     0.123 C 
HETATM    2  C14 UNL     1       6.031   7.004  22.166  1.00  0.00     0.091 C 
HETATM    3  N4  UNL     1       5.274   7.122  23.024  1.00  0.00    -0.195 NA
HETATM    4  C15 UNL     1       8.366   7.221  21.539  1.00  0.00     0.048 C 
HETATM    5  C16 UNL     1       8.828   8.548  21.000  1.00  0.00     0.023 C 
HETATM    6  C17 UNL     1       7.978   9.694  21.491  1.00  0.00     0.126 C 
HETATM    7  N5  UNL     1       6.888   9.865  20.570  1.00  0.00    -0.352 N 
HETATM    8  C18 UNL     1       6.827  11.117  19.928  1.00  0.00     0.215 C 
HETATM    9  C19 UNL     1       7.839  12.168  20.212  1.00  0.00     0.117 C 
HETATM   10  O2  UNL     1       5.920  11.413  19.088  1.00  0.00    -0.274 OA
HETATM   11  C20 UNL     1       5.866   8.916  20.233  1.00  0.00     0.129 C 
HETATM   12  C21 UNL     1       6.515   7.607  19.884  1.00  0.00     0.066 C 
ENDROOT
BRANCH   1  13
HETATM   13  N3  UNL     1       7.039   5.404  20.724  1.00  0.00    -0.337 N 
HETATM   14  C12 UNL     1       5.917   4.732  20.184  1.00  0.00     0.243 C 
HETATM   15  O1  UNL     1       4.858   5.376  19.988  1.00  0.00    -0.271 OA
ATOM     16  H3  UNL     1       7.900   4.882  20.884  1.00  0.00     0.164 HD
BRANCH  14  17
HETATM   17  C11 UNL     1       5.984   3.293  19.852  1.00  0.00     0.127 C 
HETATM   18  C10 UNL     1       4.947   2.866  18.849  1.00  0.00     0.095 C 
HETATM   19  C5  UNL     1       5.636   1.860  17.995  1.00  0.00     0.036 A 
HETATM   20  C4  UNL     1       6.980   1.872  18.255  1.00  0.00    -0.007 A 
HETATM   21  N1  UNL     1       5.420   0.938  17.058  1.00  0.00    -0.302 N 
HETATM   22  C3  UNL     1       7.523   0.907  17.413  1.00  0.00     0.036 A 
HETATM   23  C22 UNL     1       7.316   2.885  19.303  1.00  0.00     0.078 C 
HETATM   24  N2  UNL     1       6.543   0.344  16.685  1.00  0.00    -0.295 N 
ATOM     25  H1  UNL     1       4.502   0.717  16.673  1.00  0.00     0.186 HD
HETATM   26 CL1  UNL     1       5.735   2.378  21.379  1.00  0.00    -0.108 Cl
BRANCH  22  27
HETATM   27  C2  UNL     1       8.985   0.607  17.389  1.00  0.00     0.055 C 
HETATM   28  C1  UNL     1       9.487   0.752  18.830  1.00  0.00     0.011 C 
ENDBRANCH  22  27
BRANCH  24  29
HETATM   29  C6  UNL     1       6.699  -0.703  15.694  1.00  0.00     0.153 C 
BRANCH  29  30
HETATM   30  C7  UNL     1       5.368  -1.148  15.139  1.00  0.00     0.005 A 
HETATM   31  C8  UNL     1       5.500  -2.006  13.879  1.00  0.00     0.007 A 
HETATM   32  C9  UNL     1       4.933  -2.547  15.155  1.00  0.00     0.007 A 
ENDBRANCH  29  30
ENDBRANCH  24  29
ENDBRANCH  14  17
ENDBRANCH   1  13
TORSDOF 5
ENDMDL
MODEL 3
REMARK VINA RESULT: -7.466878217      4.400      7.123
REMARK  5 active torsions:
REMARK  status: ('A' for Active; 'I' for Inactive)
REMARK    1  A    between atoms: C2_2  and  C3_3 
REMARK    2  A    between atoms: N2_8  and  C6_9 
REMARK    3  A    between atoms: C6_9  and  C7_10 
REMARK    4  A    between atoms: C11_14  and  C12_16 
REMARK       I    between atoms: C12_16  and  N3_18 
REMARK    5  A    between atoms: N3_18  and  C13_20 
REMARK       I    between atoms: N5_26  and  C18_27 
ROOT
HETATM    1  C13 UNL     1       2.909   8.295  23.053  1.00  0.00     0.123 C 
HETATM    2  C14 UNL     1       3.899   8.949  23.938  1.00  0.00     0.091 C 
HETATM    3  N4  UNL     1       4.683   9.445  24.618  1.00  0.00    -0.195 NA
HETATM    4  C15 UNL     1       2.257   9.337  22.194  1.00  0.00     0.048 C 
HETATM    5  C16 UNL     1       0.849   9.662  22.614  1.00  0.00     0.023 C 
HETATM    6  C17 UNL     1       0.791  10.298  23.981  1.00  0.00     0.126 C 
HETATM    7  N5  UNL     1       0.683   9.247  24.955  1.00  0.00    -0.352 N 
HETATM    8  C18 UNL     1      -0.479   9.275  25.751  1.00  0.00     0.215 C 
HETATM    9  C19 UNL     1      -1.502  10.338  25.568  1.00  0.00     0.117 C 
HETATM   10  O2  UNL     1      -0.712   8.410  26.654  1.00  0.00    -0.274 OA
HETATM   11  C20 UNL     1       1.614   8.185  25.209  1.00  0.00     0.129 C 
HETATM   12  C21 UNL     1       1.959   7.522  23.905  1.00  0.00     0.066 C 
ENDROOT
BRANCH   1  13
HETATM   13  N3  UNL     1       3.634   7.380  22.172  1.00  0.00    -0.337 N 
HETATM   14  C12 UNL     1       4.601   7.840  21.248  1.00  0.00     0.243 C 
HETATM   15  O1  UNL     1       4.845   9.069  21.183  1.00  0.00    -0.271 OA
ATOM     16  H3  UNL     1       3.435   6.381  22.225  1.00  0.00     0.164 HD
BRANCH  14  17
HETATM   17  C11 UNL     1       5.320   6.893  20.369  1.00  0.00     0.127 C 
HETATM   18  C10 UNL     1       6.678   6.510  20.892  1.00  0.00     0.095 C 
HETATM   19  C5  UNL     1       6.828   5.071  20.543  1.00  0.00     0.036 A 
HETATM   20  C4  UNL     1       5.627   4.568  20.120  1.00  0.00    -0.007 A 
HETATM   21  N1  UNL     1       7.715   4.078  20.491  1.00  0.00    -0.302 N 
HETATM   22  C3  UNL     1       5.875   3.232  19.823  1.00  0.00     0.036 A 
HETATM   23  C22 UNL     1       4.563   5.620  20.145  1.00  0.00     0.078 C 
HETATM   24  N2  UNL     1       7.168   2.953  20.059  1.00  0.00    -0.295 N 
ATOM     25  H1  UNL     1       8.696   4.174  20.752  1.00  0.00     0.186 HD
HETATM   26 CL1  UNL     1       5.511   7.687  18.767  1.00  0.00    -0.108 Cl
BRANCH  22  27
HETATM   27  C2  UNL     1       4.806   2.319  19.321  1.00  0.00     0.055 C 
HETATM   28  C1  UNL     1       4.820   2.423  17.793  1.00  0.00     0.011 C 
ENDBRANCH  22  27
BRANCH  24  29
HETATM   29  C6  UNL     1       7.821   1.671  19.872  1.00  0.00     0.153 C 
BRANCH  29  30
HETATM   30  C7  UNL     1       8.648   1.645  18.609  1.00  0.00     0.005 A 
HETATM   31  C8  UNL     1       9.799   0.638  18.667  1.00  0.00     0.007 A 
HETATM   32  C9  UNL     1       8.664   0.497  17.699  1.00  0.00     0.007 A 
ENDBRANCH  29  30
ENDBRANCH  24  29
ENDBRANCH  14  17
ENDBRANCH   1  13
TORSDOF 5
ENDMDL
MODEL 4
REMARK VINA RESULT: -7.413331790      1.031      1.079
REMARK  5 active torsions:
REMARK  status: ('A' for Active; 'I' for Inactive)
REMARK    1  A    between atoms: C2_2  and  C3_3 
REMARK    2  A    between atoms: N2_8  and  C6_9 
REMARK    3  A    between atoms: C6_9  and  C7_10 
REMARK    4  A    between atoms: C11_14  and  C12_16 
REMARK       I    between atoms: C12_16  and  N3_18 
REMARK    5  A    between atoms: N3_18  and  C13_20 
REMARK       I    between atoms: N5_26  and  C18_27 
ROOT
HETATM    1  C13 UNL     1       3.032   3.814  21.787  1.00  0.00     0.123 C 
HETATM    2  C14 UNL     1       1.612   4.224  21.848  1.00  0.00     0.091 C 
HETATM    3  N4  UNL     1       0.513   4.562  21.899  1.00  0.00    -0.195 NA
HETATM    4  C15 UNL     1       3.288   3.128  20.477  1.00  0.00     0.048 C 
HETATM    5  C16 UNL     1       3.431   1.635  20.603  1.00  0.00     0.023 C 
HETATM    6  C17 UNL     1       2.156   0.973  21.064  1.00  0.00     0.126 C 
HETATM    7  N5  UNL     1       2.163   0.947  22.500  1.00  0.00    -0.352 N 
HETATM    8  C18 UNL     1       2.119  -0.334  23.084  1.00  0.00     0.215 C 
HETATM    9  C19 UNL     1       2.067  -1.555  22.238  1.00  0.00     0.117 C 
HETATM   10  O2  UNL     1       2.120  -0.514  24.343  1.00  0.00    -0.274 OA
HETATM   11  C20 UNL     1       2.207   2.065  23.399  1.00  0.00     0.129 C 
HETATM   12  C21 UNL     1       3.329   2.975  22.985  1.00  0.00     0.066 C 
ENDROOT
BRANCH   1  13
HETATM   13  N3  UNL     1       3.850   5.026  21.821  1.00  0.00    -0.337 N 
HETATM   14  C12 UNL     1       3.820   5.917  22.919  1.00  0.00     0.243 C 
HETATM   15  O1  UNL     1       3.069   5.661  23.892  1.00  0.00    -0.271 OA
ATOM     16  H3  UNL     1       4.459   5.234  21.031  1.00  0.00     0.164 HD
BRANCH  14  17
HETATM   17  C11 UNL     1       4.657   7.136  22.929  1.00  0.00     0.127 C 
HETATM   18  C10 UNL     1       5.219   7.459  24.286  1.00  0.00     0.095 C 
HETATM   19  C5  UNL     1       6.587   7.980  24.017  1.00  0.00     0.036 A 
HETATM   20  C4  UNL     1       6.924   7.748  22.710  1.00  0.00    -0.007 A 
HETATM   21  N1  UNL     1       7.620   8.599  24.589  1.00  0.00    -0.302 N 
HETATM   22  C3  UNL     1       8.206   8.266  22.566  1.00  0.00     0.036 A 
HETATM   23  C22 UNL     1       5.816   7.051  21.985  1.00  0.00     0.078 C 
HETATM   24  N2  UNL     1       8.614   8.786  23.736  1.00  0.00    -0.295 N 
ATOM     25  H1  UNL     1       7.641   8.892  25.566  1.00  0.00     0.186 HD
HETATM   26 CL1  UNL     1       3.624   8.502  22.382  1.00  0.00    -0.108 Cl
BRANCH  22  27
HETATM   27  C2  UNL     1       8.943   8.212  21.269  1.00  0.00     0.055 C 
HETATM   28  C1  UNL     1       8.377   9.336  20.394  1.00  0.00     0.011 C 
ENDBRANCH  22  27
BRANCH  24  29
HETATM   29  C6  UNL     1       9.892   9.423  23.998  1.00  0.00     0.153 C 
BRANCH  29  30
HETATM   30  C7  UNL     1      10.868   8.468  24.643  1.00  0.00     0.005 A 
HETATM   31  C8  UNL     1      11.434   8.993  25.964  1.00  0.00     0.007 A 
HETATM   32  C9  UNL     1      10.576   7.767  25.895  1.00  0.00     0.007 A 
ENDBRANCH  29  30
ENDBRANCH  24  29
ENDBRANCH  14  17
ENDBRANCH   1  13
TORSDOF 5
ENDMDL
MODEL 5
REMARK VINA RESULT: -7.364019740      4.473      5.550
REMARK  5 active torsions:
REMARK  status: ('A' for Active; 'I' for Inactive)
REMARK    1  A    between atoms: C2_2  and  C3_3 
REMARK    2  A    between atoms: N2_8  and  C6_9 
REMARK    3  A    between atoms: C6_9  and  C7_10 
REMARK    4  A    between atoms: C11_14  and  C12_16 
REMARK       I    between atoms: C12_16  and  N3_18 
REMARK    5  A    between atoms: N3_18  and  C13_20 
REMARK       I    between atoms: N5_26  and  C18_27 
ROOT
HETATM    1  C13 UNL     1       5.833   2.687  18.247  1.00  0.00     0.123 C 
HETATM    2  C14 UNL     1       7.020   1.834  18.475  1.00  0.00     0.091 C 
HETATM    3  N4  UNL     1       7.949   1.182  18.667  1.00  0.00    -0.195 NA
HETATM    4  C15 UNL     1       4.594   1.864  18.437  1.00  0.00     0.048 C 
HETATM    5  C16 UNL     1       3.907   1.512  17.144  1.00  0.00     0.023 C 
HETATM    6  C17 UNL     1       4.752   0.617  16.272  1.00  0.00     0.126 C 
HETATM    7  N5  UNL     1       5.571   1.453  15.439  1.00  0.00    -0.352 N 
HETATM    8  C18 UNL     1       5.372   1.308  14.052  1.00  0.00     0.215 C 
HETATM    9  C19 UNL     1       4.374   0.342  13.522  1.00  0.00     0.117 C 
HETATM   10  O2  UNL     1       6.024   1.982  13.192  1.00  0.00    -0.274 OA
HETATM   11  C20 UNL     1       6.558   2.409  15.852  1.00  0.00     0.129 C 
HETATM   12  C21 UNL     1       5.955   3.307  16.895  1.00  0.00     0.066 C 
ENDROOT
BRANCH   1  13
HETATM   13  N3  UNL     1       5.833   3.734  19.269  1.00  0.00    -0.337 N 
HETATM   14  C12 UNL     1       4.877   4.777  19.272  1.00  0.00     0.243 C 
HETATM   15  O1  UNL     1       4.004   4.804  18.371  1.00  0.00    -0.271 OA
ATOM     16  H3  UNL     1       6.543   3.711  20.000  1.00  0.00     0.164 HD
BRANCH  14  17
HETATM   17  C11 UNL     1       4.900   5.822  20.317  1.00  0.00     0.127 C 
HETATM   18  C10 UNL     1       5.266   5.294  21.677  1.00  0.00     0.095 C 
HETATM   19  C5  UNL     1       6.099   6.364  22.289  1.00  0.00     0.036 A 
HETATM   20  C4  UNL     1       6.433   7.293  21.340  1.00  0.00    -0.007 A 
HETATM   21  N1  UNL     1       6.648   6.756  23.439  1.00  0.00    -0.302 N 
HETATM   22  C3  UNL     1       7.203   8.238  22.009  1.00  0.00     0.036 A 
HETATM   23  C22 UNL     1       5.856   6.932  20.008  1.00  0.00     0.078 C 
HETATM   24  N2  UNL     1       7.322   7.887  23.301  1.00  0.00    -0.295 N 
ATOM     25  H1  UNL     1       6.559   6.247  24.318  1.00  0.00     0.186 HD
HETATM   26 CL1  UNL     1       3.254   6.543  20.391  1.00  0.00    -0.108 Cl
BRANCH  22  27
HETATM   27  C2  UNL     1       7.772   9.432  21.317  1.00  0.00     0.055 C 
HETATM   28  C1  UNL     1       9.098   8.987  20.692  1.00  0.00     0.011 C 
ENDBRANCH  22  27
BRANCH  24  29
HETATM   29  C6  UNL     1       8.047   8.611  24.328  1.00  0.00     0.153 C 
BRANCH  29  30
HETATM   30  C7  UNL     1       9.498   8.197  24.384  1.00  0.00     0.005 A 
HETATM   31  C8  UNL     1      10.463   9.364  24.168  1.00  0.00     0.007 A 
HETATM   32  C9  UNL     1      10.397   8.614  25.463  1.00  0.00     0.007 A 
ENDBRANCH  29  30
ENDBRANCH  24  29
ENDBRANCH  14  17
ENDBRANCH   1  13
TORSDOF 5
ENDMDL
