MODEL 1
REMARK VINA RESULT: -6.950679978      0.000      0.000
REMARK  5 active torsions:
REMARK  status: ('A' for Active; 'I' for Inactive)
REMARK    1  A    between atoms: S1_2  and  C2_3 
REMARK    2  A    between atoms: N1_8  and  C5_9 
REMARK    3  A    between atoms: C5_9  and  C6_10 
REMARK    4  A    between atoms: N2_17  and  C11_18 
REMARK    5  A    between atoms: C18_25  and  C19_26 
ROOT
HETATM    1  C2  UNL     1       5.081   4.722  21.348  1.00  0.00     0.103 A 
HETATM    2  C3  UNL     1       4.272   3.603  21.528  1.00  0.00     0.113 A 
HETATM    3 BR1  UNL     1       4.462   2.046  20.423  1.00  0.00    -0.042 Br
HETATM    4  C4  UNL     1       3.297   3.544  22.497  1.00  0.00     0.272 A 
HETATM    5  O1  UNL     1       2.570   2.501  22.627  1.00  0.00    -0.266 OA
HETATM    6  N1  UNL     1       3.167   4.635  23.268  1.00  0.00    -0.262 N 
HETATM    7  C10 UNL     1       3.979   5.718  23.064  1.00  0.00     0.337 A 
HETATM    8  O3  UNL     1       3.769   6.670  23.830  1.00  0.00    -0.246 OA
HETATM    9  N2  UNL     1       4.926   5.812  22.146  1.00  0.00    -0.263 N 
ENDROOT
BRANCH   9  10
HETATM   10  C11 UNL     1       5.783   6.919  21.913  1.00  0.00     0.008 C 
HETATM   11  C12 UNL     1       7.071   6.872  22.703  1.00  0.00     0.034 C 
HETATM   12  C13 UNL     1       7.019   7.688  23.981  1.00  0.00     0.015 C 
HETATM   13  C21 UNL     1       8.159   7.512  21.845  1.00  0.00     0.031 C 
HETATM   14  C14 UNL     1       6.754   9.141  23.708  1.00  0.00    -0.012 C 
HETATM   15  C15 UNL     1       5.365   9.157  23.080  1.00  0.00     0.015 C 
HETATM   16  C20 UNL     1       7.792   9.712  22.814  1.00  0.00     0.025 C 
HETATM   17  C16 UNL     1       5.327   8.293  21.877  1.00  0.00     0.034 C 
HETATM   18  C17 UNL     1       6.377   9.011  20.954  1.00  0.00     0.031 C 
HETATM   19  C18 UNL     1       7.746   8.937  21.518  1.00  0.00     0.050 C 
BRANCH  19  20
HETATM   20  C19 UNL     1       8.712   9.433  20.527  1.00  0.00     0.181 C 
HETATM   21  O4  UNL     1       9.345   8.610  19.826  1.00  0.00    -0.647 OA
HETATM   22  O5  UNL     1       8.966  10.783  20.322  1.00  0.00    -0.647 OA
ENDBRANCH  19  20
ENDBRANCH   9  10
BRANCH   1  23
HETATM   23  S1  UNL     1       6.246   4.585  20.007  1.00  0.00    -0.115 SA
HETATM   24  C1  UNL     1       7.815   3.891  20.519  1.00  0.00     0.097 C 
ENDBRANCH   1  23
BRANCH   6  25
HETATM   25  C5  UNL     1       2.208   4.690  24.351  1.00  0.00     0.169 C 
BRANCH  25  26
HETATM   26  C6  UNL     1       0.773   4.784  23.937  1.00  0.00     0.140 C 
HETATM   27  C7  UNL     1       0.451   5.922  23.045  1.00  0.00     0.036 C 
HETATM   28  C8  UNL     1       0.187   7.037  24.068  1.00  0.00     0.029 C 
HETATM   29  C9  UNL     1      -0.483   6.205  25.160  1.00  0.00     0.168 C 
HETATM   30  O2  UNL     1       0.012   4.935  25.096  1.00  0.00    -0.384 OA
ENDBRANCH  25  26
ENDBRANCH   6  25
TORSDOF 5
ENDMDL
MODEL 2
REMARK VINA RESULT: -6.735288971      3.343      7.414
REMARK  5 active torsions:
REMARK  status: ('A' for Active; 'I' for Inactive)
REMARK    1  A    between atoms: S1_2  and  C2_3 
REMARK    2  A    between atoms: N1_8  and  C5_9 
REMARK    3  A    between atoms: C5_9  and  C6_10 
REMARK    4  A    between atoms: N2_17  and  C11_18 
REMARK    5  A    between atoms: C18_25  and  C19_26 
ROOT
HETATM    1  C2  UNL     1       5.456   9.449  20.884  1.00  0.00     0.103 A 
HETATM    2  C3  UNL     1       6.683   9.958  20.467  1.00  0.00     0.113 A 
HETATM    3 BR1  UNL     1       6.965  10.525  18.657  1.00  0.00    -0.042 Br
HETATM    4  C4  UNL     1       7.758  10.085  21.318  1.00  0.00     0.272 A 
HETATM    5  O1  UNL     1       8.869  10.551  20.897  1.00  0.00    -0.266 OA
HETATM    6  N1  UNL     1       7.555   9.687  22.585  1.00  0.00    -0.262 N 
HETATM    7  C10 UNL     1       6.336   9.191  22.960  1.00  0.00     0.337 A 
HETATM    8  O3  UNL     1       6.263   8.850  24.150  1.00  0.00    -0.246 OA
HETATM    9  N2  UNL     1       5.282   9.055  22.173  1.00  0.00    -0.263 N 
ENDROOT
BRANCH   9  10
HETATM   10  C11 UNL     1       4.006   8.547  22.535  1.00  0.00     0.008 C 
HETATM   11  C12 UNL     1       3.230   9.449  23.467  1.00  0.00     0.034 C 
HETATM   12  C13 UNL     1       3.362   9.055  24.927  1.00  0.00     0.015 C 
HETATM   13  C21 UNL     1       1.751   9.297  23.127  1.00  0.00     0.031 C 
HETATM   14  C14 UNL     1       2.854   7.664  25.180  1.00  0.00    -0.012 C 
HETATM   15  C15 UNL     1       3.783   6.773  24.364  1.00  0.00     0.015 C 
HETATM   16  C20 UNL     1       1.433   7.534  24.771  1.00  0.00     0.025 C 
HETATM   17  C16 UNL     1       3.774   7.176  22.939  1.00  0.00     0.034 C 
HETATM   18  C17 UNL     1       2.270   6.925  22.562  1.00  0.00     0.031 C 
HETATM   19  C18 UNL     1       1.360   7.839  23.293  1.00  0.00     0.050 C 
BRANCH  19  20
HETATM   20  C19 UNL     1      -0.003   7.709  22.755  1.00  0.00     0.181 C 
HETATM   21  O4  UNL     1      -0.160   7.576  21.520  1.00  0.00    -0.647 OA
HETATM   22  O5  UNL     1      -1.139   7.724  23.552  1.00  0.00    -0.647 OA
ENDBRANCH  19  20
ENDBRANCH   9  10
BRANCH   1  23
HETATM   23  S1  UNL     1       4.225   9.342  19.599  1.00  0.00    -0.115 SA
HETATM   24  C1  UNL     1       4.123   7.710  18.869  1.00  0.00     0.097 C 
ENDBRANCH   1  23
BRANCH   6  25
HETATM   25  C5  UNL     1       8.589   9.803  23.591  1.00  0.00     0.169 C 
BRANCH  25  26
HETATM   26  C6  UNL     1       9.491   8.618  23.730  1.00  0.00     0.140 C 
HETATM   27  C7  UNL     1       9.386   7.899  25.022  1.00  0.00     0.036 C 
HETATM   28  C8  UNL     1      10.369   8.699  25.889  1.00  0.00     0.029 C 
HETATM   29  C9  UNL     1      11.423   9.011  24.828  1.00  0.00     0.168 C 
HETATM   30  O2  UNL     1      10.804   9.074  23.614  1.00  0.00    -0.384 OA
ENDBRANCH  25  26
ENDBRANCH   6  25
TORSDOF 5
ENDMDL
MODEL 3
REMARK VINA RESULT: -6.682157474      3.355      7.162
REMARK  5 active torsions:
REMARK  status: ('A' for Active; 'I' for Inactive)
REMARK    1  A    between atoms: S1_2  and  C2_3 
REMARK    2  A    between atoms: N1_8  and  C5_9 
REMARK    3  A    between atoms: C5_9  and  C6_10 
REMARK    4  A    between atoms: N2_17  and  C11_18 
REMARK    5  A    between atoms: C18_25  and  C19_26 
ROOT
HETATM    1  C2  UNL     1       5.910   9.014  21.127  1.00  0.00     0.103 A 
HETATM    2  C3  UNL     1       7.245   9.235  20.796  1.00  0.00     0.113 A 
HETATM    3 BR1  UNL     1       7.737  10.091  19.151  1.00  0.00    -0.042 Br
HETATM    4  C4  UNL     1       8.282   8.858  21.619  1.00  0.00     0.272 A 
HETATM    5  O1  UNL     1       9.494   9.074  21.277  1.00  0.00    -0.266 OA
HETATM    6  N1  UNL     1       7.933   8.260  22.769  1.00  0.00    -0.262 N 
HETATM    7  C10 UNL     1       6.612   8.058  23.062  1.00  0.00     0.337 A 
HETATM    8  O3  UNL     1       6.406   7.494  24.147  1.00  0.00    -0.246 OA
HETATM    9  N2  UNL     1       5.589   8.406  22.300  1.00  0.00    -0.263 N 
ENDROOT
BRANCH   9  10
HETATM   10  C11 UNL     1       4.211   8.212  22.579  1.00  0.00     0.008 C 
HETATM   11  C12 UNL     1       3.687   9.074  23.705  1.00  0.00     0.034 C 
HETATM   12  C13 UNL     1       3.652   8.356  25.041  1.00  0.00     0.015 C 
HETATM   13  C21 UNL     1       2.236   9.421  23.381  1.00  0.00     0.031 C 
HETATM   14  C14 UNL     1       2.767   7.144  25.003  1.00  0.00    -0.012 C 
HETATM   15  C15 UNL     1       3.436   6.223  23.989  1.00  0.00     0.015 C 
HETATM   16  C20 UNL     1       1.381   7.509  24.616  1.00  0.00     0.025 C 
HETATM   17  C16 UNL     1       3.590   6.908  22.685  1.00  0.00     0.034 C 
HETATM   18  C17 UNL     1       2.089   7.177  22.304  1.00  0.00     0.031 C 
HETATM   19  C18 UNL     1       1.447   8.131  23.240  1.00  0.00     0.050 C 
BRANCH  19  20
HETATM   20  C19 UNL     1       0.122   8.507  22.725  1.00  0.00     0.181 C 
HETATM   21  O4  UNL     1      -0.096   8.435  21.493  1.00  0.00    -0.647 OA
HETATM   22  O5  UNL     1      -0.914   8.944  23.539  1.00  0.00    -0.647 OA
ENDBRANCH  19  20
ENDBRANCH   9  10
BRANCH   1  23
HETATM   23  S1  UNL     1       4.744   9.551  19.892  1.00  0.00    -0.115 SA
HETATM   24  C1  UNL     1       4.202   8.220  18.823  1.00  0.00     0.097 C 
ENDBRANCH   1  23
BRANCH   6  25
HETATM   25  C5  UNL     1       8.923   7.851  23.742  1.00  0.00     0.169 C 
BRANCH  25  26
HETATM   26  C6  UNL     1       9.306   8.887  24.750  1.00  0.00     0.140 C 
HETATM   27  C7  UNL     1      10.705   9.368  24.655  1.00  0.00     0.036 C 
HETATM   28  C8  UNL     1      11.438   8.324  25.511  1.00  0.00     0.029 C 
HETATM   29  C9  UNL     1      10.369   8.098  26.578  1.00  0.00     0.168 C 
HETATM   30  O2  UNL     1       9.146   8.323  26.015  1.00  0.00    -0.384 OA
ENDBRANCH  25  26
ENDBRANCH   6  25
TORSDOF 5
ENDMDL
MODEL 4
REMARK VINA RESULT: -6.639379704      2.919      6.329
REMARK  5 active torsions:
REMARK  status: ('A' for Active; 'I' for Inactive)
REMARK    1  A    between atoms: S1_2  and  C2_3 
REMARK    2  A    between atoms: N1_8  and  C5_9 
REMARK    3  A    between atoms: C5_9  and  C6_10 
REMARK    4  A    between atoms: N2_17  and  C11_18 
REMARK    5  A    between atoms: C18_25  and  C19_26 
ROOT
HETATM    1  C2  UNL     1       3.433   5.438  21.579  1.00  0.00     0.103 A 
HETATM    2  C3  UNL     1       2.916   6.345  22.501  1.00  0.00     0.113 A 
HETATM    3 BR1  UNL     1       1.041   6.744  22.564  1.00  0.00    -0.042 Br
HETATM    4  C4  UNL     1       3.709   7.004  23.413  1.00  0.00     0.272 A 
HETATM    5  O1  UNL     1       3.197   7.834  24.239  1.00  0.00    -0.266 OA
HETATM    6  N1  UNL     1       5.020   6.721  23.365  1.00  0.00    -0.262 N 
HETATM    7  C10 UNL     1       5.494   5.825  22.447  1.00  0.00     0.337 A 
HETATM    8  O3  UNL     1       6.721   5.644  22.490  1.00  0.00    -0.246 OA
HETATM    9  N2  UNL     1       4.766   5.172  21.556  1.00  0.00    -0.263 N 
ENDROOT
BRANCH   9  10
HETATM   10  C11 UNL     1       5.230   4.236  20.595  1.00  0.00     0.008 C 
HETATM   11  C12 UNL     1       5.198   2.802  21.071  1.00  0.00     0.034 C 
HETATM   12  C13 UNL     1       6.534   2.318  21.603  1.00  0.00     0.015 C 
HETATM   13  C21 UNL     1       4.888   1.923  19.863  1.00  0.00     0.031 C 
HETATM   14  C14 UNL     1       7.609   2.382  20.557  1.00  0.00    -0.012 C 
HETATM   15  C15 UNL     1       7.736   3.868  20.240  1.00  0.00     0.015 C 
HETATM   16  C20 UNL     1       7.243   1.573  19.368  1.00  0.00     0.025 C 
HETATM   17  C16 UNL     1       6.432   4.422  19.809  1.00  0.00     0.034 C 
HETATM   18  C17 UNL     1       6.161   3.584  18.508  1.00  0.00     0.031 C 
HETATM   19  C18 UNL     1       5.960   2.147  18.811  1.00  0.00     0.050 C 
BRANCH  19  20
HETATM   20  C19 UNL     1       5.507   1.448  17.599  1.00  0.00     0.181 C 
HETATM   21  O4  UNL     1       6.145   0.449  17.197  1.00  0.00    -0.647 OA
HETATM   22  O5  UNL     1       4.394   1.841  16.866  1.00  0.00    -0.647 OA
ENDBRANCH  19  20
ENDBRANCH   9  10
BRANCH   1  23
HETATM   23  S1  UNL     1       2.224   4.737  20.473  1.00  0.00    -0.115 SA
HETATM   24  C1  UNL     1       1.498   3.228  21.105  1.00  0.00     0.097 C 
ENDBRANCH   1  23
BRANCH   6  25
HETATM   25  C5  UNL     1       5.958   7.314  24.294  1.00  0.00     0.169 C 
BRANCH  25  26
HETATM   26  C6  UNL     1       6.263   8.761  24.069  1.00  0.00     0.140 C 
HETATM   27  C7  UNL     1       6.550   9.130  22.662  1.00  0.00     0.036 C 
HETATM   28  C8  UNL     1       8.057   8.841  22.580  1.00  0.00     0.029 C 
HETATM   29  C9  UNL     1       8.460   9.275  23.988  1.00  0.00     0.168 C 
HETATM   30  O2  UNL     1       7.396   9.074  24.819  1.00  0.00    -0.384 OA
ENDBRANCH  25  26
ENDBRANCH   6  25
TORSDOF 5
ENDMDL
MODEL 5
REMARK VINA RESULT: -6.551877463      2.979      6.709
REMARK  5 active torsions:
REMARK  status: ('A' for Active; 'I' for Inactive)
REMARK    1  A    between atoms: S1_2  and  C2_3 
REMARK    2  A    between atoms: N1_8  and  C5_9 
REMARK    3  A    between atoms: C5_9  and  C6_10 
REMARK    4  A    between atoms: N2_17  and  C11_18 
REMARK    5  A    between atoms: C18_25  and  C19_26 
ROOT
HETATM    1  C2  UNL     1       4.027   4.623  22.227  1.00  0.00     0.103 A 
HETATM    2  C3  UNL     1       3.648   5.507  23.234  1.00  0.00     0.113 A 
HETATM    3 BR1  UNL     1       2.022   5.258  24.221  1.00  0.00    -0.042 Br
HETATM    4  C4  UNL     1       4.406   6.604  23.578  1.00  0.00     0.272 A 
HETATM    5  O1  UNL     1       4.021   7.396  24.503  1.00  0.00    -0.266 OA
HETATM    6  N1  UNL     1       5.543   6.774  22.885  1.00  0.00    -0.262 N 
HETATM    7  C10 UNL     1       5.885   5.885  21.903  1.00  0.00     0.337 A 
HETATM    8  O3  UNL     1       6.953   6.141  21.326  1.00  0.00    -0.246 OA
HETATM    9  N2  UNL     1       5.186   4.822  21.544  1.00  0.00    -0.263 N 
ENDROOT
BRANCH   9  10
HETATM   10  C11 UNL     1       5.517   3.882  20.532  1.00  0.00     0.008 C 
HETATM   11  C12 UNL     1       5.527   2.448  21.009  1.00  0.00     0.034 C 
HETATM   12  C13 UNL     1       6.914   1.949  21.373  1.00  0.00     0.015 C 
HETATM   13  C21 UNL     1       5.062   1.574  19.848  1.00  0.00     0.031 C 
HETATM   14  C14 UNL     1       7.853   2.002  20.202  1.00  0.00    -0.012 C 
HETATM   15  C15 UNL     1       7.956   3.487  19.872  1.00  0.00     0.015 C 
HETATM   16  C20 UNL     1       7.334   1.199  19.067  1.00  0.00     0.025 C 
HETATM   17  C16 UNL     1       6.616   4.056  19.605  1.00  0.00     0.034 C 
HETATM   18  C17 UNL     1       6.177   3.223  18.347  1.00  0.00     0.031 C 
HETATM   19  C18 UNL     1       5.999   1.788  18.672  1.00  0.00     0.050 C 
BRANCH  19  20
HETATM   20  C19 UNL     1       5.392   1.096  17.525  1.00  0.00     0.181 C 
HETATM   21  O4  UNL     1       4.170   1.249  17.298  1.00  0.00    -0.647 OA
HETATM   22  O5  UNL     1       6.110   0.273  16.667  1.00  0.00    -0.647 OA
ENDBRANCH  19  20
ENDBRANCH   9  10
BRANCH   1  23
HETATM   23  S1  UNL     1       2.870   3.300  21.930  1.00  0.00    -0.115 SA
HETATM   24  C1  UNL     1       1.713   3.673  20.615  1.00  0.00     0.097 C 
ENDBRANCH   1  23
BRANCH   6  25
HETATM   25  C5  UNL     1       6.452   7.862  23.174  1.00  0.00     0.169 C 
BRANCH  25  26
HETATM   26  C6  UNL     1       7.503   7.572  24.197  1.00  0.00     0.140 C 
HETATM   27  C7  UNL     1       7.815   8.695  25.113  1.00  0.00     0.036 C 
HETATM   28  C8  UNL     1       8.873   9.457  24.301  1.00  0.00     0.029 C 
HETATM   29  C9  UNL     1       9.582   8.267  23.657  1.00  0.00     0.168 C 
HETATM   30  O2  UNL     1       8.677   7.255  23.515  1.00  0.00    -0.384 OA
ENDBRANCH  25  26
ENDBRANCH   6  25
TORSDOF 5
ENDMDL
