MODEL 1
REMARK VINA RESULT: -6.773191975      0.000      0.000
REMARK  7 active torsions:
REMARK  status: ('A' for Active; 'I' for Inactive)
REMARK    1  A    between atoms: C11_15  and  C12_16 
REMARK    2  A    between atoms: C12_16  and  S1_17 
REMARK    3  A    between atoms: S1_17  and  C13_18 
REMARK    4  A    between atoms: C13_18  and  C14_19 
REMARK    5  A    between atoms: C13_18  and  C18_26 
REMARK    6  A    between atoms: C14_19  and  N1_20 
REMARK    7  A    between atoms: N1_20  and  C15_23 
ROOT
HETATM    1  C12 UNL     1       7.000  33.634  80.539  1.00  0.00     0.084 C 
ENDROOT
BRANCH   1   2
HETATM    2  C11 UNL     1       5.914  34.599  80.280  1.00  0.00     0.028 C 
HETATM    3  C2  UNL     1       6.405  35.994  80.203  1.00  0.00    -0.049 C 
HETATM    4  C1  UNL     1       7.589  36.434  80.494  1.00  0.00     0.020 C 
HETATM    5  C3  UNL     1       5.384  36.981  79.781  1.00  0.00     0.021 A 
HETATM    6  C4  UNL     1       5.711  38.046  78.927  1.00  0.00     0.169 A 
HETATM    7  C8  UNL     1       4.117  36.786  80.271  1.00  0.00    -0.002 A 
HETATM    8  F1  UNL     1       6.986  38.141  78.489  1.00  0.00    -0.202 F 
HETATM    9  C5  UNL     1       4.726  38.938  78.558  1.00  0.00     0.197 A 
HETATM   10  F2  UNL     1       5.044  39.959  77.741  1.00  0.00    -0.199 F 
HETATM   11  C6  UNL     1       3.450  38.754  79.043  1.00  0.00     0.197 A 
HETATM   12  F3  UNL     1       2.434  39.610  78.708  1.00  0.00    -0.199 F 
HETATM   13  C7  UNL     1       3.141  37.704  79.881  1.00  0.00     0.165 A 
HETATM   14  F4  UNL     1       1.895  37.537  80.344  1.00  0.00    -0.202 F 
HETATM   15  C9  UNL     1       3.815  35.675  81.186  1.00  0.00     0.043 C 
HETATM   16  C10 UNL     1       4.701  34.494  81.159  1.00  0.00     0.015 C 
ENDBRANCH   1   2
BRANCH   1  17
HETATM   17  S1  UNL     1       7.637  33.019  78.940  1.00  0.00    -0.157 SA
BRANCH  17  18
HETATM   18  C13 UNL     1       6.494  33.442  77.595  1.00  0.00     0.105 C 
BRANCH  18  19
HETATM   19  C14 UNL     1       6.368  32.264  76.668  1.00  0.00     0.252 C 
BRANCH  19  20
HETATM   20  N1  UNL     1       7.490  31.355  76.779  1.00  0.00    -0.070 N 
ATOM     21  H12 UNL     1       8.164  31.653  77.485  1.00  0.00     0.277 HD
ATOM     22  H11 UNL     1       7.229  30.463  77.200  1.00  0.00     0.277 HD
BRANCH  20  23
HETATM   23  C15 UNL     1       8.093  31.195  75.470  1.00  0.00     0.186 A 
HETATM   24  C16 UNL     1       7.850  32.208  74.415  1.00  0.00     0.035 A 
HETATM   25  C17 UNL     1       9.231  32.058  75.102  1.00  0.00     0.035 A 
ENDBRANCH  20  23
ENDBRANCH  19  20
ENDBRANCH  18  19
BRANCH  18  26
HETATM   26  C18 UNL     1       6.974  34.665  76.948  1.00  0.00    -0.043 A 
HETATM   27  C19 UNL     1       8.306  35.003  77.062  1.00  0.00     0.010 A 
HETATM   28  C20 UNL     1       8.813  36.159  76.461  1.00  0.00     0.019 A 
HETATM   29  C21 UNL     1       7.990  36.991  75.737  1.00  0.00     0.011 A 
HETATM   30 BR1  UNL     1       8.648  38.591  74.894  1.00  0.00    -0.051 Br
HETATM   31  C22 UNL     1       6.656  36.660  75.618  1.00  0.00     0.019 A 
HETATM   32  C23 UNL     1       6.178  35.508  76.222  1.00  0.00     0.010 A 
ENDBRANCH  18  26
ENDBRANCH  17  18
ENDBRANCH   1  17
TORSDOF 7
ENDMDL
MODEL 2
REMARK VINA RESULT: -6.727056834      3.693      6.671
REMARK  7 active torsions:
REMARK  status: ('A' for Active; 'I' for Inactive)
REMARK    1  A    between atoms: C11_15  and  C12_16 
REMARK    2  A    between atoms: C12_16  and  S1_17 
REMARK    3  A    between atoms: S1_17  and  C13_18 
REMARK    4  A    between atoms: C13_18  and  C14_19 
REMARK    5  A    between atoms: C13_18  and  C18_26 
REMARK    6  A    between atoms: C14_19  and  N1_20 
REMARK    7  A    between atoms: N1_20  and  C15_23 
ROOT
HETATM    1  C12 UNL     1       6.642  35.957  79.985  1.00  0.00     0.084 C 
ENDROOT
BRANCH   1   2
HETATM    2  C11 UNL     1       7.448  35.120  79.075  1.00  0.00     0.028 C 
HETATM    3  C2  UNL     1       6.610  34.322  78.150  1.00  0.00    -0.049 C 
HETATM    4  C1  UNL     1       5.323  34.169  78.180  1.00  0.00     0.020 C 
HETATM    5  C3  UNL     1       7.369  33.594  77.108  1.00  0.00     0.021 A 
HETATM    6  C4  UNL     1       6.881  33.481  75.796  1.00  0.00     0.169 A 
HETATM    7  C8  UNL     1       8.565  33.049  77.503  1.00  0.00    -0.002 A 
HETATM    8  F1  UNL     1       5.698  34.066  75.508  1.00  0.00    -0.202 F 
HETATM    9  C5  UNL     1       7.625  32.796  74.860  1.00  0.00     0.197 A 
HETATM   10  F2  UNL     1       7.152  32.688  73.603  1.00  0.00    -0.199 F 
HETATM   11  C6  UNL     1       8.827  32.244  75.242  1.00  0.00     0.197 A 
HETATM   12  F3  UNL     1       9.606  31.554  74.351  1.00  0.00    -0.199 F 
HETATM   13  C7  UNL     1       9.297  32.362  76.533  1.00  0.00     0.165 A 
HETATM   14  F4  UNL     1      10.469  31.820  76.891  1.00  0.00    -0.202 F 
HETATM   15  C9  UNL     1       9.035  33.163  78.892  1.00  0.00     0.043 C 
HETATM   16  C10 UNL     1       8.516  34.277  79.710  1.00  0.00     0.015 C 
ENDBRANCH   1   2
BRANCH   1  17
HETATM   17  S1  UNL     1       6.685  37.686  79.393  1.00  0.00    -0.157 SA
BRANCH  17  18
HETATM   18  C13 UNL     1       5.448  37.941  78.090  1.00  0.00     0.105 C 
BRANCH  18  19
HETATM   19  C14 UNL     1       6.146  38.347  76.820  1.00  0.00     0.252 C 
BRANCH  19  20
HETATM   20  N1  UNL     1       6.158  37.283  75.837  1.00  0.00    -0.070 N 
ATOM     21  H12 UNL     1       5.774  36.411  76.202  1.00  0.00     0.277 HD
ATOM     22  H11 UNL     1       5.478  37.435  75.091  1.00  0.00     0.277 HD
BRANCH  20  23
HETATM   23  C15 UNL     1       7.509  37.128  75.333  1.00  0.00     0.186 A 
HETATM   24  C16 UNL     1       8.408  38.303  75.254  1.00  0.00     0.035 A 
HETATM   25  C17 UNL     1       8.631  37.172  76.288  1.00  0.00     0.035 A 
ENDBRANCH  20  23
ENDBRANCH  19  20
ENDBRANCH  18  19
BRANCH  18  26
HETATM   26  C18 UNL     1       4.466  38.917  78.570  1.00  0.00    -0.043 A 
HETATM   27  C19 UNL     1       3.428  38.483  79.368  1.00  0.00     0.010 A 
HETATM   28  C20 UNL     1       2.467  39.375  79.852  1.00  0.00     0.019 A 
HETATM   29  C21 UNL     1       2.534  40.714  79.542  1.00  0.00     0.011 A 
HETATM   30 BR1  UNL     1       1.231  41.974  80.188  1.00  0.00    -0.051 Br
HETATM   31  C22 UNL     1       3.569  41.156  78.744  1.00  0.00     0.019 A 
HETATM   32  C23 UNL     1       4.509  40.252  78.277  1.00  0.00     0.010 A 
ENDBRANCH  18  26
ENDBRANCH  17  18
ENDBRANCH   1  17
TORSDOF 7
ENDMDL
MODEL 3
REMARK VINA RESULT: -6.685542596      1.077      1.475
REMARK  7 active torsions:
REMARK  status: ('A' for Active; 'I' for Inactive)
REMARK    1  A    between atoms: C11_15  and  C12_16 
REMARK    2  A    between atoms: C12_16  and  S1_17 
REMARK    3  A    between atoms: S1_17  and  C13_18 
REMARK    4  A    between atoms: C13_18  and  C14_19 
REMARK    5  A    between atoms: C13_18  and  C18_26 
REMARK    6  A    between atoms: C14_19  and  N1_20 
REMARK    7  A    between atoms: N1_20  and  C15_23 
ROOT
HETATM    1  C12 UNL     1       5.790  33.969  79.535  1.00  0.00     0.084 C 
ENDROOT
BRANCH   1   2
HETATM    2  C11 UNL     1       4.844  35.102  79.546  1.00  0.00     0.028 C 
HETATM    3  C2  UNL     1       5.531  36.412  79.478  1.00  0.00    -0.049 C 
HETATM    4  C1  UNL     1       6.802  36.647  79.577  1.00  0.00     0.020 C 
HETATM    5  C3  UNL     1       4.624  37.572  79.318  1.00  0.00     0.021 A 
HETATM    6  C4  UNL     1       4.966  38.656  78.495  1.00  0.00     0.169 A 
HETATM    7  C8  UNL     1       3.443  37.516  80.017  1.00  0.00    -0.002 A 
HETATM    8  F1  UNL     1       6.146  38.607  77.840  1.00  0.00    -0.202 F 
HETATM    9  C5  UNL     1       4.087  39.712  78.375  1.00  0.00     0.197 A 
HETATM   10  F2  UNL     1       4.420  40.751  77.586  1.00  0.00    -0.199 F 
HETATM   11  C6  UNL     1       2.900  39.668  79.071  1.00  0.00     0.197 A 
HETATM   12  F3  UNL     1       1.991  40.691  78.987  1.00  0.00    -0.199 F 
HETATM   13  C7  UNL     1       2.574  38.598  79.877  1.00  0.00     0.165 A 
HETATM   14  F4  UNL     1       1.414  38.569  80.546  1.00  0.00    -0.202 F 
HETATM   15  C9  UNL     1       3.128  36.376  80.892  1.00  0.00     0.043 C 
HETATM   16  C10 UNL     1       3.797  35.088  80.623  1.00  0.00     0.015 C 
ENDBRANCH   1   2
BRANCH   1  17
HETATM   17  S1  UNL     1       5.153  32.678  78.409  1.00  0.00    -0.157 SA
BRANCH  17  18
HETATM   18  C13 UNL     1       6.231  32.513  76.958  1.00  0.00     0.105 C 
BRANCH  18  19
HETATM   19  C14 UNL     1       7.297  31.492  77.250  1.00  0.00     0.252 C 
BRANCH  19  20
HETATM   20  N1  UNL     1       7.253  30.375  76.330  1.00  0.00    -0.070 N 
ATOM     21  H12 UNL     1       6.954  29.510  76.781  1.00  0.00     0.277 HD
ATOM     22  H11 UNL     1       6.490  30.454  75.657  1.00  0.00     0.277 HD
BRANCH  20  23
HETATM   23  C15 UNL     1       8.547  30.247  75.688  1.00  0.00     0.186 A 
HETATM   24  C16 UNL     1       9.061  31.345  74.836  1.00  0.00     0.035 A 
HETATM   25  C17 UNL     1       9.682  31.024  76.218  1.00  0.00     0.035 A 
ENDBRANCH  20  23
ENDBRANCH  19  20
ENDBRANCH  18  19
BRANCH  18  26
HETATM   26  C18 UNL     1       6.750  33.839  76.615  1.00  0.00    -0.043 A 
HETATM   27  C19 UNL     1       5.892  34.774  76.075  1.00  0.00     0.010 A 
HETATM   28  C20 UNL     1       6.339  36.053  75.732  1.00  0.00     0.019 A 
HETATM   29  C21 UNL     1       7.653  36.412  75.927  1.00  0.00     0.011 A 
HETATM   30 BR1  UNL     1       8.308  38.162  75.469  1.00  0.00    -0.051 Br
HETATM   31  C22 UNL     1       8.518  35.482  76.466  1.00  0.00     0.019 A 
HETATM   32  C23 UNL     1       8.051  34.221  76.798  1.00  0.00     0.010 A 
ENDBRANCH  18  26
ENDBRANCH  17  18
ENDBRANCH   1  17
TORSDOF 7
ENDMDL
MODEL 4
REMARK VINA RESULT: -6.336666234      4.131      7.637
REMARK  7 active torsions:
REMARK  status: ('A' for Active; 'I' for Inactive)
REMARK    1  A    between atoms: C11_15  and  C12_16 
REMARK    2  A    between atoms: C12_16  and  S1_17 
REMARK    3  A    between atoms: S1_17  and  C13_18 
REMARK    4  A    between atoms: C13_18  and  C14_19 
REMARK    5  A    between atoms: C13_18  and  C18_26 
REMARK    6  A    between atoms: C14_19  and  N1_20 
REMARK    7  A    between atoms: N1_20  and  C15_23 
ROOT
HETATM    1  C12 UNL     1       6.649  37.358  75.959  1.00  0.00     0.084 C 
ENDROOT
BRANCH   1   2
HETATM    2  C11 UNL     1       7.737  36.366  76.047  1.00  0.00     0.028 C 
HETATM    3  C2  UNL     1       7.242  34.974  75.941  1.00  0.00    -0.049 C 
HETATM    4  C1  UNL     1       6.011  34.568  75.952  1.00  0.00     0.020 C 
HETATM    5  C3  UNL     1       8.308  33.949  75.857  1.00  0.00     0.021 A 
HETATM    6  C4  UNL     1       8.176  32.829  75.020  1.00  0.00     0.169 A 
HETATM    7  C8  UNL     1       9.416  34.165  76.636  1.00  0.00    -0.002 A 
HETATM    8  F1  UNL     1       7.050  32.717  74.283  1.00  0.00    -0.202 F 
HETATM    9  C5  UNL     1       9.197  31.903  74.972  1.00  0.00     0.197 A 
HETATM   10  F2  UNL     1       9.066  30.829  74.171  1.00  0.00    -0.199 F 
HETATM   11  C6  UNL     1      10.315  32.108  75.750  1.00  0.00     0.197 A 
HETATM   12  F3  UNL     1      11.358  31.219  75.739  1.00  0.00    -0.199 F 
HETATM   13  C7  UNL     1      10.433  33.211  76.567  1.00  0.00     0.165 A 
HETATM   14  F4  UNL     1      11.528  33.398  77.317  1.00  0.00    -0.202 F 
HETATM   15  C9  UNL     1       9.510  35.336  77.522  1.00  0.00     0.043 C 
HETATM   16  C10 UNL     1       8.693  36.520  77.195  1.00  0.00     0.015 C 
ENDBRANCH   1   2
BRANCH   1  17
HETATM   17  S1  UNL     1       6.319  38.025  77.628  1.00  0.00    -0.157 SA
BRANCH  17  18
HETATM   18  C13 UNL     1       5.328  36.852  78.596  1.00  0.00     0.105 C 
BRANCH  18  19
HETATM   19  C14 UNL     1       4.270  37.608  79.352  1.00  0.00     0.252 C 
BRANCH  19  20
HETATM   20  N1  UNL     1       4.216  39.004  78.971  1.00  0.00    -0.070 N 
ATOM     21  H12 UNL     1       4.813  39.591  79.555  1.00  0.00     0.277 HD
ATOM     22  H11 UNL     1       4.673  39.182  78.077  1.00  0.00     0.277 HD
BRANCH  20  23
HETATM   23  C15 UNL     1       2.831  39.438  78.982  1.00  0.00     0.186 A 
HETATM   24  C16 UNL     1       2.129  39.636  80.272  1.00  0.00     0.035 A 
HETATM   25  C17 UNL     1       2.526  40.828  79.367  1.00  0.00     0.035 A 
ENDBRANCH  20  23
ENDBRANCH  19  20
ENDBRANCH  18  19
BRANCH  18  26
HETATM   26  C18 UNL     1       6.233  36.076  79.448  1.00  0.00    -0.043 A 
HETATM   27  C19 UNL     1       7.128  36.744  80.256  1.00  0.00     0.010 A 
HETATM   28  C20 UNL     1       8.011  36.048  81.088  1.00  0.00     0.019 A 
HETATM   29  C21 UNL     1       8.006  34.673  81.120  1.00  0.00     0.011 A 
HETATM   30 BR1  UNL     1       9.204  33.678  82.251  1.00  0.00    -0.051 Br
HETATM   31  C22 UNL     1       7.113  33.997  80.314  1.00  0.00     0.019 A 
HETATM   32  C23 UNL     1       6.249  34.709  79.499  1.00  0.00     0.010 A 
ENDBRANCH  18  26
ENDBRANCH  17  18
ENDBRANCH   1  17
TORSDOF 7
ENDMDL
MODEL 5
REMARK VINA RESULT: -6.332843319      4.133      7.914
REMARK  7 active torsions:
REMARK  status: ('A' for Active; 'I' for Inactive)
REMARK    1  A    between atoms: C11_15  and  C12_16 
REMARK    2  A    between atoms: C12_16  and  S1_17 
REMARK    3  A    between atoms: S1_17  and  C13_18 
REMARK    4  A    between atoms: C13_18  and  C14_19 
REMARK    5  A    between atoms: C13_18  and  C18_26 
REMARK    6  A    between atoms: C14_19  and  N1_20 
REMARK    7  A    between atoms: N1_20  and  C15_23 
ROOT
HETATM    1  C12 UNL     1       6.669  37.433  75.570  1.00  0.00     0.084 C 
ENDROOT
BRANCH   1   2
HETATM    2  C11 UNL     1       7.708  36.400  75.743  1.00  0.00     0.028 C 
HETATM    3  C2  UNL     1       7.134  35.050  75.950  1.00  0.00    -0.049 C 
HETATM    4  C1  UNL     1       5.892  34.740  76.152  1.00  0.00     0.020 C 
HETATM    5  C3  UNL     1       8.131  33.955  75.962  1.00  0.00     0.021 A 
HETATM    6  C4  UNL     1       7.855  32.713  75.369  1.00  0.00     0.169 A 
HETATM    7  C8  UNL     1       9.325  34.232  76.580  1.00  0.00    -0.002 A 
HETATM    8  F1  UNL     1       6.654  32.547  74.774  1.00  0.00    -0.202 F 
HETATM    9  C5  UNL     1       8.816  31.725  75.402  1.00  0.00     0.197 A 
HETATM   10  F2  UNL     1       8.547  30.534  74.834  1.00  0.00    -0.199 F 
HETATM   11  C6  UNL     1      10.018  31.990  76.019  1.00  0.00     0.197 A 
HETATM   12  F3  UNL     1      11.008  31.043  76.080  1.00  0.00    -0.199 F 
HETATM   13  C7  UNL     1      10.278  33.213  76.598  1.00  0.00     0.165 A 
HETATM   14  F4  UNL     1      11.453  33.457  77.194  1.00  0.00    -0.202 F 
HETATM   15  C9  UNL     1       9.571  35.536  77.215  1.00  0.00     0.043 C 
HETATM   16  C10 UNL     1       8.786  36.695  76.747  1.00  0.00     0.015 C 
ENDBRANCH   1   2
BRANCH   1  17
HETATM   17  S1  UNL     1       6.645  38.502  77.052  1.00  0.00    -0.157 SA
BRANCH  17  18
HETATM   18  C13 UNL     1       5.133  38.219  78.015  1.00  0.00     0.105 C 
BRANCH  18  19
HETATM   19  C14 UNL     1       4.612  39.539  78.514  1.00  0.00     0.252 C 
BRANCH  19  20
HETATM   20  N1  UNL     1       3.193  39.695  78.273  1.00  0.00    -0.070 N 
ATOM     21  H12 UNL     1       2.997  40.328  77.497  1.00  0.00     0.277 HD
ATOM     22  H11 UNL     1       2.770  38.854  77.880  1.00  0.00     0.277 HD
BRANCH  20  23
HETATM   23  C15 UNL     1       2.553  40.114  79.505  1.00  0.00     0.186 A 
HETATM   24  C16 UNL     1       2.170  41.533  79.694  1.00  0.00     0.035 A 
HETATM   25  C17 UNL     1       1.111  40.421  79.487  1.00  0.00     0.035 A 
ENDBRANCH  20  23
ENDBRANCH  19  20
ENDBRANCH  18  19
BRANCH  18  26
HETATM   26  C18 UNL     1       5.435  37.255  79.076  1.00  0.00    -0.043 A 
HETATM   27  C19 UNL     1       4.394  36.600  79.700  1.00  0.00     0.010 A 
HETATM   28  C20 UNL     1       4.631  35.670  80.717  1.00  0.00     0.019 A 
HETATM   29  C21 UNL     1       5.914  35.385  81.121  1.00  0.00     0.011 A 
HETATM   30 BR1  UNL     1       6.282  34.112  82.517  1.00  0.00    -0.051 Br
HETATM   31  C22 UNL     1       6.961  36.036  80.502  1.00  0.00     0.019 A 
HETATM   32  C23 UNL     1       6.701  36.953  79.497  1.00  0.00     0.010 A 
ENDBRANCH  18  26
ENDBRANCH  17  18
ENDBRANCH   1  17
TORSDOF 7
ENDMDL
