MODEL 1
REMARK VINA RESULT: -8.266290699      0.000      0.000
REMARK  9 active torsions:
REMARK  status: ('A' for Active; 'I' for Inactive)
REMARK    1  A    between atoms: C2_2  and  C4_4 
REMARK    2  A    between atoms: C4_4  and  N1_5 
REMARK    3  A    between atoms: N1_5  and  C22_33 
REMARK    4  A    between atoms: C5_6  and  C6_7 
REMARK    5  A    between atoms: C6_7  and  C7_8 
REMARK    6  A    between atoms: C6_7  and  N3_14 
REMARK    7  A    between atoms: C7_8  and  O1_9 
REMARK    8  A    between atoms: C7_8  and  N2_11 
REMARK    9  A    between atoms: C9_17  and  C10_18 
ROOT
HETATM    1  N3  UNL     1      38.471  41.714  34.555  1.00  0.00    -0.276 N 
HETATM    2  C8  UNL     1      37.473  40.926  33.869  1.00  0.00     0.252 A 
HETATM    3  O4  UNL     1      37.140  39.808  34.374  1.00  0.00    -0.270 OA
HETATM    4  C9  UNL     1      36.787  41.287  32.627  1.00  0.00     0.179 A 
HETATM    5  N4  UNL     1      37.142  42.598  32.152  1.00  0.00    -0.374 N 
ATOM      6  H4  UNL     1      36.687  42.959  31.314  1.00  0.00     0.160 HD
HETATM    7  C16 UNL     1      38.091  43.392  32.804  1.00  0.00     0.059 A 
HETATM    8  C17 UNL     1      38.350  44.647  32.234  1.00  0.00     0.073 A 
HETATM    9  C18 UNL     1      39.255  45.485  32.822  1.00  0.00     0.118 A 
HETATM   10  F1  UNL     1      39.466  46.700  32.225  1.00  0.00    -0.206 F 
HETATM   11  C19 UNL     1      39.912  45.107  33.968  1.00  0.00     0.044 A 
HETATM   12  C20 UNL     1      39.619  43.839  34.500  1.00  0.00     0.035 A 
HETATM   13  C21 UNL     1      38.724  42.970  33.945  1.00  0.00     0.069 A 
ENDROOT
BRANCH   1  14
HETATM   14  C6  UNL     1      39.164  41.249  35.721  1.00  0.00     0.089 C 
BRANCH  14  15
HETATM   15  C5  UNL     1      40.064  40.061  35.431  1.00  0.00     0.116 C 
HETATM   16  N1  UNL     1      41.253  39.888  36.040  1.00  0.00    -0.383 N 
BRANCH  16  17
HETATM   17  C4  UNL     1      41.868  38.608  35.935  1.00  0.00     0.126 C 
BRANCH  17  18
HETATM   18  C2  UNL     1      41.157  37.389  36.344  1.00  0.00    -0.005 C 
HETATM   19  C1  UNL     1      41.033  37.301  37.876  1.00  0.00     0.011 C 
HETATM   20  C3  UNL     1      41.738  36.067  35.938  1.00  0.00     0.011 C 
ENDBRANCH  17  18
ENDBRANCH  16  17
BRANCH  16  21
HETATM   21  C22 UNL     1      42.184  40.815  36.487  1.00  0.00     0.084 A 
HETATM   22  C23 UNL     1      42.260  40.846  38.056  1.00  0.00     0.027 A 
HETATM   23  C24 UNL     1      43.442  40.648  37.200  1.00  0.00     0.027 A 
ENDBRANCH  16  21
ENDBRANCH  14  15
BRANCH  14  24
HETATM   24  C7  UNL     1      38.479  41.278  37.023  1.00  0.00     0.341 C 
BRANCH  24  25
HETATM   25  O1  UNL     1      38.645  40.038  37.725  1.00  0.00    -0.366 OA
ATOM     26  H1  UNL     1      38.489  40.147  38.655  1.00  0.00     0.212 HD
ENDBRANCH  24  25
BRANCH  24  27
HETATM   27  N2  UNL     1      39.026  42.230  38.011  1.00  0.00    -0.118 N 
HETATM   28  O2  UNL     1      39.438  43.329  37.709  1.00  0.00    -0.534 OA
HETATM   29  O3  UNL     1      39.041  41.771  39.336  1.00  0.00    -0.534 OA
ENDBRANCH  24  27
ENDBRANCH  14  24
ENDBRANCH   1  14
BRANCH   4  30
HETATM   30  C10 UNL     1      35.269  41.325  32.815  1.00  0.00     0.017 C 
HETATM   31  C11 UNL     1      34.758  40.339  33.819  1.00  0.00     0.007 C 
HETATM   32  C12 UNL     1      33.253  40.156  33.528  1.00  0.00     0.000 C 
HETATM   33  C13 UNL     1      33.105  39.244  32.338  1.00  0.00     0.000 C 
HETATM   34  C14 UNL     1      34.345  39.404  31.507  1.00  0.00     0.000 C 
HETATM   35  C15 UNL     1      34.693  40.880  31.463  1.00  0.00     0.007 C 
ENDBRANCH   4  30
TORSDOF 9
ENDMDL
MODEL 2
REMARK VINA RESULT: -8.116744383      0.936      1.106
REMARK  9 active torsions:
REMARK  status: ('A' for Active; 'I' for Inactive)
REMARK    1  A    between atoms: C2_2  and  C4_4 
REMARK    2  A    between atoms: C4_4  and  N1_5 
REMARK    3  A    between atoms: N1_5  and  C22_33 
REMARK    4  A    between atoms: C5_6  and  C6_7 
REMARK    5  A    between atoms: C6_7  and  C7_8 
REMARK    6  A    between atoms: C6_7  and  N3_14 
REMARK    7  A    between atoms: C7_8  and  O1_9 
REMARK    8  A    between atoms: C7_8  and  N2_11 
REMARK    9  A    between atoms: C9_17  and  C10_18 
ROOT
HETATM    1  N3  UNL     1      38.653  41.958  34.930  1.00  0.00    -0.276 N 
HETATM    2  C8  UNL     1      37.714  41.076  34.276  1.00  0.00     0.252 A 
HETATM    3  O4  UNL     1      37.387  40.000  34.869  1.00  0.00    -0.270 OA
HETATM    4  C9  UNL     1      37.084  41.295  32.973  1.00  0.00     0.179 A 
HETATM    5  N4  UNL     1      37.426  42.566  32.392  1.00  0.00    -0.374 N 
ATOM      6  H4  UNL     1      37.005  42.831  31.502  1.00  0.00     0.160 HD
HETATM    7  C16 UNL     1      38.318  43.449  33.009  1.00  0.00     0.059 A 
HETATM    8  C17 UNL     1      38.572  44.652  32.335  1.00  0.00     0.073 A 
HETATM    9  C18 UNL     1      39.422  45.571  32.883  1.00  0.00     0.118 A 
HETATM   10  F1  UNL     1      39.630  46.729  32.183  1.00  0.00    -0.206 F 
HETATM   11  C19 UNL     1      40.030  45.324  34.090  1.00  0.00     0.044 A 
HETATM   12  C20 UNL     1      39.745  44.103  34.727  1.00  0.00     0.035 A 
HETATM   13  C21 UNL     1      38.903  43.157  34.215  1.00  0.00     0.069 A 
ENDROOT
BRANCH   1  14
HETATM   14  C6  UNL     1      39.299  41.627  36.168  1.00  0.00     0.089 C 
BRANCH  14  15
HETATM   15  C5  UNL     1      40.451  40.656  35.986  1.00  0.00     0.116 C 
HETATM   16  N1  UNL     1      41.700  40.926  36.413  1.00  0.00    -0.383 N 
BRANCH  16  17
HETATM   17  C4  UNL     1      42.624  39.845  36.475  1.00  0.00     0.126 C 
BRANCH  17  18
HETATM   18  C2  UNL     1      42.316  38.627  37.238  1.00  0.00    -0.005 C 
HETATM   19  C1  UNL     1      42.252  38.914  38.749  1.00  0.00     0.011 C 
HETATM   20  C3  UNL     1      43.259  37.466  37.117  1.00  0.00     0.011 C 
ENDBRANCH  17  18
ENDBRANCH  16  17
BRANCH  16  21
HETATM   21  C22 UNL     1      42.386  42.129  36.499  1.00  0.00     0.084 A 
HETATM   22  C23 UNL     1      42.515  42.614  37.988  1.00  0.00     0.027 A 
HETATM   23  C24 UNL     1      43.673  42.462  37.092  1.00  0.00     0.027 A 
ENDBRANCH  16  21
ENDBRANCH  14  15
BRANCH  14  24
HETATM   24  C7  UNL     1      38.486  41.493  37.388  1.00  0.00     0.341 C 
BRANCH  24  25
HETATM   25  O1  UNL     1      38.462  40.134  37.848  1.00  0.00    -0.366 OA
ATOM     26  H1  UNL     1      39.120  39.987  38.516  1.00  0.00     0.212 HD
ENDBRANCH  24  25
BRANCH  24  27
HETATM   27  N2  UNL     1      39.011  42.180  38.584  1.00  0.00    -0.118 N 
HETATM   28  O2  UNL     1      39.663  41.615  39.436  1.00  0.00    -0.534 OA
HETATM   29  O3  UNL     1      38.701  43.545  38.673  1.00  0.00    -0.534 OA
ENDBRANCH  24  27
ENDBRANCH  14  24
ENDBRANCH   1  14
BRANCH   4  30
HETATM   30  C10 UNL     1      35.558  41.302  33.083  1.00  0.00     0.017 C 
HETATM   31  C11 UNL     1      35.003  40.172  33.893  1.00  0.00     0.007 C 
HETATM   32  C12 UNL     1      33.517  40.035  33.497  1.00  0.00     0.000 C 
HETATM   33  C13 UNL     1      33.441  39.318  32.175  1.00  0.00     0.000 C 
HETATM   34  C14 UNL     1      34.722  39.605  31.446  1.00  0.00     0.000 C 
HETATM   35  C15 UNL     1      35.058  41.071  31.649  1.00  0.00     0.007 C 
ENDBRANCH   4  30
TORSDOF 9
ENDMDL
MODEL 3
REMARK VINA RESULT: -7.759907127      2.424      3.871
REMARK  9 active torsions:
REMARK  status: ('A' for Active; 'I' for Inactive)
REMARK    1  A    between atoms: C2_2  and  C4_4 
REMARK    2  A    between atoms: C4_4  and  N1_5 
REMARK    3  A    between atoms: N1_5  and  C22_33 
REMARK    4  A    between atoms: C5_6  and  C6_7 
REMARK    5  A    between atoms: C6_7  and  C7_8 
REMARK    6  A    between atoms: C6_7  and  N3_14 
REMARK    7  A    between atoms: C7_8  and  O1_9 
REMARK    8  A    between atoms: C7_8  and  N2_11 
REMARK    9  A    between atoms: C9_17  and  C10_18 
ROOT
HETATM    1  N3  UNL     1      40.614  40.206  36.494  1.00  0.00    -0.276 N 
HETATM    2  C8  UNL     1      39.703  40.025  35.388  1.00  0.00     0.252 A 
HETATM    3  O4  UNL     1      39.162  38.884  35.237  1.00  0.00    -0.270 OA
HETATM    4  C9  UNL     1      39.326  41.037  34.402  1.00  0.00     0.179 A 
HETATM    5  N4  UNL     1      39.902  42.327  34.675  1.00  0.00    -0.374 N 
ATOM      6  H4  UNL     1      39.667  43.112  34.067  1.00  0.00     0.160 HD
HETATM    7  C16 UNL     1      40.773  42.539  35.748  1.00  0.00     0.059 A 
HETATM    8  C17 UNL     1      41.269  43.842  35.900  1.00  0.00     0.073 A 
HETATM    9  C18 UNL     1      42.115  44.130  36.934  1.00  0.00     0.118 A 
HETATM   10  F1  UNL     1      42.566  45.418  37.036  1.00  0.00    -0.206 F 
HETATM   11  C19 UNL     1      42.483  43.151  37.825  1.00  0.00     0.044 A 
HETATM   12  C20 UNL     1      41.960  41.861  37.630  1.00  0.00     0.035 A 
HETATM   13  C21 UNL     1      41.113  41.529  36.611  1.00  0.00     0.069 A 
ENDROOT
BRANCH   1  14
HETATM   14  C6  UNL     1      41.004  39.136  37.366  1.00  0.00     0.089 C 
BRANCH  14  15
HETATM   15  C5  UNL     1      41.961  38.161  36.704  1.00  0.00     0.116 C 
HETATM   16  N1  UNL     1      43.106  37.760  37.289  1.00  0.00    -0.383 N 
BRANCH  16  17
HETATM   17  C4  UNL     1      43.768  36.628  36.736  1.00  0.00     0.126 C 
BRANCH  17  18
HETATM   18  C2  UNL     1      43.363  35.262  37.095  1.00  0.00    -0.005 C 
HETATM   19  C1  UNL     1      44.558  34.293  37.049  1.00  0.00     0.011 C 
HETATM   20  C3  UNL     1      42.309  34.598  36.257  1.00  0.00     0.011 C 
ENDBRANCH  17  18
ENDBRANCH  16  17
BRANCH  16  21
HETATM   21  C22 UNL     1      43.970  38.433  38.142  1.00  0.00     0.084 A 
HETATM   22  C23 UNL     1      43.695  38.071  39.645  1.00  0.00     0.027 A 
HETATM   23  C24 UNL     1      45.023  37.949  39.022  1.00  0.00     0.027 A 
ENDBRANCH  16  21
ENDBRANCH  14  15
BRANCH  14  24
HETATM   24  C7  UNL     1      40.018  38.583  38.309  1.00  0.00     0.341 C 
BRANCH  24  25
HETATM   25  O1  UNL     1      38.752  39.247  38.184  1.00  0.00    -0.366 OA
ATOM     26  H1  UNL     1      38.409  39.169  37.302  1.00  0.00     0.212 HD
ENDBRANCH  24  25
BRANCH  24  27
HETATM   27  N2  UNL     1      39.619  37.182  38.066  1.00  0.00    -0.118 N 
HETATM   28  O2  UNL     1      38.716  36.873  37.319  1.00  0.00    -0.534 OA
HETATM   29  O3  UNL     1      40.361  36.220  38.767  1.00  0.00    -0.534 OA
ENDBRANCH  24  27
ENDBRANCH  14  24
ENDBRANCH   1  14
BRANCH   4  30
HETATM   30  C10 UNL     1      37.813  41.268  34.384  1.00  0.00     0.017 C 
HETATM   31  C11 UNL     1      37.040  40.168  33.726  1.00  0.00     0.007 C 
HETATM   32  C12 UNL     1      35.665  40.760  33.351  1.00  0.00     0.000 C 
HETATM   33  C13 UNL     1      35.828  41.591  32.105  1.00  0.00     0.000 C 
HETATM   34  C14 UNL     1      37.246  42.081  32.088  1.00  0.00     0.000 C 
HETATM   35  C15 UNL     1      37.613  42.506  33.497  1.00  0.00     0.007 C 
ENDBRANCH   4  30
TORSDOF 9
ENDMDL
MODEL 4
REMARK VINA RESULT: -7.671530707      2.286      4.133
REMARK  9 active torsions:
REMARK  status: ('A' for Active; 'I' for Inactive)
REMARK    1  A    between atoms: C2_2  and  C4_4 
REMARK    2  A    between atoms: C4_4  and  N1_5 
REMARK    3  A    between atoms: N1_5  and  C22_33 
REMARK    4  A    between atoms: C5_6  and  C6_7 
REMARK    5  A    between atoms: C6_7  and  C7_8 
REMARK    6  A    between atoms: C6_7  and  N3_14 
REMARK    7  A    between atoms: C7_8  and  O1_9 
REMARK    8  A    between atoms: C7_8  and  N2_11 
REMARK    9  A    between atoms: C9_17  and  C10_18 
ROOT
HETATM    1  N3  UNL     1      38.901  42.672  34.248  1.00  0.00    -0.276 N 
HETATM    2  C8  UNL     1      37.983  41.623  33.868  1.00  0.00     0.252 A 
HETATM    3  O4  UNL     1      37.904  40.595  34.612  1.00  0.00    -0.270 OA
HETATM    4  C9  UNL     1      37.111  41.619  32.693  1.00  0.00     0.179 A 
HETATM    5  N4  UNL     1      37.182  42.842  31.939  1.00  0.00    -0.374 N 
ATOM      6  H4  UNL     1      36.581  42.954  31.122  1.00  0.00     0.160 HD
HETATM    7  C16 UNL     1      38.048  43.883  32.291  1.00  0.00     0.059 A 
HETATM    8  C17 UNL     1      38.024  45.019  31.469  1.00  0.00     0.073 A 
HETATM    9  C18 UNL     1      38.832  46.082  31.757  1.00  0.00     0.118 A 
HETATM   10  F1  UNL     1      38.765  47.166  30.924  1.00  0.00    -0.206 F 
HETATM   11  C19 UNL     1      39.668  46.045  32.847  1.00  0.00     0.044 A 
HETATM   12  C20 UNL     1      39.657  44.884  33.640  1.00  0.00     0.035 A 
HETATM   13  C21 UNL     1      38.867  43.799  33.388  1.00  0.00     0.069 A 
ENDROOT
BRANCH   1  14
HETATM   14  C6  UNL     1      39.790  42.560  35.369  1.00  0.00     0.089 C 
BRANCH  14  15
HETATM   15  C5  UNL     1      39.770  43.792  36.256  1.00  0.00     0.116 C 
HETATM   16  N1  UNL     1      39.675  43.716  37.598  1.00  0.00    -0.383 N 
BRANCH  16  17
HETATM   17  C4  UNL     1      39.973  44.889  38.347  1.00  0.00     0.126 C 
BRANCH  17  18
HETATM   18  C2  UNL     1      39.247  46.144  38.113  1.00  0.00    -0.005 C 
HETATM   19  C1  UNL     1      40.089  47.365  38.526  1.00  0.00     0.011 C 
HETATM   20  C3  UNL     1      37.935  46.339  38.816  1.00  0.00     0.011 C 
ENDBRANCH  17  18
ENDBRANCH  16  17
BRANCH  16  21
HETATM   21  C22 UNL     1      39.016  42.802  38.408  1.00  0.00     0.084 A 
HETATM   22  C23 UNL     1      40.022  41.807  39.090  1.00  0.00     0.027 A 
HETATM   23  C24 UNL     1      39.042  42.601  39.850  1.00  0.00     0.027 A 
ENDBRANCH  16  21
ENDBRANCH  14  15
BRANCH  14  24
HETATM   24  C7  UNL     1      41.078  41.869  35.197  1.00  0.00     0.341 C 
BRANCH  24  25
HETATM   25  O1  UNL     1      42.023  42.277  36.197  1.00  0.00    -0.366 OA
ATOM     26  H1  UNL     1      41.675  42.982  36.730  1.00  0.00     0.212 HD
ENDBRANCH  24  25
BRANCH  24  27
HETATM   27  N2  UNL     1      41.054  40.410  35.419  1.00  0.00    -0.118 N 
HETATM   28  O2  UNL     1      41.049  39.911  36.524  1.00  0.00    -0.534 OA
HETATM   29  O3  UNL     1      41.041  39.629  34.254  1.00  0.00    -0.534 OA
ENDBRANCH  24  27
ENDBRANCH  14  24
ENDBRANCH   1  14
BRANCH   4  30
HETATM   30  C10 UNL     1      35.640  41.473  33.085  1.00  0.00     0.017 C 
HETATM   31  C11 UNL     1      35.350  40.260  33.913  1.00  0.00     0.007 C 
HETATM   32  C12 UNL     1      33.834  39.997  33.794  1.00  0.00     0.000 C 
HETATM   33  C13 UNL     1      33.568  39.336  32.467  1.00  0.00     0.000 C 
HETATM   34  C14 UNL     1      34.656  39.778  31.531  1.00  0.00     0.000 C 
HETATM   35  C15 UNL     1      34.897  41.259  31.758  1.00  0.00     0.007 C 
ENDBRANCH   4  30
TORSDOF 9
ENDMDL
MODEL 5
REMARK VINA RESULT: -7.628252889      1.796      3.198
REMARK  9 active torsions:
REMARK  status: ('A' for Active; 'I' for Inactive)
REMARK    1  A    between atoms: C2_2  and  C4_4 
REMARK    2  A    between atoms: C4_4  and  N1_5 
REMARK    3  A    between atoms: N1_5  and  C22_33 
REMARK    4  A    between atoms: C5_6  and  C6_7 
REMARK    5  A    between atoms: C6_7  and  C7_8 
REMARK    6  A    between atoms: C6_7  and  N3_14 
REMARK    7  A    between atoms: C7_8  and  O1_9 
REMARK    8  A    between atoms: C7_8  and  N2_11 
REMARK    9  A    between atoms: C9_17  and  C10_18 
ROOT
HETATM    1  N3  UNL     1      38.739  41.897  34.101  1.00  0.00    -0.276 N 
HETATM    2  C8  UNL     1      37.748  41.157  33.355  1.00  0.00     0.252 A 
HETATM    3  O4  UNL     1      37.535  39.945  33.676  1.00  0.00    -0.270 OA
HETATM    4  C9  UNL     1      36.942  41.666  32.244  1.00  0.00     0.179 A 
HETATM    5  N4  UNL     1      37.166  43.063  31.985  1.00  0.00    -0.374 N 
ATOM      6  H4  UNL     1      36.621  43.523  31.255  1.00  0.00     0.160 HD
HETATM    7  C16 UNL     1      38.105  43.811  32.701  1.00  0.00     0.059 A 
HETATM    8  C17 UNL     1      38.230  45.162  32.346  1.00  0.00     0.073 A 
HETATM    9  C18 UNL     1      39.117  45.960  33.011  1.00  0.00     0.118 A 
HETATM   10  F1  UNL     1      39.195  47.271  32.624  1.00  0.00    -0.206 F 
HETATM   11  C19 UNL     1      39.889  45.447  34.026  1.00  0.00     0.044 A 
HETATM   12  C20 UNL     1      39.729  44.088  34.345  1.00  0.00     0.035 A 
HETATM   13  C21 UNL     1      38.855  43.254  33.706  1.00  0.00     0.069 A 
ENDROOT
BRANCH   1  14
HETATM   14  C6  UNL     1      39.555  41.299  35.119  1.00  0.00     0.089 C 
BRANCH  14  15
HETATM   15  C5  UNL     1      39.062  41.610  36.521  1.00  0.00     0.116 C 
HETATM   16  N1  UNL     1      39.229  40.760  37.552  1.00  0.00    -0.383 N 
BRANCH  16  17
HETATM   17  C4  UNL     1      39.016  41.267  38.865  1.00  0.00     0.126 C 
BRANCH  17  18
HETATM   18  C2  UNL     1      39.703  42.480  39.331  1.00  0.00    -0.005 C 
HETATM   19  C1  UNL     1      41.203  42.222  39.560  1.00  0.00     0.011 C 
HETATM   20  C3  UNL     1      39.230  43.108  40.609  1.00  0.00     0.011 C 
ENDBRANCH  17  18
ENDBRANCH  16  17
BRANCH  16  21
HETATM   21  C22 UNL     1      39.249  39.373  37.587  1.00  0.00     0.084 A 
HETATM   22  C23 UNL     1      40.624  38.830  38.118  1.00  0.00     0.027 A 
HETATM   23  C24 UNL     1      39.330  38.440  38.702  1.00  0.00     0.027 A 
ENDBRANCH  16  21
ENDBRANCH  14  15
BRANCH  14  24
HETATM   24  C7  UNL     1      41.009  41.213  34.915  1.00  0.00     0.341 C 
BRANCH  24  25
HETATM   25  O1  UNL     1      41.721  41.877  35.968  1.00  0.00    -0.366 OA
ATOM     26  H1  UNL     1      42.613  42.076  35.708  1.00  0.00     0.212 HD
ENDBRANCH  24  25
BRANCH  24  27
HETATM   27  N2  UNL     1      41.587  39.857  35.003  1.00  0.00    -0.118 N 
HETATM   28  O2  UNL     1      41.017  38.869  34.593  1.00  0.00    -0.534 OA
HETATM   29  O3  UNL     1      42.853  39.786  35.604  1.00  0.00    -0.534 OA
ENDBRANCH  24  27
ENDBRANCH  14  24
ENDBRANCH   1  14
BRANCH   4  30
HETATM   30  C10 UNL     1      35.445  41.546  32.536  1.00  0.00     0.017 C 
HETATM   31  C11 UNL     1      35.120  40.618  33.665  1.00  0.00     0.007 C 
HETATM   32  C12 UNL     1      33.635  40.231  33.502  1.00  0.00     0.000 C 
HETATM   33  C13 UNL     1      33.530  39.188  32.420  1.00  0.00     0.000 C 
HETATM   34  C14 UNL     1      34.689  39.403  31.491  1.00  0.00     0.000 C 
HETATM   35  C15 UNL     1      34.849  40.897  31.278  1.00  0.00     0.007 C 
ENDBRANCH   4  30
TORSDOF 9
ENDMDL
