MODEL 1
REMARK VINA RESULT: -8.794170406      0.000      0.000
REMARK  8 active torsions:
REMARK  status: ('A' for Active; 'I' for Inactive)
REMARK    1  A    between atoms: O1_2  and  C2_3 
REMARK    2  A    between atoms: C4_5  and  C5_6 
REMARK    3  A    between atoms: C5_6  and  N1_7 
REMARK    4  A    between atoms: C5_6  and  C12_18 
REMARK       I    between atoms: N1_7  and  C6_9 
REMARK    5  A    between atoms: C6_9  and  C7_11 
REMARK       I    between atoms: C12_18  and  N3_20 
REMARK    6  A    between atoms: N3_20  and  C13_22 
REMARK    7  A    between atoms: C20_29  and  O4_30 
REMARK    8  A    between atoms: C22_32  and  O5_33 
ROOT
HETATM    1  C5  UNL     1      37.773  40.952  33.938  1.00  0.00     0.210 C 
ENDROOT
BRANCH   1   2
HETATM    2  C4  UNL     1      38.215  42.359  33.672  1.00  0.00    -0.021 A 
HETATM    3  C3  UNL     1      39.234  42.952  34.385  1.00  0.00     0.049 A 
HETATM    4  C2  UNL     1      39.641  44.257  34.141  1.00  0.00     0.104 A 
HETATM    5  C22 UNL     1      39.025  45.016  33.158  1.00  0.00     0.135 A 
HETATM    6  C20 UNL     1      38.006  44.426  32.444  1.00  0.00     0.104 A 
HETATM    7  C19 UNL     1      37.613  43.129  32.698  1.00  0.00     0.049 A 
BRANCH   4   8
HETATM    8  O1  UNL     1      40.657  44.841  34.855  1.00  0.00    -0.353 OA
HETATM    9  C1  UNL     1      41.967  44.372  34.737  1.00  0.00     0.210 C 
ENDBRANCH   4   8
BRANCH   5  10
HETATM   10  O5  UNL     1      39.421  46.326  32.902  1.00  0.00    -0.351 OA
HETATM   11  C23 UNL     1      38.735  47.388  33.537  1.00  0.00     0.210 C 
ENDBRANCH   5  10
BRANCH   6  12
HETATM   12  O4  UNL     1      37.384  45.192  31.452  1.00  0.00    -0.353 OA
HETATM   13  C21 UNL     1      36.543  44.516  30.541  1.00  0.00     0.210 C 
ENDBRANCH   6  12
ENDBRANCH   1   2
BRANCH   1  14
HETATM   14  N1  UNL     1      36.347  40.846  34.058  1.00  0.00    -0.339 N 
HETATM   15  C6  UNL     1      35.591  40.087  33.118  1.00  0.00     0.255 C 
HETATM   16  O2  UNL     1      36.207  39.501  32.164  1.00  0.00    -0.268 OA
ATOM     17  H1  UNL     1      35.870  41.319  34.825  1.00  0.00     0.164 HD
BRANCH  15  18
HETATM   18  C7  UNL     1      34.154  39.937  33.174  1.00  0.00     0.070 A 
HETATM   19  C8  UNL     1      33.282  40.145  34.219  1.00  0.00     0.108 A 
HETATM   20  N2  UNL     1      32.021  39.883  33.838  1.00  0.00    -0.368 N 
HETATM   21  C9  UNL     1      30.859  40.000  34.695  1.00  0.00     0.154 C 
HETATM   22  C10 UNL     1      32.041  39.502  32.544  1.00  0.00     0.114 A 
HETATM   23  C11 UNL     1      33.366  39.530  32.119  1.00  0.00     0.066 A 
HETATM   24 CL1  UNL     1      33.952  39.124  30.519  1.00  0.00    -0.082 Cl
ENDBRANCH  15  18
ENDBRANCH   1  14
BRANCH   1  25
HETATM   25  C12 UNL     1      38.482  40.441  35.139  1.00  0.00     0.245 C 
HETATM   26  O3  UNL     1      38.030  40.594  36.304  1.00  0.00    -0.271 OA
HETATM   27  N3  UNL     1      39.712  39.753  35.002  1.00  0.00    -0.354 N 
ATOM     28  H3  UNL     1      40.093  39.620  34.065  1.00  0.00     0.162 HD
BRANCH  27  29
HETATM   29  C13 UNL     1      40.454  39.228  36.131  1.00  0.00     0.084 C 
HETATM   30  C14 UNL     1      39.893  37.890  36.476  1.00  0.00     0.025 C 
HETATM   31  C15 UNL     1      40.936  36.863  36.828  1.00  0.00     0.002 C 
HETATM   32  C16 UNL     1      42.075  37.505  37.591  1.00  0.00     0.000 C 
HETATM   33  C17 UNL     1      42.782  38.398  36.615  1.00  0.00     0.002 C 
HETATM   34  C18 UNL     1      41.903  39.239  35.772  1.00  0.00     0.025 C 
ENDBRANCH  27  29
ENDBRANCH   1  25
TORSDOF 8
ENDMDL
MODEL 2
REMARK VINA RESULT: -8.782286767      0.038      2.242
REMARK  8 active torsions:
REMARK  status: ('A' for Active; 'I' for Inactive)
REMARK    1  A    between atoms: O1_2  and  C2_3 
REMARK    2  A    between atoms: C4_5  and  C5_6 
REMARK    3  A    between atoms: C5_6  and  N1_7 
REMARK    4  A    between atoms: C5_6  and  C12_18 
REMARK       I    between atoms: N1_7  and  C6_9 
REMARK    5  A    between atoms: C6_9  and  C7_11 
REMARK       I    between atoms: C12_18  and  N3_20 
REMARK    6  A    between atoms: N3_20  and  C13_22 
REMARK    7  A    between atoms: C20_29  and  O4_30 
REMARK    8  A    between atoms: C22_32  and  O5_33 
ROOT
HETATM    1  C5  UNL     1      37.775  40.937  33.941  1.00  0.00     0.210 C 
ENDROOT
BRANCH   1   2
HETATM    2  C4  UNL     1      38.210  42.347  33.676  1.00  0.00    -0.021 A 
HETATM    3  C3  UNL     1      37.622  43.121  32.700  1.00  0.00     0.049 A 
HETATM    4  C2  UNL     1      38.027  44.425  32.452  1.00  0.00     0.104 A 
HETATM    5  C22 UNL     1      39.050  44.999  33.191  1.00  0.00     0.135 A 
HETATM    6  C20 UNL     1      39.640  44.227  34.168  1.00  0.00     0.104 A 
HETATM    7  C19 UNL     1      39.227  42.933  34.402  1.00  0.00     0.049 A 
BRANCH   4   8
HETATM    8  O1  UNL     1      37.438  45.191  31.478  1.00  0.00    -0.353 OA
HETATM    9  C1  UNL     1      36.553  44.618  30.563  1.00  0.00     0.210 C 
ENDBRANCH   4   8
BRANCH   5  10
HETATM   10  O5  UNL     1      39.469  46.306  32.954  1.00  0.00    -0.351 OA
HETATM   11  C23 UNL     1      38.773  47.372  33.573  1.00  0.00     0.210 C 
ENDBRANCH   5  10
BRANCH   6  12
HETATM   12  O4  UNL     1      40.673  44.805  34.913  1.00  0.00    -0.353 OA
HETATM   13  C21 UNL     1      41.975  44.290  34.727  1.00  0.00     0.210 C 
ENDBRANCH   6  12
ENDBRANCH   1   2
BRANCH   1  14
HETATM   14  N1  UNL     1      36.349  40.824  34.062  1.00  0.00    -0.339 N 
HETATM   15  C6  UNL     1      35.593  40.086  33.106  1.00  0.00     0.255 C 
HETATM   16  O2  UNL     1      36.209  39.524  32.138  1.00  0.00    -0.268 OA
ATOM     17  H1  UNL     1      35.872  41.278  34.840  1.00  0.00     0.164 HD
BRANCH  15  18
HETATM   18  C7  UNL     1      34.156  39.930  33.161  1.00  0.00     0.070 A 
HETATM   19  C8  UNL     1      33.282  40.138  34.204  1.00  0.00     0.108 A 
HETATM   20  N2  UNL     1      32.023  39.871  33.823  1.00  0.00    -0.368 N 
HETATM   21  C9  UNL     1      30.860  39.987  34.678  1.00  0.00     0.154 C 
HETATM   22  C10 UNL     1      32.046  39.485  32.531  1.00  0.00     0.114 A 
HETATM   23  C11 UNL     1      33.371  39.517  32.107  1.00  0.00     0.066 A 
HETATM   24 CL1  UNL     1      33.960  39.107  30.509  1.00  0.00    -0.082 Cl
ENDBRANCH  15  18
ENDBRANCH   1  14
BRANCH   1  25
HETATM   25  C12 UNL     1      38.486  40.428  35.142  1.00  0.00     0.245 C 
HETATM   26  O3  UNL     1      38.038  40.586  36.308  1.00  0.00    -0.271 OA
HETATM   27  N3  UNL     1      39.713  39.737  35.004  1.00  0.00    -0.354 N 
ATOM     28  H3  UNL     1      40.092  39.600  34.066  1.00  0.00     0.162 HD
BRANCH  27  29
HETATM   29  C13 UNL     1      40.458  39.214  36.132  1.00  0.00     0.084 C 
HETATM   30  C14 UNL     1      39.901  37.874  36.477  1.00  0.00     0.025 C 
HETATM   31  C15 UNL     1      40.948  36.850  36.828  1.00  0.00     0.002 C 
HETATM   32  C16 UNL     1      42.085  37.496  37.591  1.00  0.00     0.000 C 
HETATM   33  C17 UNL     1      42.789  38.391  36.615  1.00  0.00     0.002 C 
HETATM   34  C18 UNL     1      41.907  39.230  35.772  1.00  0.00     0.025 C 
ENDBRANCH  27  29
ENDBRANCH   1  25
TORSDOF 8
ENDMDL
MODEL 3
REMARK VINA RESULT: -8.686527914      4.329      8.934
REMARK  8 active torsions:
REMARK  status: ('A' for Active; 'I' for Inactive)
REMARK    1  A    between atoms: O1_2  and  C2_3 
REMARK    2  A    between atoms: C4_5  and  C5_6 
REMARK    3  A    between atoms: C5_6  and  N1_7 
REMARK    4  A    between atoms: C5_6  and  C12_18 
REMARK       I    between atoms: N1_7  and  C6_9 
REMARK    5  A    between atoms: C6_9  and  C7_11 
REMARK       I    between atoms: C12_18  and  N3_20 
REMARK    6  A    between atoms: N3_20  and  C13_22 
REMARK    7  A    between atoms: C20_29  and  O4_30 
REMARK    8  A    between atoms: C22_32  and  O5_33 
ROOT
HETATM    1  C5  UNL     1      40.866  39.557  36.149  1.00  0.00     0.210 C 
ENDROOT
BRANCH   1   2
HETATM    2  C4  UNL     1      40.690  38.078  36.318  1.00  0.00    -0.021 A 
HETATM    3  C3  UNL     1      41.626  37.175  35.864  1.00  0.00     0.049 A 
HETATM    4  C2  UNL     1      41.462  35.804  36.018  1.00  0.00     0.104 A 
HETATM    5  C22 UNL     1      40.334  35.295  36.642  1.00  0.00     0.135 A 
HETATM    6  C20 UNL     1      39.396  36.195  37.097  1.00  0.00     0.104 A 
HETATM    7  C19 UNL     1      39.574  37.553  36.937  1.00  0.00     0.049 A 
BRANCH   4   8
HETATM    8  O1  UNL     1      42.398  34.910  35.563  1.00  0.00    -0.353 OA
HETATM    9  C1  UNL     1      43.499  34.573  36.353  1.00  0.00     0.210 C 
ENDBRANCH   4   8
BRANCH   5  10
HETATM   10  O5  UNL     1      40.154  33.923  36.804  1.00  0.00    -0.351 OA
HETATM   11  C23 UNL     1      39.468  33.197  35.801  1.00  0.00     0.210 C 
ENDBRANCH   5  10
BRANCH   6  12
HETATM   12  O4  UNL     1      38.258  35.681  37.727  1.00  0.00    -0.353 OA
HETATM   13  C21 UNL     1      38.058  36.018  39.084  1.00  0.00     0.210 C 
ENDBRANCH   6  12
ENDBRANCH   1   2
BRANCH   1  14
HETATM   14  N1  UNL     1      40.370  40.293  37.277  1.00  0.00    -0.339 N 
HETATM   15  C6  UNL     1      41.010  41.493  37.702  1.00  0.00     0.255 C 
HETATM   16  O2  UNL     1      42.035  41.904  37.059  1.00  0.00    -0.268 OA
ATOM     17  H1  UNL     1      39.550  39.953  37.780  1.00  0.00     0.164 HD
BRANCH  15  18
HETATM   18  C7  UNL     1      40.569  42.286  38.828  1.00  0.00     0.070 A 
HETATM   19  C8  UNL     1      39.497  43.143  38.942  1.00  0.00     0.108 A 
HETATM   20  N2  UNL     1      39.454  43.680  40.172  1.00  0.00    -0.368 N 
HETATM   21  C9  UNL     1      38.453  44.624  40.625  1.00  0.00     0.154 C 
HETATM   22  C10 UNL     1      40.488  43.188  40.885  1.00  0.00     0.114 A 
HETATM   23  C11 UNL     1      41.192  42.318  40.057  1.00  0.00     0.066 A 
HETATM   24 CL1  UNL     1      42.626  41.408  40.486  1.00  0.00    -0.082 Cl
ENDBRANCH  15  18
ENDBRANCH   1  14
BRANCH   1  25
HETATM   25  C12 UNL     1      40.229  39.978  34.875  1.00  0.00     0.245 C 
HETATM   26  O3  UNL     1      40.837  39.942  33.774  1.00  0.00    -0.271 OA
HETATM   27  N3  UNL     1      38.891  40.440  34.866  1.00  0.00    -0.354 N 
ATOM     28  H3  UNL     1      38.383  40.477  35.750  1.00  0.00     0.162 HD
BRANCH  27  29
HETATM   29  C13 UNL     1      38.209  40.865  33.660  1.00  0.00     0.084 C 
HETATM   30  C14 UNL     1      36.846  40.257  33.656  1.00  0.00     0.025 C 
HETATM   31  C15 UNL     1      35.764  41.187  33.178  1.00  0.00     0.002 C 
HETATM   32  C16 UNL     1      36.280  42.070  32.062  1.00  0.00     0.000 C 
HETATM   33  C17 UNL     1      37.281  42.995  32.688  1.00  0.00     0.002 C 
HETATM   34  C18 UNL     1      38.241  42.357  33.616  1.00  0.00     0.025 C 
ENDBRANCH  27  29
ENDBRANCH   1  25
TORSDOF 8
ENDMDL
MODEL 4
REMARK VINA RESULT: -8.651468044      4.328      9.030
REMARK  8 active torsions:
REMARK  status: ('A' for Active; 'I' for Inactive)
REMARK    1  A    between atoms: O1_2  and  C2_3 
REMARK    2  A    between atoms: C4_5  and  C5_6 
REMARK    3  A    between atoms: C5_6  and  N1_7 
REMARK    4  A    between atoms: C5_6  and  C12_18 
REMARK       I    between atoms: N1_7  and  C6_9 
REMARK    5  A    between atoms: C6_9  and  C7_11 
REMARK       I    between atoms: C12_18  and  N3_20 
REMARK    6  A    between atoms: N3_20  and  C13_22 
REMARK    7  A    between atoms: C20_29  and  O4_30 
REMARK    8  A    between atoms: C22_32  and  O5_33 
ROOT
HETATM    1  C5  UNL     1      40.843  39.556  36.150  1.00  0.00     0.210 C 
ENDROOT
BRANCH   1   2
HETATM    2  C4  UNL     1      40.653  38.080  36.325  1.00  0.00    -0.021 A 
HETATM    3  C3  UNL     1      39.549  37.556  36.962  1.00  0.00     0.049 A 
HETATM    4  C2  UNL     1      39.374  36.189  37.128  1.00  0.00     0.104 A 
HETATM    5  C22 UNL     1      40.318  35.294  36.650  1.00  0.00     0.135 A 
HETATM    6  C20 UNL     1      41.423  35.814  36.012  1.00  0.00     0.104 A 
HETATM    7  C19 UNL     1      41.583  37.175  35.856  1.00  0.00     0.049 A 
BRANCH   4   8
HETATM    8  O1  UNL     1      38.272  35.674  37.763  1.00  0.00    -0.353 OA
HETATM    9  C1  UNL     1      38.004  36.000  39.094  1.00  0.00     0.210 C 
ENDBRANCH   4   8
BRANCH   5  10
HETATM   10  O5  UNL     1      40.158  33.919  36.808  1.00  0.00    -0.351 OA
HETATM   11  C23 UNL     1      39.473  33.188  35.808  1.00  0.00     0.210 C 
ENDBRANCH   5  10
BRANCH   6  12
HETATM   12  O4  UNL     1      42.377  34.911  35.530  1.00  0.00    -0.353 OA
HETATM   13  C21 UNL     1      43.468  34.607  36.374  1.00  0.00     0.210 C 
ENDBRANCH   6  12
ENDBRANCH   1   2
BRANCH   1  14
HETATM   14  N1  UNL     1      40.354  40.301  37.274  1.00  0.00    -0.339 N 
HETATM   15  C6  UNL     1      41.001  41.501  37.690  1.00  0.00     0.255 C 
HETATM   16  O2  UNL     1      42.026  41.903  37.041  1.00  0.00    -0.268 OA
ATOM     17  H1  UNL     1      39.534  39.969  37.782  1.00  0.00     0.164 HD
BRANCH  15  18
HETATM   18  C7  UNL     1      40.568  42.304  38.812  1.00  0.00     0.070 A 
HETATM   19  C8  UNL     1      39.498  43.163  38.926  1.00  0.00     0.108 A 
HETATM   20  N2  UNL     1      39.462  43.709  40.152  1.00  0.00    -0.368 N 
HETATM   21  C9  UNL     1      38.465  44.658  40.603  1.00  0.00     0.154 C 
HETATM   22  C10 UNL     1      40.500  43.222  40.862  1.00  0.00     0.114 A 
HETATM   23  C11 UNL     1      41.198  42.345  40.037  1.00  0.00     0.066 A 
HETATM   24 CL1  UNL     1      42.634  41.437  40.464  1.00  0.00    -0.082 Cl
ENDBRANCH  15  18
ENDBRANCH   1  14
BRANCH   1  25
HETATM   25  C12 UNL     1      40.210  39.978  34.873  1.00  0.00     0.245 C 
HETATM   26  O3  UNL     1      40.823  39.945  33.775  1.00  0.00    -0.271 OA
HETATM   27  N3  UNL     1      38.871  40.438  34.860  1.00  0.00    -0.354 N 
ATOM     28  H3  UNL     1      38.360  40.472  35.742  1.00  0.00     0.162 HD
BRANCH  27  29
HETATM   29  C13 UNL     1      38.194  40.863  33.652  1.00  0.00     0.084 C 
HETATM   30  C14 UNL     1      36.832  40.253  33.642  1.00  0.00     0.025 C 
HETATM   31  C15 UNL     1      35.750  41.182  33.160  1.00  0.00     0.002 C 
HETATM   32  C16 UNL     1      36.269  42.068  32.047  1.00  0.00     0.000 C 
HETATM   33  C17 UNL     1      37.266  42.993  32.679  1.00  0.00     0.002 C 
HETATM   34  C18 UNL     1      38.224  42.355  33.610  1.00  0.00     0.025 C 
ENDBRANCH  27  29
ENDBRANCH   1  25
TORSDOF 8
ENDMDL
MODEL 5
REMARK VINA RESULT: -8.574851754      4.506      9.886
REMARK  8 active torsions:
REMARK  status: ('A' for Active; 'I' for Inactive)
REMARK    1  A    between atoms: O1_2  and  C2_3 
REMARK    2  A    between atoms: C4_5  and  C5_6 
REMARK    3  A    between atoms: C5_6  and  N1_7 
REMARK    4  A    between atoms: C5_6  and  C12_18 
REMARK       I    between atoms: N1_7  and  C6_9 
REMARK    5  A    between atoms: C6_9  and  C7_11 
REMARK       I    between atoms: C12_18  and  N3_20 
REMARK    6  A    between atoms: N3_20  and  C13_22 
REMARK    7  A    between atoms: C20_29  and  O4_30 
REMARK    8  A    between atoms: C22_32  and  O5_33 
ROOT
HETATM    1  C5  UNL     1      40.608  39.230  36.849  1.00  0.00     0.210 C 
ENDROOT
BRANCH   1   2
HETATM    2  C4  UNL     1      40.476  37.749  36.662  1.00  0.00    -0.021 A 
HETATM    3  C3  UNL     1      39.312  37.076  36.961  1.00  0.00     0.049 A 
HETATM    4  C2  UNL     1      39.190  35.703  36.791  1.00  0.00     0.104 A 
HETATM    5  C22 UNL     1      40.252  34.956  36.307  1.00  0.00     0.135 A 
HETATM    6  C20 UNL     1      41.418  35.626  36.006  1.00  0.00     0.104 A 
HETATM    7  C19 UNL     1      41.523  36.990  36.181  1.00  0.00     0.049 A 
BRANCH   4   8
HETATM    8  O1  UNL     1      38.028  35.039  37.091  1.00  0.00    -0.353 OA
HETATM    9  C1  UNL     1      37.748  34.657  38.405  1.00  0.00     0.210 C 
ENDBRANCH   4   8
BRANCH   5  10
HETATM   10  O5  UNL     1      40.147  33.578  36.130  1.00  0.00    -0.351 OA
HETATM   11  C23 UNL     1      39.647  33.078  34.905  1.00  0.00     0.210 C 
ENDBRANCH   5  10
BRANCH   6  12
HETATM   12  O4  UNL     1      42.490  34.872  35.518  1.00  0.00    -0.353 OA
HETATM   13  C21 UNL     1      43.526  34.553  36.424  1.00  0.00     0.210 C 
ENDBRANCH   6  12
ENDBRANCH   1   2
BRANCH   1  14
HETATM   14  N1  UNL     1      40.984  39.574  38.190  1.00  0.00    -0.339 N 
HETATM   15  C6  UNL     1      42.340  39.872  38.512  1.00  0.00     0.255 C 
HETATM   16  O2  UNL     1      43.216  39.828  37.583  1.00  0.00    -0.268 OA
ATOM     17  H1  UNL     1      40.274  39.605  38.921  1.00  0.00     0.164 HD
BRANCH  15  18
HETATM   18  C7  UNL     1      42.795  40.224  39.839  1.00  0.00     0.070 A 
HETATM   19  C8  UNL     1      42.601  41.379  40.564  1.00  0.00     0.108 A 
HETATM   20  N2  UNL     1      43.201  41.288  41.761  1.00  0.00    -0.368 N 
HETATM   21  C9  UNL     1      43.193  42.329  42.769  1.00  0.00     0.154 C 
HETATM   22  C10 UNL     1      43.796  40.080  41.846  1.00  0.00     0.114 A 
HETATM   23  C11 UNL     1      43.550  39.408  40.653  1.00  0.00     0.066 A 
HETATM   24 CL1  UNL     1      44.097  37.796  40.237  1.00  0.00    -0.082 Cl
ENDBRANCH  15  18
ENDBRANCH   1  14
BRANCH   1  25
HETATM   25  C12 UNL     1      39.341  39.886  36.432  1.00  0.00     0.245 C 
HETATM   26  O3  UNL     1      38.419  40.149  37.246  1.00  0.00    -0.271 OA
HETATM   27  N3  UNL     1      39.135  40.239  35.076  1.00  0.00    -0.354 N 
ATOM     28  H3  UNL     1      39.872  40.032  34.402  1.00  0.00     0.162 HD
BRANCH  27  29
HETATM   29  C13 UNL     1      37.926  40.880  34.602  1.00  0.00     0.084 C 
HETATM   30  C14 UNL     1      38.304  42.177  33.968  1.00  0.00     0.025 C 
HETATM   31  C15 UNL     1      37.548  42.481  32.702  1.00  0.00     0.002 C 
HETATM   32  C16 UNL     1      36.117  41.999  32.811  1.00  0.00     0.000 C 
HETATM   33  C17 UNL     1      36.180  40.501  32.826  1.00  0.00     0.002 C 
HETATM   34  C18 UNL     1      37.215  39.917  33.709  1.00  0.00     0.025 C 
ENDBRANCH  27  29
ENDBRANCH   1  25
TORSDOF 8
ENDMDL
