MODEL 1
REMARK VINA RESULT: -7.914806932      0.000      0.000
REMARK  14 active torsions:
REMARK  status: ('A' for Active; 'I' for Inactive)
REMARK    1  A    between atoms: C3_3  and  O1_4 
REMARK    2  A    between atoms: C4_8  and  C5_9 
REMARK    3  A    between atoms: C5_9  and  S1_10 
REMARK    4  A    between atoms: S1_10  and  C6_11 
REMARK    5  A    between atoms: C6_11  and  C7_12 
REMARK    6  A    between atoms: C7_12  and  O2_13 
REMARK    7  A    between atoms: C7_12  and  N2_15 
REMARK    8  A    between atoms: N2_15  and  N3_16 
REMARK    9  A    between atoms: N3_16  and  C8_18 
REMARK   10  A    between atoms: C8_18  and  O3_19 
REMARK   11  A    between atoms: C8_18  and  C9_21 
REMARK   12  A    between atoms: N6_26  and  C10_27 
REMARK   13  A    between atoms: C11_33  and  N9_34 
REMARK   14  A    between atoms: C14_41  and  N11_42 
ROOT
HETATM    1  N3  UNL     1      38.626  58.412  18.496  1.00  0.00    -0.209 N 
ATOM      2  H3  UNL     1      39.466  58.989  18.452  1.00  0.00     0.204 HD
ENDROOT
BRANCH   1   3
HETATM    3  N2  UNL     1      37.905  58.303  19.578  1.00  0.00    -0.302 NA
BRANCH   3   4
HETATM    4  C7  UNL     1      37.153  58.184  20.697  1.00  0.00     0.223 C 
BRANCH   4   5
HETATM    5  C6  UNL     1      36.525  59.365  21.463  1.00  0.00     0.176 C 
BRANCH   5   6
HETATM    6  S1  UNL     1      37.508  59.667  22.966  1.00  0.00    -0.152 SA
BRANCH   6   7
HETATM    7  C5  UNL     1      38.474  61.234  22.712  1.00  0.00     0.150 C 
BRANCH   7   8
HETATM    8  C4  UNL     1      39.830  60.918  22.269  1.00  0.00     0.094 A 
HETATM    9  N1  UNL     1      39.968  59.933  21.369  1.00  0.00    -0.326 N 
HETATM   10  C3  UNL     1      41.176  59.612  20.886  1.00  0.00     0.151 A 
ATOM     11  H1  UNL     1      39.145  59.423  21.048  1.00  0.00     0.169 HD
HETATM   12  C2  UNL     1      42.315  60.253  21.274  1.00  0.00     0.032 A 
HETATM   13  C1  UNL     1      43.668  59.892  20.708  1.00  0.00     0.056 C 
HETATM   14  C14 UNL     1      42.168  61.268  22.206  1.00  0.00     0.110 A 
HETATM   15  N10 UNL     1      40.917  61.565  22.672  1.00  0.00    -0.331 N 
ATOM     16  H10 UNL     1      40.815  62.314  23.357  1.00  0.00     0.168 HD
BRANCH  10  17
HETATM   17  O1  UNL     1      41.269  58.600  19.965  1.00  0.00    -0.346 OA
ATOM     18  H1  UNL     1      41.180  58.811  19.042  1.00  0.00     0.219 HD
ENDBRANCH  10  17
BRANCH  14  19
HETATM   19  N11 UNL     1      43.210  61.914  22.626  1.00  0.00    -0.385 N 
ATOM     20 2H11 UNL     1      44.094  61.875  22.119  1.00  0.00     0.157 HD
ATOM     21 1H11 UNL     1      43.150  62.475  23.475  1.00  0.00     0.157 HD
ENDBRANCH  14  19
ENDBRANCH   7   8
ENDBRANCH   6   7
ENDBRANCH   5   6
ENDBRANCH   4   5
BRANCH   4  22
HETATM   22  O2  UNL     1      36.823  57.083  21.322  1.00  0.00    -0.337 OA
ATOM     23  H2  UNL     1      37.173  56.353  20.826  1.00  0.00     0.220 HD
ENDBRANCH   4  22
ENDBRANCH   3   4
ENDBRANCH   1   3
BRANCH   1  24
HETATM   24  C8  UNL     1      38.146  57.661  17.372  1.00  0.00     0.196 C 
BRANCH  24  25
HETATM   25  O3  UNL     1      37.496  58.412  16.477  1.00  0.00    -0.343 OA
ATOM     26  H3  UNL     1      36.575  58.192  16.405  1.00  0.00     0.219 HD
ENDBRANCH  24  25
BRANCH  24  27
HETATM   27  C9  UNL     1      38.255  56.290  17.017  1.00  0.00     0.126 A 
HETATM   28  N4  UNL     1      39.126  55.525  16.307  1.00  0.00    -0.280 N 
HETATM   29  N5  UNL     1      38.751  54.271  16.267  1.00  0.00    -0.234 N 
ATOM     30  H4  UNL     1      39.968  55.885  15.860  1.00  0.00     0.189 HD
HETATM   31  N6  UNL     1      37.645  54.092  16.909  1.00  0.00    -0.223 N 
ATOM     32  H5  UNL     1      39.266  53.532  15.790  1.00  0.00     0.209 HD
HETATM   33  C12 UNL     1      37.300  55.310  17.391  1.00  0.00     0.066 A 
HETATM   34  C13 UNL     1      36.052  55.619  18.146  1.00  0.00     0.073 C 
BRANCH  31  35
HETATM   35  C10 UNL     1      36.785  52.954  17.172  1.00  0.00     0.196 A 
HETATM   36  N7  UNL     1      35.599  52.706  16.522  1.00  0.00    -0.220 N 
HETATM   37  O4  UNL     1      35.021  51.675  17.069  1.00  0.00    -0.153 OA
ATOM     38  H7  UNL     1      35.230  53.244  15.737  1.00  0.00     0.198 HD
HETATM   39  N8  UNL     1      35.777  51.225  18.040  1.00  0.00    -0.222 N 
HETATM   40  C11 UNL     1      36.879  51.995  18.131  1.00  0.00     0.169 A 
ATOM     41  H8  UNL     1      35.566  50.421  18.631  1.00  0.00     0.198 HD
BRANCH  40  42
HETATM   42  N9  UNL     1      37.859  51.846  18.956  1.00  0.00    -0.381 N 
ATOM     43  H92 UNL     1      37.941  52.256  19.887  1.00  0.00     0.157 HD
ATOM     44  H91 UNL     1      38.690  51.276  18.800  1.00  0.00     0.157 HD
ENDBRANCH  40  42
ENDBRANCH  31  35
ENDBRANCH  24  27
ENDBRANCH   1  24
TORSDOF 14
ENDMDL
MODEL 2
REMARK VINA RESULT: -7.694315739      3.139      5.587
REMARK  14 active torsions:
REMARK  status: ('A' for Active; 'I' for Inactive)
REMARK    1  A    between atoms: C3_3  and  O1_4 
REMARK    2  A    between atoms: C4_8  and  C5_9 
REMARK    3  A    between atoms: C5_9  and  S1_10 
REMARK    4  A    between atoms: S1_10  and  C6_11 
REMARK    5  A    between atoms: C6_11  and  C7_12 
REMARK    6  A    between atoms: C7_12  and  O2_13 
REMARK    7  A    between atoms: C7_12  and  N2_15 
REMARK    8  A    between atoms: N2_15  and  N3_16 
REMARK    9  A    between atoms: N3_16  and  C8_18 
REMARK   10  A    between atoms: C8_18  and  O3_19 
REMARK   11  A    between atoms: C8_18  and  C9_21 
REMARK   12  A    between atoms: N6_26  and  C10_27 
REMARK   13  A    between atoms: C11_33  and  N9_34 
REMARK   14  A    between atoms: C14_41  and  N11_42 
ROOT
HETATM    1  N3  UNL     1      38.638  58.369  18.387  1.00  0.00    -0.209 N 
ATOM      2  H3  UNL     1      39.493  58.921  18.327  1.00  0.00     0.204 HD
ENDROOT
BRANCH   1   3
HETATM    3  N2  UNL     1      37.913  58.314  19.469  1.00  0.00    -0.302 NA
BRANCH   3   4
HETATM    4  C7  UNL     1      37.153  58.253  20.589  1.00  0.00     0.223 C 
BRANCH   4   5
HETATM    5  C6  UNL     1      36.595  59.479  21.338  1.00  0.00     0.176 C 
BRANCH   5   6
HETATM    6  S1  UNL     1      35.080  60.032  20.493  1.00  0.00    -0.152 SA
BRANCH   6   7
HETATM    7  C5  UNL     1      33.727  60.150  21.761  1.00  0.00     0.150 C 
BRANCH   7   8
HETATM    8  C4  UNL     1      33.191  58.821  22.044  1.00  0.00     0.094 A 
HETATM    9  N1  UNL     1      33.632  57.806  21.285  1.00  0.00    -0.326 N 
HETATM   10  C3  UNL     1      33.216  56.553  21.508  1.00  0.00     0.151 A 
ATOM     11  H1  UNL     1      34.292  57.991  20.529  1.00  0.00     0.169 HD
HETATM   12  C2  UNL     1      32.335  56.239  22.501  1.00  0.00     0.032 A 
HETATM   13  C1  UNL     1      31.888  54.819  22.754  1.00  0.00     0.056 C 
HETATM   14  C14 UNL     1      31.880  57.290  23.281  1.00  0.00     0.110 A 
HETATM   15  N10 UNL     1      32.331  58.554  23.020  1.00  0.00    -0.331 N 
ATOM     16  H10 UNL     1      31.994  59.324  23.598  1.00  0.00     0.168 HD
BRANCH  10  17
HETATM   17  O1  UNL     1      33.696  55.547  20.709  1.00  0.00    -0.346 OA
ATOM     18  H1  UNL     1      34.631  55.380  20.695  1.00  0.00     0.219 HD
ENDBRANCH  10  17
BRANCH  14  19
HETATM   19  N11 UNL     1      31.035  57.064  24.237  1.00  0.00    -0.385 N 
ATOM     20 2H11 UNL     1      30.835  56.115  24.552  1.00  0.00     0.157 HD
ATOM     21 1H11 UNL     1      30.561  57.846  24.689  1.00  0.00     0.157 HD
ENDBRANCH  14  19
ENDBRANCH   7   8
ENDBRANCH   6   7
ENDBRANCH   5   6
ENDBRANCH   4   5
BRANCH   4  22
HETATM   22  O2  UNL     1      36.760  57.182  21.228  1.00  0.00    -0.337 OA
ATOM     23  H2  UNL     1      37.145  56.429  20.795  1.00  0.00     0.220 HD
ENDBRANCH   4  22
ENDBRANCH   3   4
ENDBRANCH   1   3
BRANCH   1  24
HETATM   24  C8  UNL     1      38.141  57.594  17.287  1.00  0.00     0.196 C 
BRANCH  24  25
HETATM   25  O3  UNL     1      37.476  58.326  16.386  1.00  0.00    -0.343 OA
ATOM     26  H3  UNL     1      36.552  58.414  16.586  1.00  0.00     0.219 HD
ENDBRANCH  24  25
BRANCH  24  27
HETATM   27  C9  UNL     1      38.245  56.216  16.959  1.00  0.00     0.126 A 
HETATM   28  N4  UNL     1      39.110  55.434  16.260  1.00  0.00    -0.280 N 
HETATM   29  N5  UNL     1      38.732  54.181  16.247  1.00  0.00    -0.234 N 
ATOM     30  H4  UNL     1      39.952  55.783  15.803  1.00  0.00     0.189 HD
HETATM   31  N6  UNL     1      37.628  54.018  16.897  1.00  0.00    -0.223 N 
ATOM     32  H5  UNL     1      39.243  53.431  15.783  1.00  0.00     0.209 HD
HETATM   33  C12 UNL     1      37.289  55.246  17.356  1.00  0.00     0.066 A 
HETATM   34  C13 UNL     1      36.045  55.573  18.109  1.00  0.00     0.073 C 
BRANCH  31  35
HETATM   35  C10 UNL     1      36.766  52.887  17.187  1.00  0.00     0.196 A 
HETATM   36  N7  UNL     1      35.571  52.637  16.555  1.00  0.00    -0.220 N 
HETATM   37  O4  UNL     1      34.995  51.616  17.123  1.00  0.00    -0.153 OA
ATOM     38  H7  UNL     1      35.195  53.166  15.768  1.00  0.00     0.198 HD
HETATM   39  N8  UNL     1      35.761  51.175  18.091  1.00  0.00    -0.222 N 
HETATM   40  C11 UNL     1      36.868  51.941  18.158  1.00  0.00     0.169 A 
ATOM     41  H8  UNL     1      35.554  50.380  18.695  1.00  0.00     0.198 HD
BRANCH  40  42
HETATM   42  N9  UNL     1      37.857  51.799  18.972  1.00  0.00    -0.381 N 
ATOM     43  H92 UNL     1      37.811  51.477  19.939  1.00  0.00     0.157 HD
ATOM     44  H91 UNL     1      38.839  51.972  18.756  1.00  0.00     0.157 HD
ENDBRANCH  40  42
ENDBRANCH  31  35
ENDBRANCH  24  27
ENDBRANCH   1  24
TORSDOF 14
ENDMDL
MODEL 3
REMARK VINA RESULT: -7.683375874      2.739      3.722
REMARK  14 active torsions:
REMARK  status: ('A' for Active; 'I' for Inactive)
REMARK    1  A    between atoms: C3_3  and  O1_4 
REMARK    2  A    between atoms: C4_8  and  C5_9 
REMARK    3  A    between atoms: C5_9  and  S1_10 
REMARK    4  A    between atoms: S1_10  and  C6_11 
REMARK    5  A    between atoms: C6_11  and  C7_12 
REMARK    6  A    between atoms: C7_12  and  O2_13 
REMARK    7  A    between atoms: C7_12  and  N2_15 
REMARK    8  A    between atoms: N2_15  and  N3_16 
REMARK    9  A    between atoms: N3_16  and  C8_18 
REMARK   10  A    between atoms: C8_18  and  O3_19 
REMARK   11  A    between atoms: C8_18  and  C9_21 
REMARK   12  A    between atoms: N6_26  and  C10_27 
REMARK   13  A    between atoms: C11_33  and  N9_34 
REMARK   14  A    between atoms: C14_41  and  N11_42 
ROOT
HETATM    1  N3  UNL     1      34.475  56.014  18.164  1.00  0.00    -0.209 N 
ATOM      2  H3  UNL     1      33.911  55.299  17.704  1.00  0.00     0.204 HD
ENDROOT
BRANCH   1   3
HETATM    3  N2  UNL     1      33.954  56.934  18.928  1.00  0.00    -0.302 NA
BRANCH   3   4
HETATM    4  C7  UNL     1      33.405  57.884  19.720  1.00  0.00     0.223 C 
BRANCH   4   5
HETATM    5  C6  UNL     1      33.406  57.851  21.261  1.00  0.00     0.176 C 
BRANCH   5   6
HETATM    6  S1  UNL     1      35.091  58.221  21.845  1.00  0.00    -0.152 SA
BRANCH   6   7
HETATM    7  C5  UNL     1      35.740  59.649  20.850  1.00  0.00     0.150 C 
BRANCH   7   8
HETATM    8  C4  UNL     1      37.163  59.460  20.575  1.00  0.00     0.094 A 
HETATM    9  N1  UNL     1      37.507  59.118  19.324  1.00  0.00    -0.326 N 
HETATM   10  C3  UNL     1      38.794  58.965  18.985  1.00  0.00     0.151 A 
ATOM     11  H1  UNL     1      36.780  58.973  18.623  1.00  0.00     0.169 HD
HETATM   12  C2  UNL     1      39.812  59.143  19.875  1.00  0.00     0.032 A 
HETATM   13  C1  UNL     1      41.260  58.984  19.475  1.00  0.00     0.056 C 
HETATM   14  C14 UNL     1      39.452  59.493  21.167  1.00  0.00     0.110 A 
HETATM   15  N10 UNL     1      38.127  59.641  21.470  1.00  0.00    -0.331 N 
ATOM     16  H10 UNL     1      37.869  59.900  22.422  1.00  0.00     0.168 HD
BRANCH  10  17
HETATM   17  O1  UNL     1      39.098  58.617  17.694  1.00  0.00    -0.346 OA
ATOM     18  H1  UNL     1      39.267  59.307  17.062  1.00  0.00     0.219 HD
ENDBRANCH  10  17
BRANCH  14  19
HETATM   19  N11 UNL     1      40.369  59.669  22.065  1.00  0.00    -0.385 N 
ATOM     20 2H11 UNL     1      41.099  58.973  22.218  1.00  0.00     0.157 HD
ATOM     21 1H11 UNL     1      40.370  60.519  22.629  1.00  0.00     0.157 HD
ENDBRANCH  14  19
ENDBRANCH   7   8
ENDBRANCH   6   7
ENDBRANCH   5   6
ENDBRANCH   4   5
BRANCH   4  22
HETATM   22  O2  UNL     1      32.789  58.977  19.346  1.00  0.00    -0.337 OA
ATOM     23  H2  UNL     1      33.290  59.362  18.637  1.00  0.00     0.220 HD
ENDBRANCH   4  22
ENDBRANCH   3   4
ENDBRANCH   1   3
BRANCH   1  24
HETATM   24  C8  UNL     1      35.900  56.084  18.020  1.00  0.00     0.196 C 
BRANCH  24  25
HETATM   25  O3  UNL     1      36.534  56.311  19.176  1.00  0.00    -0.343 OA
ATOM     26  H3  UNL     1      37.364  56.759  19.064  1.00  0.00     0.219 HD
ENDBRANCH  24  25
BRANCH  24  27
HETATM   27  C9  UNL     1      36.761  55.931  16.900  1.00  0.00     0.126 A 
HETATM   28  N4  UNL     1      37.386  56.757  16.021  1.00  0.00    -0.280 N 
HETATM   29  N5  UNL     1      38.080  56.089  15.135  1.00  0.00    -0.234 N 
ATOM     30  H4  UNL     1      37.321  57.774  16.048  1.00  0.00     0.189 HD
HETATM   31  N6  UNL     1      37.982  54.815  15.326  1.00  0.00    -0.223 N 
ATOM     32  H5  UNL     1      38.628  56.519  14.390  1.00  0.00     0.209 HD
HETATM   33  C12 UNL     1      37.178  54.668  16.406  1.00  0.00     0.066 A 
HETATM   34  C13 UNL     1      36.716  53.367  16.968  1.00  0.00     0.073 C 
BRANCH  31  35
HETATM   35  C10 UNL     1      38.505  53.636  14.663  1.00  0.00     0.196 A 
HETATM   36  N7  UNL     1      39.624  52.946  15.067  1.00  0.00    -0.220 N 
HETATM   37  O4  UNL     1      39.886  52.013  14.197  1.00  0.00    -0.153 OA
ATOM     38  H7  UNL     1      40.163  53.136  15.912  1.00  0.00     0.198 HD
HETATM   39  N8  UNL     1      38.984  52.048  13.247  1.00  0.00    -0.222 N 
HETATM   40  C11 UNL     1      38.113  53.043  13.504  1.00  0.00     0.169 A 
ATOM     41  H8  UNL     1      38.948  51.422  12.442  1.00  0.00     0.198 HD
BRANCH  40  42
HETATM   42  N9  UNL     1      37.081  53.366  12.802  1.00  0.00    -0.381 N 
ATOM     43  H92 UNL     1      37.019  54.124  12.121  1.00  0.00     0.157 HD
ATOM     44  H91 UNL     1      36.178  52.894  12.814  1.00  0.00     0.157 HD
ENDBRANCH  40  42
ENDBRANCH  31  35
ENDBRANCH  24  27
ENDBRANCH   1  24
TORSDOF 14
ENDMDL
MODEL 4
REMARK VINA RESULT: -7.676274984      3.884      8.936
REMARK  14 active torsions:
REMARK  status: ('A' for Active; 'I' for Inactive)
REMARK    1  A    between atoms: C3_3  and  O1_4 
REMARK    2  A    between atoms: C4_8  and  C5_9 
REMARK    3  A    between atoms: C5_9  and  S1_10 
REMARK    4  A    between atoms: S1_10  and  C6_11 
REMARK    5  A    between atoms: C6_11  and  C7_12 
REMARK    6  A    between atoms: C7_12  and  O2_13 
REMARK    7  A    between atoms: C7_12  and  N2_15 
REMARK    8  A    between atoms: N2_15  and  N3_16 
REMARK    9  A    between atoms: N3_16  and  C8_18 
REMARK   10  A    between atoms: C8_18  and  O3_19 
REMARK   11  A    between atoms: C8_18  and  C9_21 
REMARK   12  A    between atoms: N6_26  and  C10_27 
REMARK   13  A    between atoms: C11_33  and  N9_34 
REMARK   14  A    between atoms: C14_41  and  N11_42 
ROOT
HETATM    1  N3  UNL     1      33.941  55.721  17.520  1.00  0.00    -0.209 N 
ATOM      2  H3  UNL     1      33.045  55.451  17.113  1.00  0.00     0.204 HD
ENDROOT
BRANCH   1   3
HETATM    3  N2  UNL     1      35.049  55.085  17.258  1.00  0.00    -0.302 NA
BRANCH   3   4
HETATM    4  C7  UNL     1      36.195  54.418  16.984  1.00  0.00     0.223 C 
BRANCH   4   5
HETATM    5  C6  UNL     1      37.603  54.883  17.404  1.00  0.00     0.176 C 
BRANCH   5   6
HETATM    6  S1  UNL     1      38.736  54.633  16.000  1.00  0.00    -0.152 SA
BRANCH   6   7
HETATM    7  C5  UNL     1      38.112  55.646  14.574  1.00  0.00     0.150 C 
BRANCH   7   8
HETATM    8  C4  UNL     1      38.159  54.859  13.344  1.00  0.00     0.094 A 
HETATM    9  N1  UNL     1      37.460  53.713  13.321  1.00  0.00    -0.326 N 
HETATM   10  C3  UNL     1      37.423  52.956  12.216  1.00  0.00     0.151 A 
ATOM     11  H1  UNL     1      36.952  53.415  14.154  1.00  0.00     0.169 HD
HETATM   12  C2  UNL     1      38.080  53.297  11.071  1.00  0.00     0.032 A 
HETATM   13  C1  UNL     1      38.015  52.444   9.827  1.00  0.00     0.056 C 
HETATM   14  C14 UNL     1      38.802  54.480  11.100  1.00  0.00     0.110 A 
HETATM   15  N10 UNL     1      38.813  55.224  12.247  1.00  0.00    -0.331 N 
ATOM     16  H10 UNL     1      39.345  56.094  12.261  1.00  0.00     0.168 HD
BRANCH  10  17
HETATM   17  O1  UNL     1      36.694  51.795  12.238  1.00  0.00    -0.346 OA
ATOM     18  H1  UNL     1      36.190  51.556  11.469  1.00  0.00     0.219 HD
ENDBRANCH  10  17
BRANCH  14  19
HETATM   19  N11 UNL     1      39.458  54.860  10.049  1.00  0.00    -0.385 N 
ATOM     20 2H11 UNL     1      38.973  55.200   9.218  1.00  0.00     0.157 HD
ATOM     21 1H11 UNL     1      40.477  54.825  10.048  1.00  0.00     0.157 HD
ENDBRANCH  14  19
ENDBRANCH   7   8
ENDBRANCH   6   7
ENDBRANCH   5   6
ENDBRANCH   4   5
BRANCH   4  22
HETATM   22  O2  UNL     1      36.325  53.290  16.334  1.00  0.00    -0.337 OA
ATOM     23  H2  UNL     1      35.951  53.410  15.470  1.00  0.00     0.220 HD
ENDBRANCH   4  22
ENDBRANCH   3   4
ENDBRANCH   1   3
BRANCH   1  24
HETATM   24  C8  UNL     1      34.077  56.827  18.422  1.00  0.00     0.196 C 
BRANCH  24  25
HETATM   25  O3  UNL     1      32.989  57.604  18.467  1.00  0.00    -0.343 OA
ATOM     26  H3  UNL     1      32.642  57.709  19.345  1.00  0.00     0.219 HD
ENDBRANCH  24  25
BRANCH  24  27
HETATM   27  C9  UNL     1      35.124  57.235  19.291  1.00  0.00     0.126 A 
HETATM   28  N4  UNL     1      35.407  57.111  20.614  1.00  0.00    -0.280 N 
HETATM   29  N5  UNL     1      36.534  57.697  20.928  1.00  0.00    -0.234 N 
ATOM     30  H4  UNL     1      34.812  56.621  21.282  1.00  0.00     0.189 HD
HETATM   31  N6  UNL     1      37.080  58.247  19.894  1.00  0.00    -0.223 N 
ATOM     32  H5  UNL     1      36.930  57.718  21.867  1.00  0.00     0.209 HD
HETATM   33  C12 UNL     1      36.246  57.987  18.859  1.00  0.00     0.066 A 
HETATM   34  C13 UNL     1      36.422  58.481  17.464  1.00  0.00     0.073 C 
BRANCH  31  35
HETATM   35  C10 UNL     1      38.284  59.021  19.660  1.00  0.00     0.196 A 
HETATM   36  N7  UNL     1      39.411  58.539  19.037  1.00  0.00    -0.220 N 
HETATM   37  O4  UNL     1      40.346  59.445  19.088  1.00  0.00    -0.153 OA
ATOM     38  H7  UNL     1      39.501  57.620  18.604  1.00  0.00     0.198 HD
HETATM   39  N8  UNL     1      39.883  60.505  19.705  1.00  0.00    -0.222 N 
HETATM   40  C11 UNL     1      38.607  60.275  20.073  1.00  0.00     0.169 A 
ATOM     41  H8  UNL     1      40.404  61.364  19.878  1.00  0.00     0.198 HD
BRANCH  40  42
HETATM   42  N9  UNL     1      37.821  61.095  20.684  1.00  0.00    -0.381 N 
ATOM     43  H92 UNL     1      37.998  61.565  21.572  1.00  0.00     0.157 HD
ATOM     44  H91 UNL     1      36.908  61.406  20.353  1.00  0.00     0.157 HD
ENDBRANCH  40  42
ENDBRANCH  31  35
ENDBRANCH  24  27
ENDBRANCH   1  24
TORSDOF 14
ENDMDL
MODEL 5
REMARK VINA RESULT: -7.618969144      3.984      9.037
REMARK  14 active torsions:
REMARK  status: ('A' for Active; 'I' for Inactive)
REMARK    1  A    between atoms: C3_3  and  O1_4 
REMARK    2  A    between atoms: C4_8  and  C5_9 
REMARK    3  A    between atoms: C5_9  and  S1_10 
REMARK    4  A    between atoms: S1_10  and  C6_11 
REMARK    5  A    between atoms: C6_11  and  C7_12 
REMARK    6  A    between atoms: C7_12  and  O2_13 
REMARK    7  A    between atoms: C7_12  and  N2_15 
REMARK    8  A    between atoms: N2_15  and  N3_16 
REMARK    9  A    between atoms: N3_16  and  C8_18 
REMARK   10  A    between atoms: C8_18  and  O3_19 
REMARK   11  A    between atoms: C8_18  and  C9_21 
REMARK   12  A    between atoms: N6_26  and  C10_27 
REMARK   13  A    between atoms: C11_33  and  N9_34 
REMARK   14  A    between atoms: C14_41  and  N11_42 
ROOT
HETATM    1  N3  UNL     1      34.046  55.668  17.501  1.00  0.00    -0.209 N 
ATOM      2  H3  UNL     1      33.150  55.363  17.122  1.00  0.00     0.204 HD
ENDROOT
BRANCH   1   3
HETATM    3  N2  UNL     1      35.171  55.081  17.199  1.00  0.00    -0.302 NA
BRANCH   3   4
HETATM    4  C7  UNL     1      36.335  54.464  16.887  1.00  0.00     0.223 C 
BRANCH   4   5
HETATM    5  C6  UNL     1      37.736  54.996  17.251  1.00  0.00     0.176 C 
BRANCH   5   6
HETATM    6  S1  UNL     1      38.879  54.588  15.893  1.00  0.00    -0.152 SA
BRANCH   6   7
HETATM    7  C5  UNL     1      38.422  55.635  14.428  1.00  0.00     0.150 C 
BRANCH   7   8
HETATM    8  C4  UNL     1      38.245  54.792  13.248  1.00  0.00     0.094 A 
HETATM    9  N1  UNL     1      38.853  55.183  12.117  1.00  0.00    -0.326 N 
HETATM   10  C3  UNL     1      38.770  54.442  11.004  1.00  0.00     0.151 A 
ATOM     11  H1  UNL     1      39.385  56.053  12.105  1.00  0.00     0.169 HD
HETATM   12  C2  UNL     1      38.074  53.270  10.953  1.00  0.00     0.032 A 
HETATM   13  C1  UNL     1      38.002  52.436   9.697  1.00  0.00     0.056 C 
HETATM   14  C14 UNL     1      37.445  52.872  12.123  1.00  0.00     0.110 A 
HETATM   15  N10 UNL     1      37.557  53.657  13.237  1.00  0.00    -0.331 N 
ATOM     16  H10 UNL     1      37.093  53.358  14.095  1.00  0.00     0.168 HD
BRANCH  10  17
HETATM   17  O1  UNL     1      39.410  54.879   9.872  1.00  0.00    -0.346 OA
ATOM     18  H1  UNL     1      39.512  55.814   9.736  1.00  0.00     0.219 HD
ENDBRANCH  10  17
BRANCH  14  19
HETATM   19  N11 UNL     1      36.759  51.773  12.143  1.00  0.00    -0.385 N 
ATOM     20 2H11 UNL     1      36.858  51.075  11.406  1.00  0.00     0.157 HD
ATOM     21 1H11 UNL     1      36.111  51.594  12.910  1.00  0.00     0.157 HD
ENDBRANCH  14  19
ENDBRANCH   7   8
ENDBRANCH   6   7
ENDBRANCH   5   6
ENDBRANCH   4   5
BRANCH   4  22
HETATM   22  O2  UNL     1      36.493  53.337  16.242  1.00  0.00    -0.337 OA
ATOM     23  H2  UNL     1      36.516  52.637  16.884  1.00  0.00     0.220 HD
ENDBRANCH   4  22
ENDBRANCH   3   4
ENDBRANCH   1   3
BRANCH   1  24
HETATM   24  C8  UNL     1      34.166  56.775  18.405  1.00  0.00     0.196 C 
BRANCH  24  25
HETATM   25  O3  UNL     1      33.059  57.523  18.467  1.00  0.00    -0.343 OA
ATOM     26  H3  UNL     1      33.238  58.441  18.637  1.00  0.00     0.219 HD
ENDBRANCH  24  25
BRANCH  24  27
HETATM   27  C9  UNL     1      35.214  57.207  19.260  1.00  0.00     0.126 A 
HETATM   28  N4  UNL     1      35.509  57.101  20.583  1.00  0.00    -0.280 N 
HETATM   29  N5  UNL     1      36.630  57.708  20.881  1.00  0.00    -0.234 N 
ATOM     30  H4  UNL     1      34.928  56.609  21.260  1.00  0.00     0.189 HD
HETATM   31  N6  UNL     1      37.158  58.256  19.837  1.00  0.00    -0.223 N 
ATOM     32  H5  UNL     1      37.034  57.744  21.817  1.00  0.00     0.209 HD
HETATM   33  C12 UNL     1      36.320  57.973  18.812  1.00  0.00     0.066 A 
HETATM   34  C13 UNL     1      36.476  58.456  17.410  1.00  0.00     0.073 C 
BRANCH  31  35
HETATM   35  C10 UNL     1      38.348  59.046  19.586  1.00  0.00     0.196 A 
HETATM   36  N7  UNL     1      39.444  58.603  18.882  1.00  0.00    -0.220 N 
HETATM   37  O4  UNL     1      40.378  59.510  18.935  1.00  0.00    -0.153 OA
ATOM     38  H7  UNL     1      39.513  57.709  18.397  1.00  0.00     0.198 HD
HETATM   39  N8  UNL     1      39.944  60.533  19.630  1.00  0.00    -0.222 N 
HETATM   40  C11 UNL     1      38.689  60.279  20.049  1.00  0.00     0.169 A 
ATOM     41  H8  UNL     1      40.472  61.384  19.823  1.00  0.00     0.198 HD
BRANCH  40  42
HETATM   42  N9  UNL     1      37.933  61.061  20.741  1.00  0.00    -0.381 N 
ATOM     43  H92 UNL     1      37.302  61.777  20.380  1.00  0.00     0.157 HD
ATOM     44  H91 UNL     1      37.843  61.061  21.757  1.00  0.00     0.157 HD
ENDBRANCH  40  42
ENDBRANCH  31  35
ENDBRANCH  24  27
ENDBRANCH   1  24
TORSDOF 14
ENDMDL
