MODEL 1
REMARK VINA RESULT: -9.610017600      0.000      0.000
REMARK  8 active torsions:
REMARK  status: ('A' for Active; 'I' for Inactive)
REMARK       I    between atoms: C1_4  and  N3_6 
REMARK    1  A    between atoms: N3_6  and  S1_8 
REMARK    2  A    between atoms: S1_8  and  N4_10 
REMARK    3  A    between atoms: S1_8  and  C8_30 
REMARK       I    between atoms: N4_10  and  C2_12 
REMARK       I    between atoms: C2_12  and  N5_14 
REMARK    4  A    between atoms: N5_14  and  C3_16 
REMARK    5  A    between atoms: C3_16  and  C4_17 
REMARK    6  A    between atoms: C4_17  and  O3_18 
REMARK    7  A    between atoms: C6_24  and  C7_25 
REMARK    8  A    between atoms: C7_25  and  O5_26 
REMARK       I    between atoms: N10_37  and  C11_39 
REMARK       I    between atoms: C11_39  and  N11_40 
REMARK       I    between atoms: C11_39  and  N12_44 
ROOT
HETATM    1  S1  UNL     1      73.516  88.906 115.219  1.00  0.00     0.182 S 
HETATM    2  O1  UNL     1      73.974  89.531 113.927  1.00  0.00    -0.220 OA
ENDROOT
BRANCH   1   3
HETATM    3  N3  UNL     1      72.204  89.671 115.624  1.00  0.00    -0.268 N 
HETATM    4  C1  UNL     1      71.420  90.227 114.578  1.00  0.00     0.194 C 
HETATM    5  N1  UNL     1      71.222  89.629 113.458  1.00  0.00    -0.373 N 
HETATM    6  N2  UNL     1      70.825  91.501 114.769  1.00  0.00    -0.063 NA
ATOM      7  H12 UNL     1      70.660  90.028 112.706  1.00  0.00     0.158 HD
ATOM      8  H11 UNL     1      71.651  88.713 113.320  1.00  0.00     0.158 HD
ATOM      9  H3  UNL     1      71.925  89.764 116.601  1.00  0.00     0.180 HD
ENDBRANCH   1   3
BRANCH   1  10
HETATM   10  N4  UNL     1      74.641  89.093 116.475  1.00  0.00    -0.246 N 
HETATM   11  C2  UNL     1      74.243  88.950 117.855  1.00  0.00     0.328 C 
HETATM   12  O2  UNL     1      73.042  88.680 118.102  1.00  0.00    -0.246 OA
HETATM   13  N5  UNL     1      75.164  89.108 118.901  1.00  0.00    -0.338 N 
ATOM     14  H5  UNL     1      76.124  89.315 118.623  1.00  0.00     0.164 HD
ATOM     15  H4  UNL     1      75.613  89.310 116.252  1.00  0.00     0.182 HD
BRANCH  13  16
HETATM   16  C3  UNL     1      74.928  89.017 120.300  1.00  0.00     0.187 C 
BRANCH  16  17
HETATM   17  C4  UNL     1      75.914  88.245 121.126  1.00  0.00     0.173 C 
HETATM   18  C5  UNL     1      75.191  87.351 122.137  1.00  0.00     0.264 C 
HETATM   19  O4  UNL     1      75.843  87.468 123.407  1.00  0.00    -0.274 OA
HETATM   20  N6  UNL     1      75.997  88.723 123.978  1.00  0.00    -0.252 N 
HETATM   21  C6  UNL     1      76.448  89.623 123.142  1.00  0.00     0.123 C 
ATOM     22  H6  UNL     1      75.781  88.925 124.953  1.00  0.00     0.196 HD
HETATM   23  N7  UNL     1      76.718  89.245 121.829  1.00  0.00    -0.342 N 
ATOM     24  H7  UNL     1      77.502  89.680 121.341  1.00  0.00     0.164 HD
BRANCH  17  25
HETATM   25  O3  UNL     1      76.719  87.424 120.374  1.00  0.00    -0.367 OA
ATOM     26  H3  UNL     1      76.353  86.556 120.251  1.00  0.00     0.212 HD
ENDBRANCH  17  25
BRANCH  21  27
HETATM   27  C7  UNL     1      76.653  91.013 123.648  1.00  0.00     0.242 C 
BRANCH  27  28
HETATM   28  O5  UNL     1      75.916  91.932 122.942  1.00  0.00    -0.393 OA
ATOM     29  H5  UNL     1      76.243  92.046 122.057  1.00  0.00     0.209 HD
ENDBRANCH  27  28
ENDBRANCH  21  27
ENDBRANCH  16  17
ENDBRANCH  13  16
ENDBRANCH   1  10
BRANCH   1  30
HETATM   30  C8  UNL     1      73.141  87.220 114.957  1.00  0.00     0.205 A 
HETATM   31  N8  UNL     1      73.009  86.224 115.848  1.00  0.00    -0.316 N 
HETATM   32  C9  UNL     1      72.720  85.075 115.224  1.00  0.00     0.155 A 
ATOM     33  H8  UNL     1      73.114  86.328 116.857  1.00  0.00     0.169 HD
HETATM   34  N9  UNL     1      72.484  83.796 115.585  1.00  0.00    -0.174 N 
HETATM   35  C13 UNL     1      72.667  85.360 113.872  1.00  0.00     0.148 A 
HETATM   36  C10 UNL     1      72.209  82.817 114.706  1.00  0.00     0.685 A 
ATOM     37  H9  UNL     1      72.516  83.560 116.578  1.00  0.00     0.186 HD
HETATM   38  N10 UNL     1      71.981  81.607 114.968  1.00  0.00    -0.173 N 
HETATM   39  N13 UNL     1      72.169  83.154 113.380  1.00  0.00    -0.154 N 
HETATM   40  C11 UNL     1      71.939  80.909 116.199  1.00  0.00     0.494 C 
ATOM     41  H10 UNL     1      71.794  81.027 114.150  1.00  0.00     0.181 HD
HETATM   42  N11 UNL     1      73.186  80.922 116.934  1.00  0.00    -0.032 N 
HETATM   43  N12 UNL     1      70.824  81.289 117.047  1.00  0.00    -0.032 N 
ATOM     44 3H11 UNL     1      73.947  80.572 116.350  1.00  0.00     0.278 HD
ATOM     45 2H11 UNL     1      73.505  81.881 117.077  1.00  0.00     0.278 HD
ATOM     46 1H11 UNL     1      73.156  80.420 117.820  1.00  0.00     0.278 HD
ATOM     47 3H12 UNL     1      70.818  82.297 117.205  1.00  0.00     0.278 HD
ATOM     48 2H12 UNL     1      69.940  81.190 116.547  1.00  0.00     0.278 HD
ATOM     49 1H12 UNL     1      70.793  80.787 117.934  1.00  0.00     0.278 HD
HETATM   50  C12 UNL     1      72.391  84.397 112.950  1.00  0.00     0.290 A 
ATOM     51  H13 UNL     1      71.961  82.427 112.696  1.00  0.00     0.187 HD
HETATM   52  O6  UNL     1      72.348  84.687 111.714  1.00  0.00    -0.265 OA
HETATM   53  N14 UNL     1      72.926  86.657 113.759  1.00  0.00    -0.325 N 
ATOM     54  H14 UNL     1      72.959  87.161 112.874  1.00  0.00     0.168 HD
ENDBRANCH   1  30
TORSDOF 8
ENDMDL
MODEL 2
REMARK VINA RESULT: -9.317646875      1.385      2.404
REMARK  8 active torsions:
REMARK  status: ('A' for Active; 'I' for Inactive)
REMARK       I    between atoms: C1_4  and  N3_6 
REMARK    1  A    between atoms: N3_6  and  S1_8 
REMARK    2  A    between atoms: S1_8  and  N4_10 
REMARK    3  A    between atoms: S1_8  and  C8_30 
REMARK       I    between atoms: N4_10  and  C2_12 
REMARK       I    between atoms: C2_12  and  N5_14 
REMARK    4  A    between atoms: N5_14  and  C3_16 
REMARK    5  A    between atoms: C3_16  and  C4_17 
REMARK    6  A    between atoms: C4_17  and  O3_18 
REMARK    7  A    between atoms: C6_24  and  C7_25 
REMARK    8  A    between atoms: C7_25  and  O5_26 
REMARK       I    between atoms: N10_37  and  C11_39 
REMARK       I    between atoms: C11_39  and  N11_40 
REMARK       I    between atoms: C11_39  and  N12_44 
ROOT
HETATM    1  S1  UNL     1      73.545  88.877 115.285  1.00  0.00     0.182 S 
HETATM    2  O1  UNL     1      74.049  89.503 114.012  1.00  0.00    -0.220 OA
ENDROOT
BRANCH   1   3
HETATM    3  N3  UNL     1      72.228  89.655 115.653  1.00  0.00    -0.268 N 
HETATM    4  C1  UNL     1      71.478  90.215 114.585  1.00  0.00     0.194 C 
HETATM    5  N1  UNL     1      71.305  89.615 113.462  1.00  0.00    -0.373 N 
HETATM    6  N2  UNL     1      70.889  91.494 114.756  1.00  0.00    -0.063 NA
ATOM      7  H12 UNL     1      70.766  90.016 112.695  1.00  0.00     0.158 HD
ATOM      8  H11 UNL     1      71.728  88.694 113.339  1.00  0.00     0.158 HD
ATOM      9  H3  UNL     1      71.924  89.754 116.622  1.00  0.00     0.180 HD
ENDBRANCH   1   3
BRANCH   1  10
HETATM   10  N4  UNL     1      74.631  89.046 116.577  1.00  0.00    -0.246 N 
HETATM   11  C2  UNL     1      74.190  88.895 117.943  1.00  0.00     0.328 C 
HETATM   12  O2  UNL     1      72.981  88.631 118.151  1.00  0.00    -0.246 OA
HETATM   13  N5  UNL     1      75.080  89.038 119.018  1.00  0.00    -0.338 N 
ATOM     14  H5  UNL     1      76.049  89.240 118.772  1.00  0.00     0.164 HD
ATOM     15  H4  UNL     1      75.611  89.258 116.386  1.00  0.00     0.182 HD
BRANCH  13  16
HETATM   16  C3  UNL     1      74.801  88.936 120.408  1.00  0.00     0.187 C 
BRANCH  16  17
HETATM   17  C4  UNL     1      75.632  87.988 121.221  1.00  0.00     0.173 C 
HETATM   18  C5  UNL     1      77.050  88.534 121.406  1.00  0.00     0.264 C 
HETATM   19  O4  UNL     1      77.987  87.474 121.182  1.00  0.00    -0.274 OA
HETATM   20  N6  UNL     1      77.949  86.777 119.983  1.00  0.00    -0.252 N 
HETATM   21  C6  UNL     1      76.744  86.411 119.631  1.00  0.00     0.123 C 
ATOM     22  H6  UNL     1      78.780  86.571 119.429  1.00  0.00     0.196 HD
HETATM   23  N7  UNL     1      75.673  86.739 120.461  1.00  0.00    -0.342 N 
ATOM     24  H7  UNL     1      74.893  86.086 120.540  1.00  0.00     0.164 HD
BRANCH  17  25
HETATM   25  O3  UNL     1      75.122  87.768 122.477  1.00  0.00    -0.367 OA
ATOM     26  H3  UNL     1      74.939  88.572 122.949  1.00  0.00     0.212 HD
ENDBRANCH  17  25
BRANCH  21  27
HETATM   27  C7  UNL     1      76.583  85.653 118.354  1.00  0.00     0.242 C 
BRANCH  27  28
HETATM   28  O5  UNL     1      75.670  86.245 117.516  1.00  0.00    -0.393 OA
ATOM     29  H5  UNL     1      75.814  86.008 116.607  1.00  0.00     0.209 HD
ENDBRANCH  27  28
ENDBRANCH  21  27
ENDBRANCH  16  17
ENDBRANCH  13  16
ENDBRANCH   1  10
BRANCH   1  30
HETATM   30  C8  UNL     1      73.160  87.197 115.003  1.00  0.00     0.205 A 
HETATM   31  N8  UNL     1      73.028  86.190 115.882  1.00  0.00    -0.316 N 
HETATM   32  C9  UNL     1      72.729  85.051 115.245  1.00  0.00     0.155 A 
ATOM     33  H8  UNL     1      73.140  86.280 116.892  1.00  0.00     0.169 HD
HETATM   34  N9  UNL     1      72.490  83.768 115.591  1.00  0.00    -0.174 N 
HETATM   35  C13 UNL     1      72.669  85.354 113.898  1.00  0.00     0.148 A 
HETATM   36  C10 UNL     1      72.204  82.803 114.700  1.00  0.00     0.685 A 
ATOM     37  H9  UNL     1      72.527  83.518 116.580  1.00  0.00     0.186 HD
HETATM   38  N10 UNL     1      71.971  81.590 114.948  1.00  0.00    -0.173 N 
HETATM   39  N13 UNL     1      72.156  83.157 113.379  1.00  0.00    -0.154 N 
HETATM   40  C11 UNL     1      71.934  80.876 116.170  1.00  0.00     0.494 C 
ATOM     41  H10 UNL     1      71.776  81.022 114.123  1.00  0.00     0.181 HD
HETATM   42  N11 UNL     1      73.187  80.873 116.896  1.00  0.00    -0.032 N 
HETATM   43  N12 UNL     1      70.827  81.250 117.030  1.00  0.00    -0.032 N 
ATOM     44 3H11 UNL     1      73.941  80.527 116.303  1.00  0.00     0.278 HD
ATOM     45 2H11 UNL     1      73.511  81.828 117.050  1.00  0.00     0.278 HD
ATOM     46 1H11 UNL     1      73.159  80.359 117.776  1.00  0.00     0.278 HD
ATOM     47 3H12 UNL     1      70.827  82.256 117.202  1.00  0.00     0.278 HD
ATOM     48 2H12 UNL     1      69.940  81.161 116.535  1.00  0.00     0.278 HD
ATOM     49 1H12 UNL     1      70.800  80.736 117.911  1.00  0.00     0.278 HD
HETATM   50  C12 UNL     1      72.381  84.405 112.965  1.00  0.00     0.290 A 
ATOM     51  H13 UNL     1      71.941  82.441 112.687  1.00  0.00     0.187 HD
HETATM   52  O6  UNL     1      72.332  84.711 111.733  1.00  0.00    -0.265 OA
HETATM   53  N14 UNL     1      72.934  86.651 113.800  1.00  0.00    -0.325 N 
ATOM     54  H14 UNL     1      72.962  87.166 112.921  1.00  0.00     0.168 HD
ENDBRANCH   1  30
TORSDOF 8
ENDMDL
MODEL 3
REMARK VINA RESULT: -8.718965207      2.495      9.214
REMARK  8 active torsions:
REMARK  status: ('A' for Active; 'I' for Inactive)
REMARK       I    between atoms: C1_4  and  N3_6 
REMARK    1  A    between atoms: N3_6  and  S1_8 
REMARK    2  A    between atoms: S1_8  and  N4_10 
REMARK    3  A    between atoms: S1_8  and  C8_30 
REMARK       I    between atoms: N4_10  and  C2_12 
REMARK       I    between atoms: C2_12  and  N5_14 
REMARK    4  A    between atoms: N5_14  and  C3_16 
REMARK    5  A    between atoms: C3_16  and  C4_17 
REMARK    6  A    between atoms: C4_17  and  O3_18 
REMARK    7  A    between atoms: C6_24  and  C7_25 
REMARK    8  A    between atoms: C7_25  and  O5_26 
REMARK       I    between atoms: N10_37  and  C11_39 
REMARK       I    between atoms: C11_39  and  N11_40 
REMARK       I    between atoms: C11_39  and  N12_44 
ROOT
HETATM    1  S1  UNL     1      73.644  88.363 116.328  1.00  0.00     0.182 S 
HETATM    2  O1  UNL     1      72.763  89.575 116.481  1.00  0.00    -0.220 OA
ENDROOT
BRANCH   1   3
HETATM    3  N3  UNL     1      74.530  88.635 115.057  1.00  0.00    -0.268 N 
HETATM    4  C1  UNL     1      73.859  88.954 113.846  1.00  0.00     0.194 C 
HETATM    5  N1  UNL     1      72.824  89.714 113.800  1.00  0.00    -0.373 N 
HETATM    6  N2  UNL     1      74.346  88.414 112.628  1.00  0.00    -0.063 NA
ATOM      7  H12 UNL     1      72.341  89.943 112.931  1.00  0.00     0.158 HD
ATOM      8  H11 UNL     1      72.472  90.102 114.676  1.00  0.00     0.158 HD
ATOM      9  H3  UNL     1      75.548  88.583 115.100  1.00  0.00     0.180 HD
ENDBRANCH   1   3
BRANCH   1  10
HETATM   10  N4  UNL     1      72.762  86.939 116.058  1.00  0.00    -0.246 N 
HETATM   11  C2  UNL     1      73.404  85.756 115.537  1.00  0.00     0.328 C 
HETATM   12  O2  UNL     1      74.634  85.806 115.292  1.00  0.00    -0.246 OA
HETATM   13  N5  UNL     1      72.683  84.575 115.305  1.00  0.00    -0.338 N 
ATOM     14  H5  UNL     1      71.691  84.606 115.540  1.00  0.00     0.164 HD
ATOM     15  H4  UNL     1      71.764  86.919 116.266  1.00  0.00     0.182 HD
BRANCH  13  16
HETATM   16  C3  UNL     1      73.161  83.342 114.785  1.00  0.00     0.187 C 
BRANCH  16  17
HETATM   17  C4  UNL     1      72.272  82.140 114.909  1.00  0.00     0.173 C 
HETATM   18  C5  UNL     1      73.106  80.863 115.043  1.00  0.00     0.264 C 
HETATM   19  O4  UNL     1      72.548  79.855 114.192  1.00  0.00    -0.274 OA
HETATM   20  N6  UNL     1      72.388  80.122 112.840  1.00  0.00    -0.252 N 
HETATM   21  C6  UNL     1      71.840  81.284 112.600  1.00  0.00     0.123 C 
ATOM     22  H6  UNL     1      72.670  79.474 112.104  1.00  0.00     0.196 HD
HETATM   23  N7  UNL     1      71.485  82.095 113.677  1.00  0.00    -0.342 N 
ATOM     24  H7  UNL     1      70.650  82.676 113.603  1.00  0.00     0.164 HD
BRANCH  17  25
HETATM   25  O3  UNL     1      71.446  82.193 116.005  1.00  0.00    -0.367 OA
ATOM     26  H3  UNL     1      71.864  81.884 116.800  1.00  0.00     0.212 HD
ENDBRANCH  17  25
BRANCH  21  27
HETATM   27  C7  UNL     1      71.618  81.678 111.176  1.00  0.00     0.242 C 
BRANCH  27  28
HETATM   28  O5  UNL     1      72.319  80.878 110.306  1.00  0.00    -0.393 OA
ATOM     29  H5  UNL     1      71.975  80.927 109.422  1.00  0.00     0.209 HD
ENDBRANCH  27  28
ENDBRANCH  21  27
ENDBRANCH  16  17
ENDBRANCH  13  16
ENDBRANCH   1  10
BRANCH   1  30
HETATM   30  C8  UNL     1      74.679  88.206 117.727  1.00  0.00     0.205 A 
HETATM   31  N8  UNL     1      74.708  88.933 118.855  1.00  0.00    -0.316 N 
HETATM   32  C9  UNL     1      75.662  88.481 119.677  1.00  0.00     0.155 A 
ATOM     33  H8  UNL     1      74.090  89.719 119.058  1.00  0.00     0.169 HD
HETATM   34  N9  UNL     1      76.136  88.801 120.900  1.00  0.00    -0.174 N 
HETATM   35  C13 UNL     1      76.266  87.415 119.035  1.00  0.00     0.148 A 
HETATM   36  C10 UNL     1      77.144  88.143 121.499  1.00  0.00     0.685 A 
ATOM     37  H9  UNL     1      75.708  89.583 121.395  1.00  0.00     0.186 HD
HETATM   38  N10 UNL     1      77.638  88.385 122.632  1.00  0.00    -0.173 N 
HETATM   39  N13 UNL     1      77.705  87.096 120.820  1.00  0.00    -0.154 N 
HETATM   40  C11 UNL     1      77.320  89.369 123.599  1.00  0.00     0.494 C 
ATOM     41  H10 UNL     1      78.401  87.763 122.900  1.00  0.00     0.181 HD
HETATM   42  N11 UNL     1      77.489  90.731 123.139  1.00  0.00    -0.032 N 
HETATM   43  N12 UNL     1      76.022  89.179 124.220  1.00  0.00    -0.032 N 
ATOM     44 3H11 UNL     1      78.434  90.873 122.783  1.00  0.00     0.278 HD
ATOM     45 2H11 UNL     1      76.955  90.887 122.283  1.00  0.00     0.278 HD
ATOM     46 1H11 UNL     1      77.259  91.440 123.836  1.00  0.00     0.278 HD
ATOM     47 3H12 UNL     1      75.289  89.121 123.513  1.00  0.00     0.278 HD
ATOM     48 2H12 UNL     1      75.948  88.244 124.621  1.00  0.00     0.278 HD
ATOM     49 1H12 UNL     1      75.793  89.888 124.917  1.00  0.00     0.278 HD
HETATM   50  C12 UNL     1      77.288  86.722 119.609  1.00  0.00     0.290 A 
ATOM     51  H13 UNL     1      78.471  86.583 121.256  1.00  0.00     0.187 HD
HETATM   52  O6  UNL     1      77.824  85.747 118.997  1.00  0.00    -0.265 OA
HETATM   53  N14 UNL     1      75.644  87.288 117.870  1.00  0.00    -0.325 N 
ATOM     54  H14 UNL     1      75.872  86.581 117.172  1.00  0.00     0.168 HD
ENDBRANCH   1  30
TORSDOF 8
ENDMDL
MODEL 4
REMARK VINA RESULT: -8.715660910      4.766      7.034
REMARK  8 active torsions:
REMARK  status: ('A' for Active; 'I' for Inactive)
REMARK       I    between atoms: C1_4  and  N3_6 
REMARK    1  A    between atoms: N3_6  and  S1_8 
REMARK    2  A    between atoms: S1_8  and  N4_10 
REMARK    3  A    between atoms: S1_8  and  C8_30 
REMARK       I    between atoms: N4_10  and  C2_12 
REMARK       I    between atoms: C2_12  and  N5_14 
REMARK    4  A    between atoms: N5_14  and  C3_16 
REMARK    5  A    between atoms: C3_16  and  C4_17 
REMARK    6  A    between atoms: C4_17  and  O3_18 
REMARK    7  A    between atoms: C6_24  and  C7_25 
REMARK    8  A    between atoms: C7_25  and  O5_26 
REMARK       I    between atoms: N10_37  and  C11_39 
REMARK       I    between atoms: C11_39  and  N11_40 
REMARK       I    between atoms: C11_39  and  N12_44 
ROOT
HETATM    1  S1  UNL     1      72.962  83.188 112.665  1.00  0.00     0.182 S 
HETATM    2  O1  UNL     1      74.463  83.092 112.576  1.00  0.00    -0.220 OA
ENDROOT
BRANCH   1   3
HETATM    3  N3  UNL     1      72.411  82.520 111.353  1.00  0.00    -0.268 N 
HETATM    4  C1  UNL     1      72.781  83.107 110.113  1.00  0.00     0.194 C 
HETATM    5  N1  UNL     1      73.958  83.567 109.881  1.00  0.00    -0.373 N 
HETATM    6  N2  UNL     1      71.814  83.194 109.078  1.00  0.00    -0.063 NA
ATOM      7  H12 UNL     1      74.225  83.988 108.991  1.00  0.00     0.158 HD
ATOM      8  H11 UNL     1      74.654  83.504 110.625  1.00  0.00     0.158 HD
ATOM      9  H3  UNL     1      71.809  81.696 111.389  1.00  0.00     0.180 HD
ENDBRANCH   1   3
BRANCH   1  10
HETATM   10  N4  UNL     1      72.407  84.790 112.711  1.00  0.00    -0.246 N 
HETATM   11  C2  UNL     1      73.268  85.885 112.331  1.00  0.00     0.328 C 
HETATM   12  O2  UNL     1      74.438  85.621 111.962  1.00  0.00    -0.246 OA
HETATM   13  N5  UNL     1      72.820  87.214 112.370  1.00  0.00    -0.338 N 
ATOM     14  H5  UNL     1      71.855  87.351 112.668  1.00  0.00     0.164 HD
ATOM     15  H4  UNL     1      71.452  84.983 113.011  1.00  0.00     0.182 HD
BRANCH  13  16
HETATM   16  C3  UNL     1      73.544  88.394 112.047  1.00  0.00     0.187 C 
BRANCH  16  17
HETATM   17  C4  UNL     1      74.122  89.192 113.179  1.00  0.00     0.173 C 
HETATM   18  C5  UNL     1      74.482  88.280 114.355  1.00  0.00     0.264 C 
HETATM   19  O4  UNL     1      74.032  88.891 115.569  1.00  0.00    -0.274 OA
HETATM   20  N6  UNL     1      72.696  89.246 115.696  1.00  0.00    -0.252 N 
HETATM   21  C6  UNL     1      72.226  89.883 114.655  1.00  0.00     0.123 C 
ATOM     22  H6  UNL     1      72.135  89.030 116.519  1.00  0.00     0.196 HD
HETATM   23  N7  UNL     1      73.076  90.133 113.580  1.00  0.00    -0.342 N 
ATOM     24  H7  UNL     1      72.966  91.001 113.054  1.00  0.00     0.164 HD
BRANCH  17  25
HETATM   25  O3  UNL     1      75.267  89.865 112.832  1.00  0.00    -0.367 OA
ATOM     26  H3  UNL     1      75.633  90.370 113.549  1.00  0.00     0.212 HD
ENDBRANCH  17  25
BRANCH  21  27
HETATM   27  C7  UNL     1      70.797  90.315 114.681  1.00  0.00     0.242 C 
BRANCH  27  28
HETATM   28  O5  UNL     1      70.673  91.679 114.794  1.00  0.00    -0.393 OA
ATOM     29  H5  UNL     1      71.517  92.109 114.860  1.00  0.00     0.209 HD
ENDBRANCH  27  28
ENDBRANCH  21  27
ENDBRANCH  16  17
ENDBRANCH  13  16
ENDBRANCH   1  10
BRANCH   1  30
HETATM   30  C8  UNL     1      72.395  82.286 114.050  1.00  0.00     0.205 A 
HETATM   31  N8  UNL     1      71.885  82.731 115.210  1.00  0.00    -0.316 N 
HETATM   32  C9  UNL     1      71.578  81.702 116.009  1.00  0.00     0.155 A 
ATOM     33  H8  UNL     1      71.750  83.714 115.448  1.00  0.00     0.169 HD
HETATM   34  N9  UNL     1      71.054  81.542 117.243  1.00  0.00    -0.174 N 
HETATM   35  C13 UNL     1      71.911  80.551 115.320  1.00  0.00     0.148 A 
HETATM   36  C10 UNL     1      70.852  80.339 117.811  1.00  0.00     0.685 A 
ATOM     37  H9  UNL     1      70.799  82.376 117.773  1.00  0.00     0.186 HD
HETATM   38  N10 UNL     1      70.372  80.114 118.953  1.00  0.00    -0.173 N 
HETATM   39  N13 UNL     1      71.199  79.233 117.085  1.00  0.00    -0.154 N 
HETATM   40  C11 UNL     1      69.912  80.991 119.963  1.00  0.00     0.494 C 
ATOM     41  H10 UNL     1      70.304  79.124 119.192  1.00  0.00     0.181 HD
HETATM   42  N11 UNL     1      70.921  81.896 120.472  1.00  0.00    -0.032 N 
HETATM   43  N12 UNL     1      68.697  81.703 119.609  1.00  0.00    -0.032 N 
ATOM     44 3H11 UNL     1      71.736  81.374 120.797  1.00  0.00     0.278 HD
ATOM     45 2H11 UNL     1      71.345  82.422 119.708  1.00  0.00     0.278 HD
ATOM     46 1H11 UNL     1      70.589  82.528 121.200  1.00  0.00     0.278 HD
ATOM     47 3H12 UNL     1      68.816  82.202 118.727  1.00  0.00     0.278 HD
ATOM     48 2H12 UNL     1      67.963  81.049 119.338  1.00  0.00     0.278 HD
ATOM     49 1H12 UNL     1      68.365  82.336 120.337  1.00  0.00     0.278 HD
HETATM   50  C12 UNL     1      71.721  79.315 115.859  1.00  0.00     0.290 A 
ATOM     51  H13 UNL     1      71.054  78.311 117.496  1.00  0.00     0.187 HD
HETATM   52  O6  UNL     1      72.035  78.274 115.204  1.00  0.00    -0.265 OA
HETATM   53  N14 UNL     1      72.397  80.950 114.152  1.00  0.00    -0.325 N 
ATOM     54  H14 UNL     1      72.731  80.319 113.423  1.00  0.00     0.168 HD
ENDBRANCH   1  30
TORSDOF 8
ENDMDL
MODEL 5
REMARK VINA RESULT: -8.704870722      1.498      1.787
REMARK  8 active torsions:
REMARK  status: ('A' for Active; 'I' for Inactive)
REMARK       I    between atoms: C1_4  and  N3_6 
REMARK    1  A    between atoms: N3_6  and  S1_8 
REMARK    2  A    between atoms: S1_8  and  N4_10 
REMARK    3  A    between atoms: S1_8  and  C8_30 
REMARK       I    between atoms: N4_10  and  C2_12 
REMARK       I    between atoms: C2_12  and  N5_14 
REMARK    4  A    between atoms: N5_14  and  C3_16 
REMARK    5  A    between atoms: C3_16  and  C4_17 
REMARK    6  A    between atoms: C4_17  and  O3_18 
REMARK    7  A    between atoms: C6_24  and  C7_25 
REMARK    8  A    between atoms: C7_25  and  O5_26 
REMARK       I    between atoms: N10_37  and  C11_39 
REMARK       I    between atoms: C11_39  and  N11_40 
REMARK       I    between atoms: C11_39  and  N12_44 
ROOT
HETATM    1  S1  UNL     1      73.987  88.895 115.252  1.00  0.00     0.182 S 
HETATM    2  O1  UNL     1      74.414  89.838 114.158  1.00  0.00    -0.220 OA
ENDROOT
BRANCH   1   3
HETATM    3  N3  UNL     1      72.522  89.318 115.636  1.00  0.00    -0.268 N 
HETATM    4  C1  UNL     1      71.710  89.874 114.612  1.00  0.00     0.194 C 
HETATM    5  N1  UNL     1      71.711  89.436 113.404  1.00  0.00    -0.373 N 
HETATM    6  N2  UNL     1      70.856  90.962 114.927  1.00  0.00    -0.063 NA
ATOM      7  H12 UNL     1      71.128  89.835 112.668  1.00  0.00     0.158 HD
ATOM      8  H11 UNL     1      72.326  88.653 113.177  1.00  0.00     0.158 HD
ATOM      9  H3  UNL     1      72.168  89.199 116.586  1.00  0.00     0.180 HD
ENDBRANCH   1   3
BRANCH   1  10
HETATM   10  N4  UNL     1      74.951  89.020 116.642  1.00  0.00    -0.246 N 
HETATM   11  C2  UNL     1      74.399  88.778 117.953  1.00  0.00     0.328 C 
HETATM   12  O2  UNL     1      73.185  88.468 118.038  1.00  0.00    -0.246 OA
HETATM   13  N5  UNL     1      75.187  88.884 119.109  1.00  0.00    -0.338 N 
ATOM     14  H5  UNL     1      76.166  89.127 118.960  1.00  0.00     0.164 HD
ATOM     15  H4  UNL     1      75.936  89.270 116.550  1.00  0.00     0.182 HD
BRANCH  13  16
HETATM   16  C3  UNL     1      74.791  88.695 120.461  1.00  0.00     0.187 C 
BRANCH  16  17
HETATM   17  C4  UNL     1      75.426  87.569 121.224  1.00  0.00     0.173 C 
HETATM   18  C5  UNL     1      74.416  86.926 122.178  1.00  0.00     0.264 C 
HETATM   19  O4  UNL     1      75.047  86.718 123.447  1.00  0.00    -0.274 OA
HETATM   20  N6  UNL     1      75.628  87.796 124.101  1.00  0.00    -0.252 N 
HETATM   21  C6  UNL     1      76.381  88.531 123.324  1.00  0.00     0.123 C 
ATOM     22  H6  UNL     1      75.481  87.996 125.089  1.00  0.00     0.196 HD
HETATM   23  N7  UNL     1      76.521  88.170 121.986  1.00  0.00    -0.342 N 
ATOM     24  H7  UNL     1      77.416  88.330 121.522  1.00  0.00     0.164 HD
BRANCH  17  25
HETATM   25  O3  UNL     1      75.899  86.569 120.411  1.00  0.00    -0.367 OA
ATOM     26  H3  UNL     1      76.843  86.473 120.452  1.00  0.00     0.212 HD
ENDBRANCH  17  25
BRANCH  21  27
HETATM   27  C7  UNL     1      77.059  89.720 123.922  1.00  0.00     0.242 C 
BRANCH  27  28
HETATM   28  O5  UNL     1      77.234  90.728 123.004  1.00  0.00    -0.393 OA
ATOM     29  H5  UNL     1      77.645  91.493 123.389  1.00  0.00     0.209 HD
ENDBRANCH  27  28
ENDBRANCH  21  27
ENDBRANCH  16  17
ENDBRANCH  13  16
ENDBRANCH   1  10
BRANCH   1  30
HETATM   30  C8  UNL     1      73.970  87.257 114.643  1.00  0.00     0.205 A 
HETATM   31  N8  UNL     1      73.011  86.321 114.731  1.00  0.00    -0.316 N 
HETATM   32  C9  UNL     1      73.405  85.192 114.130  1.00  0.00     0.155 A 
ATOM     33  H8  UNL     1      72.110  86.452 115.189  1.00  0.00     0.169 HD
HETATM   34  N9  UNL     1      72.885  83.966 113.909  1.00  0.00    -0.174 N 
HETATM   35  C13 UNL     1      74.677  85.426 113.640  1.00  0.00     0.148 A 
HETATM   36  C10 UNL     1      73.537  82.993 113.249  1.00  0.00     0.685 A 
ATOM     37  H9  UNL     1      71.947  83.768 114.260  1.00  0.00     0.186 HD
HETATM   38  N10 UNL     1      73.117  81.830 113.007  1.00  0.00    -0.173 N 
HETATM   39  N13 UNL     1      74.792  83.278 112.785  1.00  0.00    -0.154 N 
HETATM   40  C11 UNL     1      71.894  81.193 113.326  1.00  0.00     0.494 C 
ATOM     41  H10 UNL     1      73.774  81.245 112.491  1.00  0.00     0.181 HD
HETATM   42  N11 UNL     1      71.632  81.085 114.746  1.00  0.00    -0.032 N 
HETATM   43  N12 UNL     1      70.750  81.739 112.619  1.00  0.00    -0.032 N 
ATOM     44 3H11 UNL     1      72.409  80.622 115.218  1.00  0.00     0.278 HD
ATOM     45 2H11 UNL     1      71.682  82.003 115.188  1.00  0.00     0.278 HD
ATOM     46 1H11 UNL     1      70.750  80.627 114.976  1.00  0.00     0.278 HD
ATOM     47 3H12 UNL     1      70.681  82.746 112.769  1.00  0.00     0.278 HD
ATOM     48 2H12 UNL     1      70.910  81.727 111.612  1.00  0.00     0.278 HD
ATOM     49 1H12 UNL     1      69.869  81.280 112.849  1.00  0.00     0.278 HD
HETATM   50  C12 UNL     1      75.370  84.467 112.966  1.00  0.00     0.290 A 
ATOM     51  H13 UNL     1      75.305  82.554 112.282  1.00  0.00     0.187 HD
HETATM   52  O6  UNL     1      76.536  84.709 112.526  1.00  0.00    -0.265 OA
HETATM   53  N14 UNL     1      74.974  86.676 113.971  1.00  0.00    -0.325 N 
ATOM     54  H14 UNL     1      75.855  87.136 113.744  1.00  0.00     0.168 HD
ENDBRANCH   1  30
TORSDOF 8
ENDMDL
