MODEL 1
REMARK VINA RESULT: -5.011196270      0.000      0.000
REMARK  2 active torsions:
REMARK  status: ('A' for Active; 'I' for Inactive)
REMARK    1  A    between atoms: N1_1  and  C1_4 
REMARK    2  A    between atoms: N4_10  and  N5_12 
ROOT
HETATM    1  C1  UNL     1      37.531  35.542  19.280  1.00  0.00     0.160 A 
HETATM    2  N2  UNL     1      37.087  34.806  18.258  1.00  0.00    -0.278 N 
ATOM      3  H2  UNL     1      37.289  33.806  18.214  1.00  0.00     0.189 HD
HETATM    4  N3  UNL     1      36.410  35.369  17.342  1.00  0.00    -0.277 N 
ATOM      5  H3  UNL     1      36.061  34.825  16.553  1.00  0.00     0.189 HD
HETATM    6  C2  UNL     1      36.159  36.675  17.418  1.00  0.00     0.181 A 
HETATM    7  N4  UNL     1      35.482  37.425  16.574  1.00  0.00    -0.285 N 
ATOM      8  H4  UNL     1      35.059  37.049  15.726  1.00  0.00     0.188 HD
HETATM    9  S1  UNL     1      36.942  37.095  18.885  1.00  0.00    -0.014 SA
ENDROOT
BRANCH   7  10
HETATM   10  N5  UNL     1      35.386  38.764  16.923  1.00  0.00    -0.343 N 
ATOM     11  H52 UNL     1      35.942  39.159  17.683  1.00  0.00     0.176 HD
ATOM     12  H51 UNL     1      34.728  39.310  16.368  1.00  0.00     0.176 HD
ENDBRANCH   7  10
BRANCH   1  13
HETATM   13  N1  UNL     1      38.234  35.197  20.320  1.00  0.00    -0.378 N 
ATOM     14  H12 UNL     1      38.126  34.364  20.898  1.00  0.00     0.158 HD
ATOM     15  H11 UNL     1      39.018  35.669  20.768  1.00  0.00     0.158 HD
ENDBRANCH   1  13
TORSDOF 2
ENDMDL
MODEL 2
REMARK VINA RESULT: -4.843049276      1.645      3.903
REMARK  2 active torsions:
REMARK  status: ('A' for Active; 'I' for Inactive)
REMARK    1  A    between atoms: N1_1  and  C1_4 
REMARK    2  A    between atoms: N4_10  and  N5_12 
ROOT
HETATM    1  C1  UNL     1      36.581  37.395  15.889  1.00  0.00     0.160 A 
HETATM    2  N2  UNL     1      35.870  38.100  16.772  1.00  0.00    -0.278 N 
ATOM      3  H2  UNL     1      35.281  38.875  16.463  1.00  0.00     0.189 HD
HETATM    4  N3  UNL     1      35.938  37.792  18.003  1.00  0.00    -0.277 N 
ATOM      5  H3  UNL     1      35.403  38.317  18.695  1.00  0.00     0.189 HD
HETATM    6  C2  UNL     1      36.713  36.778  18.385  1.00  0.00     0.181 A 
HETATM    7  N4  UNL     1      36.909  36.317  19.602  1.00  0.00    -0.285 N 
ATOM      8  H4  UNL     1      36.454  36.721  20.421  1.00  0.00     0.188 HD
HETATM    9  S1  UNL     1      37.367  36.256  16.889  1.00  0.00    -0.014 SA
ENDROOT
BRANCH   7  10
HETATM   10  N5  UNL     1      37.779  35.240  19.690  1.00  0.00    -0.343 N 
ATOM     11  H52 UNL     1      37.906  34.591  18.913  1.00  0.00     0.176 HD
ATOM     12  H51 UNL     1      38.273  35.154  20.579  1.00  0.00     0.176 HD
ENDBRANCH   7  10
BRANCH   1  13
HETATM   13  N1  UNL     1      36.674  37.519  14.596  1.00  0.00    -0.378 N 
ATOM     14  H12 UNL     1      36.028  37.995  13.967  1.00  0.00     0.158 HD
ATOM     15  H11 UNL     1      37.388  37.178  13.953  1.00  0.00     0.158 HD
ENDBRANCH   1  13
TORSDOF 2
ENDMDL
MODEL 3
REMARK VINA RESULT: -4.704577991      1.644      1.875
REMARK  2 active torsions:
REMARK  status: ('A' for Active; 'I' for Inactive)
REMARK    1  A    between atoms: N1_1  and  C1_4 
REMARK    2  A    between atoms: N4_10  and  N5_12 
ROOT
HETATM    1  C1  UNL     1      37.417  36.000  18.947  1.00  0.00     0.160 A 
HETATM    2  N2  UNL     1      36.608  37.033  19.196  1.00  0.00    -0.278 N 
ATOM      3  H2  UNL     1      36.336  37.259  20.154  1.00  0.00     0.189 HD
HETATM    4  N3  UNL     1      36.183  37.730  18.222  1.00  0.00    -0.277 N 
ATOM      5  H3  UNL     1      35.564  38.524  18.390  1.00  0.00     0.189 HD
HETATM    6  C2  UNL     1      36.550  37.418  16.980  1.00  0.00     0.181 A 
HETATM    7  N4  UNL     1      36.215  38.017  15.857  1.00  0.00    -0.285 N 
ATOM      8  H4  UNL     1      35.601  38.831  15.833  1.00  0.00     0.188 HD
HETATM    9  S1  UNL     1      37.554  36.054  17.246  1.00  0.00    -0.014 SA
ENDROOT
BRANCH   7  10
HETATM   10  N5  UNL     1      36.758  37.460  14.709  1.00  0.00    -0.343 N 
ATOM     11  H52 UNL     1      36.699  36.459  14.522  1.00  0.00     0.176 HD
ATOM     12  H51 UNL     1      37.211  38.122  14.079  1.00  0.00     0.176 HD
ENDBRANCH   7  10
BRANCH   1  13
HETATM   13  N1  UNL     1      37.971  35.153  19.765  1.00  0.00    -0.378 N 
ATOM     14  H12 UNL     1      38.032  35.214  20.781  1.00  0.00     0.158 HD
ATOM     15  H11 UNL     1      38.451  34.273  19.575  1.00  0.00     0.158 HD
ENDBRANCH   1  13
TORSDOF 2
ENDMDL
MODEL 4
REMARK VINA RESULT: -4.575144741      1.363      3.600
REMARK  2 active torsions:
REMARK  status: ('A' for Active; 'I' for Inactive)
REMARK    1  A    between atoms: N1_1  and  C1_4 
REMARK    2  A    between atoms: N4_10  and  N5_12 
ROOT
HETATM    1  C1  UNL     1      35.803  39.167  18.369  1.00  0.00     0.160 A 
HETATM    2  N2  UNL     1      35.424  38.858  17.126  1.00  0.00    -0.278 N 
ATOM      3  H2  UNL     1      34.992  39.562  16.526  1.00  0.00     0.189 HD
HETATM    4  N3  UNL     1      35.611  37.675  16.701  1.00  0.00    -0.277 N 
ATOM      5  H3  UNL     1      35.330  37.418  15.755  1.00  0.00     0.189 HD
HETATM    6  C2  UNL     1      36.177  36.771  17.501  1.00  0.00     0.181 A 
HETATM    7  N4  UNL     1      36.448  35.510  17.240  1.00  0.00    -0.285 N 
ATOM      8  H4  UNL     1      36.235  35.079  16.341  1.00  0.00     0.188 HD
HETATM    9  S1  UNL     1      36.446  37.687  18.926  1.00  0.00    -0.014 SA
ENDROOT
BRANCH   7  10
HETATM   10  N5  UNL     1      37.045  34.810  18.279  1.00  0.00    -0.343 N 
ATOM     11  H52 UNL     1      36.996  35.141  19.243  1.00  0.00     0.176 HD
ATOM     12  H51 UNL     1      37.526  33.954  18.003  1.00  0.00     0.176 HD
ENDBRANCH   7  10
BRANCH   1  13
HETATM   13  N1  UNL     1      35.717  40.293  19.017  1.00  0.00    -0.378 N 
ATOM     14  H12 UNL     1      36.407  41.042  19.060  1.00  0.00     0.158 HD
ATOM     15  H11 UNL     1      34.967  40.657  19.603  1.00  0.00     0.158 HD
ENDBRANCH   1  13
TORSDOF 2
ENDMDL
MODEL 5
REMARK VINA RESULT: -4.486028792      1.596      1.974
REMARK  2 active torsions:
REMARK  status: ('A' for Active; 'I' for Inactive)
REMARK    1  A    between atoms: N1_1  and  C1_4 
REMARK    2  A    between atoms: N4_10  and  N5_12 
ROOT
HETATM    1  C1  UNL     1      38.109  35.860  19.917  1.00  0.00     0.160 A 
HETATM    2  N2  UNL     1      38.631  37.088  19.841  1.00  0.00    -0.278 N 
ATOM      3  H2  UNL     1      39.386  37.369  20.467  1.00  0.00     0.189 HD
HETATM    4  N3  UNL     1      38.173  37.899  18.976  1.00  0.00    -0.277 N 
ATOM      5  H3  UNL     1      38.558  38.840  18.900  1.00  0.00     0.189 HD
HETATM    6  C2  UNL     1      37.188  37.511  18.168  1.00  0.00     0.181 A 
HETATM    7  N4  UNL     1      36.591  38.203  17.221  1.00  0.00    -0.285 N 
ATOM      8  H4  UNL     1      36.846  39.166  17.004  1.00  0.00     0.188 HD
HETATM    9  S1  UNL     1      36.920  35.900  18.692  1.00  0.00    -0.014 SA
ENDROOT
BRANCH   7  10
HETATM   10  N5  UNL     1      35.590  37.526  16.539  1.00  0.00    -0.343 N 
ATOM     11  H52 UNL     1      35.376  36.549  16.737  1.00  0.00     0.176 HD
ATOM     12  H51 UNL     1      35.096  38.077  15.838  1.00  0.00     0.176 HD
ENDBRANCH   7  10
BRANCH   1  13
HETATM   13  N1  UNL     1      38.406  34.870  20.708  1.00  0.00    -0.378 N 
ATOM     14  H12 UNL     1      38.554  33.893  20.457  1.00  0.00     0.158 HD
ATOM     15  H11 UNL     1      38.549  34.857  21.717  1.00  0.00     0.158 HD
ENDBRANCH   1  13
TORSDOF 2
ENDMDL
