MODEL 1
REMARK VINA RESULT: -7.241113463      0.000      0.000
REMARK  13 active torsions:
REMARK  status: ('A' for Active; 'I' for Inactive)
REMARK    1  A    between atoms: C2_2  and  C4_4 
REMARK    2  A    between atoms: C4_4  and  C5_5 
REMARK    3  A    between atoms: C5_5  and  O1_6 
REMARK    4  A    between atoms: O1_6  and  C6_7 
REMARK       I    between atoms: C6_7  and  N1_9 
REMARK    5  A    between atoms: N1_9  and  C7_11 
REMARK    6  A    between atoms: C7_11  and  C8_12 
REMARK    7  A    between atoms: C7_11  and  C26_38 
REMARK       I    between atoms: C8_12  and  N2_14 
REMARK    8  A    between atoms: N2_14  and  C9_16 
REMARK    9  A    between atoms: C17_24  and  C18_25 
REMARK       I    between atoms: C18_25  and  N3_27 
REMARK   10  A    between atoms: N3_27  and  C19_29 
REMARK   11  A    between atoms: C19_29  and  C20_30 
REMARK   12  A    between atoms: C19_29  and  C24_34 
REMARK   13  A    between atoms: C20_30  and  C21_31 
ROOT
HETATM    1  C9  UNL     1      35.246  28.112  22.079  1.00  0.00     0.084 C 
HETATM    2  C10 UNL     1      33.817  27.930  22.526  1.00  0.00     0.026 C 
HETATM    3  C11 UNL     1      32.966  27.616  21.352  1.00  0.00     0.012 C 
HETATM    4  C12 UNL     1      32.983  28.668  20.264  1.00  0.00    -0.028 C 
HETATM    5  C13 UNL     1      32.352  28.046  19.044  1.00  0.00     0.016 C 
HETATM    6  C14 UNL     1      34.399  29.047  19.886  1.00  0.00    -0.004 C 
HETATM    7  C15 UNL     1      34.242  30.453  19.287  1.00  0.00     0.006 C 
HETATM    8  C16 UNL     1      33.169  31.064  20.154  1.00  0.00     0.015 C 
HETATM    9  C17 UNL     1      32.306  29.927  20.672  1.00  0.00     0.086 C 
HETATM   10  C25 UNL     1      35.311  29.172  21.048  1.00  0.00     0.030 C 
ENDROOT
BRANCH   1  11
HETATM   11  N2  UNL     1      35.887  26.864  21.697  1.00  0.00    -0.355 N 
HETATM   12  C8  UNL     1      37.217  26.565  22.021  1.00  0.00     0.241 C 
HETATM   13  O3  UNL     1      37.836  27.481  22.683  1.00  0.00    -0.271 OA
ATOM     14  H2  UNL     1      35.346  26.178  21.170  1.00  0.00     0.162 HD
BRANCH  12  15
HETATM   15  C7  UNL     1      37.973  25.343  21.695  1.00  0.00     0.186 C 
BRANCH  15  16
HETATM   16  N1  UNL     1      37.102  24.225  22.072  1.00  0.00    -0.323 N 
HETATM   17  C6  UNL     1      37.491  23.146  22.857  1.00  0.00     0.361 C 
HETATM   18  O2  UNL     1      38.655  23.066  23.303  1.00  0.00    -0.238 OA
ATOM     19  H1  UNL     1      36.140  24.241  21.734  1.00  0.00     0.165 HD
BRANCH  17  20
HETATM   20  O1  UNL     1      36.596  22.143  23.155  1.00  0.00    -0.304 OA
BRANCH  20  21
HETATM   21  C5  UNL     1      35.629  21.654  22.277  1.00  0.00     0.181 C 
BRANCH  21  22
HETATM   22  C4  UNL     1      36.316  20.578  21.431  1.00  0.00     0.031 C 
BRANCH  22  23
HETATM   23  C2  UNL     1      36.046  20.819  19.974  1.00  0.00    -0.021 C 
HETATM   24  C1  UNL     1      37.332  21.179  19.254  1.00  0.00     0.009 C 
HETATM   25  C3  UNL     1      34.985  21.870  19.828  1.00  0.00     0.009 C 
ENDBRANCH  22  23
ENDBRANCH  21  22
ENDBRANCH  20  21
ENDBRANCH  17  20
ENDBRANCH  15  16
BRANCH  15  26
HETATM   26  C26 UNL     1      38.254  25.280  20.211  1.00  0.00    -0.022 C 
HETATM   27  C27 UNL     1      37.081  24.874  19.391  1.00  0.00     0.017 C 
HETATM   28  C28 UNL     1      38.846  26.571  19.750  1.00  0.00     0.017 C 
HETATM   29  C29 UNL     1      39.342  24.215  19.945  1.00  0.00     0.017 C 
ENDBRANCH  15  26
ENDBRANCH  12  15
ENDBRANCH   1  11
BRANCH   9  30
HETATM   30  C18 UNL     1      30.914  30.101  20.273  1.00  0.00     0.223 C 
HETATM   31  O4  UNL     1      30.633  30.794  19.223  1.00  0.00    -0.273 OA
HETATM   32  N3  UNL     1      29.784  29.573  20.932  1.00  0.00    -0.348 N 
ATOM     33  H3  UNL     1      29.923  29.014  21.774  1.00  0.00     0.163 HD
BRANCH  32  34
HETATM   34  C19 UNL     1      28.395  29.804  20.444  1.00  0.00     0.174 C 
BRANCH  34  35
HETATM   35  C20 UNL     1      27.994  28.675  19.578  1.00  0.00     0.038 C 
BRANCH  35  36
HETATM   36  C21 UNL     1      27.729  28.878  18.144  1.00  0.00    -0.020 C 
HETATM   37  C22 UNL     1      28.948  28.257  17.404  1.00  0.00     0.009 C 
HETATM   38  C23 UNL     1      26.554  28.129  17.586  1.00  0.00     0.009 C 
ENDBRANCH  35  36
ENDBRANCH  34  35
BRANCH  34  39
HETATM   39  C24 UNL     1      27.581  29.917  21.657  1.00  0.00     0.254 C 
HETATM   40  N4  UNL     1      26.605  28.949  22.007  1.00  0.00    -0.060 NA
HETATM   41  O5  UNL     1      27.734  30.902  22.423  1.00  0.00    -0.275 OA
ENDBRANCH  34  39
ENDBRANCH  32  34
ENDBRANCH   9  30
TORSDOF 13
ENDMDL
MODEL 2
REMARK VINA RESULT: -6.791974460      1.114      1.681
REMARK  13 active torsions:
REMARK  status: ('A' for Active; 'I' for Inactive)
REMARK    1  A    between atoms: C2_2  and  C4_4 
REMARK    2  A    between atoms: C4_4  and  C5_5 
REMARK    3  A    between atoms: C5_5  and  O1_6 
REMARK    4  A    between atoms: O1_6  and  C6_7 
REMARK       I    between atoms: C6_7  and  N1_9 
REMARK    5  A    between atoms: N1_9  and  C7_11 
REMARK    6  A    between atoms: C7_11  and  C8_12 
REMARK    7  A    between atoms: C7_11  and  C26_38 
REMARK       I    between atoms: C8_12  and  N2_14 
REMARK    8  A    between atoms: N2_14  and  C9_16 
REMARK    9  A    between atoms: C17_24  and  C18_25 
REMARK       I    between atoms: C18_25  and  N3_27 
REMARK   10  A    between atoms: N3_27  and  C19_29 
REMARK   11  A    between atoms: C19_29  and  C20_30 
REMARK   12  A    between atoms: C19_29  and  C24_34 
REMARK   13  A    between atoms: C20_30  and  C21_31 
ROOT
HETATM    1  C9  UNL     1      35.259  28.282  22.084  1.00  0.00     0.084 C 
HETATM    2  C10 UNL     1      33.838  28.108  22.558  1.00  0.00     0.026 C 
HETATM    3  C11 UNL     1      32.977  27.727  21.411  1.00  0.00     0.012 C 
HETATM    4  C12 UNL     1      32.969  28.723  20.272  1.00  0.00    -0.028 C 
HETATM    5  C13 UNL     1      32.331  28.034  19.092  1.00  0.00     0.016 C 
HETATM    6  C14 UNL     1      34.377  29.098  19.859  1.00  0.00    -0.004 C 
HETATM    7  C15 UNL     1      34.196  30.471  19.192  1.00  0.00     0.006 C 
HETATM    8  C16 UNL     1      33.126  31.113  20.040  1.00  0.00     0.015 C 
HETATM    9  C17 UNL     1      32.282  29.993  20.625  1.00  0.00     0.086 C 
HETATM   10  C25 UNL     1      35.300  29.290  21.001  1.00  0.00     0.030 C 
ENDROOT
BRANCH   1  11
HETATM   11  N2  UNL     1      35.910  27.024  21.757  1.00  0.00    -0.355 N 
HETATM   12  C8  UNL     1      37.287  26.819  21.914  1.00  0.00     0.241 C 
HETATM   13  O3  UNL     1      37.940  27.833  22.368  1.00  0.00    -0.271 OA
ATOM     14  H2  UNL     1      35.340  26.258  21.398  1.00  0.00     0.162 HD
BRANCH  12  15
HETATM   15  C7  UNL     1      38.058  25.598  21.622  1.00  0.00     0.186 C 
BRANCH  15  16
HETATM   16  N1  UNL     1      37.087  24.499  21.658  1.00  0.00    -0.323 N 
HETATM   17  C6  UNL     1      36.998  23.554  22.674  1.00  0.00     0.361 C 
HETATM   18  O2  UNL     1      37.773  23.591  23.653  1.00  0.00    -0.238 OA
ATOM     19  H1  UNL     1      36.430  24.422  20.882  1.00  0.00     0.165 HD
BRANCH  17  20
HETATM   20  O1  UNL     1      36.050  22.557  22.615  1.00  0.00    -0.304 OA
BRANCH  20  21
HETATM   21  C5  UNL     1      35.084  22.435  21.617  1.00  0.00     0.181 C 
BRANCH  21  22
HETATM   22  C4  UNL     1      34.110  23.600  21.812  1.00  0.00     0.031 C 
BRANCH  22  23
HETATM   23  C2  UNL     1      33.774  24.219  20.486  1.00  0.00    -0.021 C 
HETATM   24  C1  UNL     1      32.272  24.220  20.271  1.00  0.00     0.009 C 
HETATM   25  C3  UNL     1      34.516  23.502  19.396  1.00  0.00     0.009 C 
ENDBRANCH  22  23
ENDBRANCH  21  22
ENDBRANCH  20  21
ENDBRANCH  17  20
ENDBRANCH  15  16
BRANCH  15  26
HETATM   26  C26 UNL     1      38.669  25.680  20.242  1.00  0.00    -0.022 C 
HETATM   27  C27 UNL     1      39.556  26.858  20.043  1.00  0.00     0.017 C 
HETATM   28  C28 UNL     1      39.355  24.395  19.912  1.00  0.00     0.017 C 
HETATM   29  C29 UNL     1      37.542  25.820  19.194  1.00  0.00     0.017 C 
ENDBRANCH  15  26
ENDBRANCH  12  15
ENDBRANCH   1  11
BRANCH   9  30
HETATM   30  C18 UNL     1      30.884  30.132  20.235  1.00  0.00     0.223 C 
HETATM   31  O4  UNL     1      30.578  30.828  19.194  1.00  0.00    -0.273 OA
HETATM   32  N3  UNL     1      29.773  29.567  20.895  1.00  0.00    -0.348 N 
ATOM     33  H3  UNL     1      29.932  29.003  21.729  1.00  0.00     0.163 HD
BRANCH  32  34
HETATM   34  C19 UNL     1      28.376  29.764  20.416  1.00  0.00     0.174 C 
BRANCH  34  35
HETATM   35  C20 UNL     1      28.013  28.650  19.513  1.00  0.00     0.038 C 
BRANCH  35  36
HETATM   36  C21 UNL     1      27.809  28.878  18.073  1.00  0.00    -0.020 C 
HETATM   37  C22 UNL     1      29.012  28.186  17.369  1.00  0.00     0.009 C 
HETATM   38  C23 UNL     1      26.610  28.207  17.470  1.00  0.00     0.009 C 
ENDBRANCH  35  36
ENDBRANCH  34  35
BRANCH  34  39
HETATM   39  C24 UNL     1      27.561  29.807  21.633  1.00  0.00     0.254 C 
HETATM   40  N4  UNL     1      27.640  30.878  22.560  1.00  0.00    -0.060 NA
HETATM   41  O5  UNL     1      26.763  28.869  21.885  1.00  0.00    -0.275 OA
ENDBRANCH  34  39
ENDBRANCH  32  34
ENDBRANCH   9  30
TORSDOF 13
ENDMDL
MODEL 3
REMARK VINA RESULT: -6.652032628      2.845     10.170
REMARK  13 active torsions:
REMARK  status: ('A' for Active; 'I' for Inactive)
REMARK    1  A    between atoms: C2_2  and  C4_4 
REMARK    2  A    between atoms: C4_4  and  C5_5 
REMARK    3  A    between atoms: C5_5  and  O1_6 
REMARK    4  A    between atoms: O1_6  and  C6_7 
REMARK       I    between atoms: C6_7  and  N1_9 
REMARK    5  A    between atoms: N1_9  and  C7_11 
REMARK    6  A    between atoms: C7_11  and  C8_12 
REMARK    7  A    between atoms: C7_11  and  C26_38 
REMARK       I    between atoms: C8_12  and  N2_14 
REMARK    8  A    between atoms: N2_14  and  C9_16 
REMARK    9  A    between atoms: C17_24  and  C18_25 
REMARK       I    between atoms: C18_25  and  N3_27 
REMARK   10  A    between atoms: N3_27  and  C19_29 
REMARK   11  A    between atoms: C19_29  and  C20_30 
REMARK   12  A    between atoms: C19_29  and  C24_34 
REMARK   13  A    between atoms: C20_30  and  C21_31 
ROOT
HETATM    1  C9  UNL     1      30.440  28.635  18.745  1.00  0.00     0.084 C 
HETATM    2  C10 UNL     1      31.283  27.420  19.043  1.00  0.00     0.026 C 
HETATM    3  C11 UNL     1      31.875  27.549  20.397  1.00  0.00     0.012 C 
HETATM    4  C12 UNL     1      32.741  28.775  20.591  1.00  0.00    -0.028 C 
HETATM    5  C13 UNL     1      32.974  28.916  22.074  1.00  0.00     0.016 C 
HETATM    6  C14 UNL     1      32.028  30.030  20.133  1.00  0.00    -0.004 C 
HETATM    7  C15 UNL     1      33.180  31.001  19.830  1.00  0.00     0.006 C 
HETATM    8  C16 UNL     1      34.230  30.093  19.237  1.00  0.00     0.015 C 
HETATM    9  C17 UNL     1      34.011  28.708  19.822  1.00  0.00     0.086 C 
HETATM   10  C25 UNL     1      31.267  29.855  18.874  1.00  0.00     0.030 C 
ENDROOT
BRANCH   1  11
HETATM   11  N2  UNL     1      29.199  28.669  19.502  1.00  0.00    -0.355 N 
HETATM   12  C8  UNL     1      27.943  28.802  18.894  1.00  0.00     0.241 C 
HETATM   13  O3  UNL     1      27.968  28.897  17.609  1.00  0.00    -0.271 OA
ATOM     14  H2  UNL     1      29.245  28.593  20.518  1.00  0.00     0.162 HD
BRANCH  12  15
HETATM   15  C7  UNL     1      26.624  28.847  19.548  1.00  0.00     0.186 C 
BRANCH  15  16
HETATM   16  N1  UNL     1      26.696  27.885  20.653  1.00  0.00    -0.323 N 
HETATM   17  C6  UNL     1      25.742  26.909  20.918  1.00  0.00     0.361 C 
HETATM   18  O2  UNL     1      24.728  26.793  20.198  1.00  0.00    -0.238 OA
ATOM     19  H1  UNL     1      27.505  27.935  21.271  1.00  0.00     0.165 HD
BRANCH  17  20
HETATM   20  O1  UNL     1      25.902  26.051  21.983  1.00  0.00    -0.304 OA
BRANCH  20  21
HETATM   21  C5  UNL     1      24.992  25.905  23.029  1.00  0.00     0.181 C 
BRANCH  21  22
HETATM   22  C4  UNL     1      24.864  27.281  23.688  1.00  0.00     0.031 C 
BRANCH  22  23
HETATM   23  C2  UNL     1      23.475  27.818  23.493  1.00  0.00    -0.021 C 
HETATM   24  C1  UNL     1      23.198  28.932  24.485  1.00  0.00     0.009 C 
HETATM   25  C3  UNL     1      22.484  26.694  23.590  1.00  0.00     0.009 C 
ENDBRANCH  22  23
ENDBRANCH  21  22
ENDBRANCH  20  21
ENDBRANCH  17  20
ENDBRANCH  15  16
BRANCH  15  26
HETATM   26  C26 UNL     1      26.360  30.227  20.104  1.00  0.00    -0.022 C 
HETATM   27  C27 UNL     1      27.567  30.896  20.659  1.00  0.00     0.017 C 
HETATM   28  C28 UNL     1      25.672  31.066  19.076  1.00  0.00     0.017 C 
HETATM   29  C29 UNL     1      25.360  30.120  21.278  1.00  0.00     0.017 C 
ENDBRANCH  15  26
ENDBRANCH  12  15
ENDBRANCH   1  11
BRANCH   9  30
HETATM   30  C18 UNL     1      35.199  28.242  20.526  1.00  0.00     0.223 C 
HETATM   31  O4  UNL     1      36.052  29.098  20.975  1.00  0.00    -0.273 OA
HETATM   32  N3  UNL     1      35.542  26.899  20.787  1.00  0.00    -0.348 N 
ATOM     33  H3  UNL     1      34.918  26.161  20.462  1.00  0.00     0.163 HD
BRANCH  32  34
HETATM   34  C19 UNL     1      36.782  26.520  21.521  1.00  0.00     0.174 C 
BRANCH  34  35
HETATM   35  C20 UNL     1      36.421  26.085  22.887  1.00  0.00     0.038 C 
BRANCH  35  36
HETATM   36  C21 UNL     1      36.679  26.949  24.051  1.00  0.00    -0.020 C 
HETATM   37  C22 UNL     1      37.972  27.740  23.702  1.00  0.00     0.009 C 
HETATM   38  C23 UNL     1      35.662  28.024  24.304  1.00  0.00     0.009 C 
ENDBRANCH  35  36
ENDBRANCH  34  35
BRANCH  34  39
HETATM   39  C24 UNL     1      37.387  25.454  20.718  1.00  0.00     0.254 C 
HETATM   40  N4  UNL     1      38.613  24.838  21.077  1.00  0.00    -0.060 NA
HETATM   41  O5  UNL     1      36.818  25.065  19.667  1.00  0.00    -0.275 OA
ENDBRANCH  34  39
ENDBRANCH  32  34
ENDBRANCH   9  30
TORSDOF 13
ENDMDL
MODEL 4
REMARK VINA RESULT: -6.558239646      2.747      3.909
REMARK  13 active torsions:
REMARK  status: ('A' for Active; 'I' for Inactive)
REMARK    1  A    between atoms: C2_2  and  C4_4 
REMARK    2  A    between atoms: C4_4  and  C5_5 
REMARK    3  A    between atoms: C5_5  and  O1_6 
REMARK    4  A    between atoms: O1_6  and  C6_7 
REMARK       I    between atoms: C6_7  and  N1_9 
REMARK    5  A    between atoms: N1_9  and  C7_11 
REMARK    6  A    between atoms: C7_11  and  C8_12 
REMARK    7  A    between atoms: C7_11  and  C26_38 
REMARK       I    between atoms: C8_12  and  N2_14 
REMARK    8  A    between atoms: N2_14  and  C9_16 
REMARK    9  A    between atoms: C17_24  and  C18_25 
REMARK       I    between atoms: C18_25  and  N3_27 
REMARK   10  A    between atoms: N3_27  and  C19_29 
REMARK   11  A    between atoms: C19_29  and  C20_30 
REMARK   12  A    between atoms: C19_29  and  C24_34 
REMARK   13  A    between atoms: C20_30  and  C21_31 
ROOT
HETATM    1  C9  UNL     1      35.033  29.855  19.177  1.00  0.00     0.084 C 
HETATM    2  C10 UNL     1      34.093  30.442  20.200  1.00  0.00     0.026 C 
HETATM    3  C11 UNL     1      33.155  29.393  20.671  1.00  0.00     0.012 C 
HETATM    4  C12 UNL     1      32.318  28.763  19.580  1.00  0.00    -0.028 C 
HETATM    5  C13 UNL     1      31.690  27.526  20.169  1.00  0.00     0.016 C 
HETATM    6  C14 UNL     1      33.178  28.312  18.417  1.00  0.00    -0.004 C 
HETATM    7  C15 UNL     1      32.193  28.286  17.237  1.00  0.00     0.006 C 
HETATM    8  C16 UNL     1      31.313  29.480  17.514  1.00  0.00     0.015 C 
HETATM    9  C17 UNL     1      31.308  29.699  19.018  1.00  0.00     0.086 C 
HETATM   10  C25 UNL     1      34.250  29.273  18.064  1.00  0.00     0.030 C 
ENDROOT
BRANCH   1  11
HETATM   11  N2  UNL     1      36.016  28.954  19.754  1.00  0.00    -0.355 N 
HETATM   12  C8  UNL     1      37.395  29.113  19.562  1.00  0.00     0.241 C 
HETATM   13  O3  UNL     1      37.730  30.118  18.829  1.00  0.00    -0.271 OA
ATOM     14  H2  UNL     1      35.688  28.173  20.323  1.00  0.00     0.162 HD
BRANCH  12  15
HETATM   15  C7  UNL     1      38.483  28.273  20.093  1.00  0.00     0.186 C 
BRANCH  15  16
HETATM   16  N1  UNL     1      37.999  27.764  21.381  1.00  0.00    -0.323 N 
HETATM   17  C6  UNL     1      38.758  27.699  22.543  1.00  0.00     0.361 C 
HETATM   18  O2  UNL     1      39.946  28.087  22.554  1.00  0.00    -0.238 OA
ATOM     19  H1  UNL     1      37.035  27.435  21.427  1.00  0.00     0.165 HD
BRANCH  17  20
HETATM   20  O1  UNL     1      38.211  27.203  23.705  1.00  0.00    -0.304 OA
BRANCH  20  21
HETATM   21  C5  UNL     1      36.912  27.455  24.143  1.00  0.00     0.181 C 
BRANCH  21  22
HETATM   22  C4  UNL     1      36.115  26.171  23.899  1.00  0.00     0.031 C 
BRANCH  22  23
HETATM   23  C2  UNL     1      34.778  26.501  23.299  1.00  0.00    -0.021 C 
HETATM   24  C1  UNL     1      34.772  26.176  21.817  1.00  0.00     0.009 C 
HETATM   25  C3  UNL     1      34.443  27.937  23.581  1.00  0.00     0.009 C 
ENDBRANCH  22  23
ENDBRANCH  21  22
ENDBRANCH  20  21
ENDBRANCH  17  20
ENDBRANCH  15  16
BRANCH  15  26
HETATM   26  C26 UNL     1      38.750  27.110  19.165  1.00  0.00    -0.022 C 
HETATM   27  C27 UNL     1      38.275  27.328  17.771  1.00  0.00     0.017 C 
HETATM   28  C28 UNL     1      40.196  26.739  19.217  1.00  0.00     0.017 C 
HETATM   29  C29 UNL     1      37.991  25.865  19.677  1.00  0.00     0.017 C 
ENDBRANCH  15  26
ENDBRANCH  12  15
ENDBRANCH   1  11
BRANCH   9  30
HETATM   30  C18 UNL     1      29.954  29.626  19.554  1.00  0.00     0.223 C 
HETATM   31  O4  UNL     1      29.700  30.130  20.714  1.00  0.00    -0.273 OA
HETATM   32  N3  UNL     1      28.836  29.044  18.923  1.00  0.00    -0.348 N 
ATOM     33  H3  UNL     1      28.956  28.622  18.002  1.00  0.00     0.163 HD
BRANCH  32  34
HETATM   34  C19 UNL     1      27.485  29.022  19.553  1.00  0.00     0.174 C 
BRANCH  34  35
HETATM   35  C20 UNL     1      26.647  30.070  18.934  1.00  0.00     0.038 C 
BRANCH  35  36
HETATM   36  C21 UNL     1      25.832  30.975  19.761  1.00  0.00    -0.020 C 
HETATM   37  C22 UNL     1      24.360  30.719  19.329  1.00  0.00     0.009 C 
HETATM   38  C23 UNL     1      25.827  30.686  21.234  1.00  0.00     0.009 C 
ENDBRANCH  35  36
ENDBRANCH  34  35
BRANCH  34  39
HETATM   39  C24 UNL     1      26.980  27.667  19.318  1.00  0.00     0.254 C 
HETATM   40  N4  UNL     1      25.794  27.184  19.927  1.00  0.00    -0.060 NA
HETATM   41  O5  UNL     1      27.611  26.887  18.559  1.00  0.00    -0.275 OA
ENDBRANCH  34  39
ENDBRANCH  32  34
ENDBRANCH   9  30
TORSDOF 13
ENDMDL
MODEL 5
REMARK VINA RESULT: -6.535127397      2.827      9.217
REMARK  13 active torsions:
REMARK  status: ('A' for Active; 'I' for Inactive)
REMARK    1  A    between atoms: C2_2  and  C4_4 
REMARK    2  A    between atoms: C4_4  and  C5_5 
REMARK    3  A    between atoms: C5_5  and  O1_6 
REMARK    4  A    between atoms: O1_6  and  C6_7 
REMARK       I    between atoms: C6_7  and  N1_9 
REMARK    5  A    between atoms: N1_9  and  C7_11 
REMARK    6  A    between atoms: C7_11  and  C8_12 
REMARK    7  A    between atoms: C7_11  and  C26_38 
REMARK       I    between atoms: C8_12  and  N2_14 
REMARK    8  A    between atoms: N2_14  and  C9_16 
REMARK    9  A    between atoms: C17_24  and  C18_25 
REMARK       I    between atoms: C18_25  and  N3_27 
REMARK   10  A    between atoms: N3_27  and  C19_29 
REMARK   11  A    between atoms: C19_29  and  C20_30 
REMARK   12  A    between atoms: C19_29  and  C24_34 
REMARK   13  A    between atoms: C20_30  and  C21_31 
ROOT
HETATM    1  C9  UNL     1      30.457  28.547  18.763  1.00  0.00     0.084 C 
HETATM    2  C10 UNL     1      31.430  27.406  18.933  1.00  0.00     0.026 C 
HETATM    3  C11 UNL     1      32.032  27.467  20.288  1.00  0.00     0.012 C 
HETATM    4  C12 UNL     1      32.767  28.754  20.592  1.00  0.00    -0.028 C 
HETATM    5  C13 UNL     1      33.013  28.777  22.079  1.00  0.00     0.016 C 
HETATM    6  C14 UNL     1      31.917  29.965  20.266  1.00  0.00    -0.004 C 
HETATM    7  C15 UNL     1      32.954  31.077  20.048  1.00  0.00     0.006 C 
HETATM    8  C16 UNL     1      34.082  30.349  19.360  1.00  0.00     0.015 C 
HETATM    9  C17 UNL     1      34.022  28.898  19.808  1.00  0.00     0.086 C 
HETATM   10  C25 UNL     1      31.153  29.831  19.002  1.00  0.00     0.030 C 
ENDROOT
BRANCH   1  11
HETATM   11  N2  UNL     1      29.235  28.375  19.531  1.00  0.00    -0.355 N 
HETATM   12  C8  UNL     1      27.966  28.661  19.011  1.00  0.00     0.241 C 
HETATM   13  O3  UNL     1      27.960  29.094  17.797  1.00  0.00    -0.271 OA
ATOM     14  H2  UNL     1      29.305  28.031  20.489  1.00  0.00     0.162 HD
BRANCH  12  15
HETATM   15  C7  UNL     1      26.663  28.527  19.685  1.00  0.00     0.186 C 
BRANCH  15  16
HETATM   16  N1  UNL     1      26.674  27.200  20.309  1.00  0.00    -0.323 N 
HETATM   17  C6  UNL     1      25.899  26.122  19.896  1.00  0.00     0.361 C 
HETATM   18  O2  UNL     1      25.116  26.231  18.929  1.00  0.00    -0.238 OA
ATOM     19  H1  UNL     1      27.297  27.057  21.104  1.00  0.00     0.165 HD
BRANCH  17  20
HETATM   20  O1  UNL     1      25.981  24.914  20.551  1.00  0.00    -0.304 OA
BRANCH  20  21
HETATM   21  C5  UNL     1      27.159  24.195  20.748  1.00  0.00     0.181 C 
BRANCH  21  22
HETATM   22  C4  UNL     1      27.666  23.803  19.358  1.00  0.00     0.031 C 
BRANCH  22  23
HETATM   23  C2  UNL     1      28.901  24.587  19.019  1.00  0.00    -0.021 C 
HETATM   24  C1  UNL     1      28.787  25.171  17.623  1.00  0.00     0.009 C 
HETATM   25  C3  UNL     1      30.111  23.714  19.187  1.00  0.00     0.009 C 
ENDBRANCH  22  23
ENDBRANCH  21  22
ENDBRANCH  20  21
ENDBRANCH  17  20
ENDBRANCH  15  16
BRANCH  15  26
HETATM   26  C26 UNL     1      26.514  29.582  20.757  1.00  0.00    -0.022 C 
HETATM   27  C27 UNL     1      27.807  30.137  21.241  1.00  0.00     0.017 C 
HETATM   28  C28 UNL     1      25.580  30.651  20.292  1.00  0.00     0.017 C 
HETATM   29  C29 UNL     1      25.834  28.957  21.995  1.00  0.00     0.017 C 
ENDBRANCH  15  26
ENDBRANCH  12  15
ENDBRANCH   1  11
BRANCH   9  30
HETATM   30  C18 UNL     1      35.266  28.496  20.452  1.00  0.00     0.223 C 
HETATM   31  O4  UNL     1      36.016  29.388  21.004  1.00  0.00    -0.273 OA
HETATM   32  N3  UNL     1      35.771  27.183  20.548  1.00  0.00    -0.348 N 
ATOM     33  H3  UNL     1      35.236  26.420  20.133  1.00  0.00     0.163 HD
BRANCH  32  34
HETATM   34  C19 UNL     1      37.057  26.870  21.232  1.00  0.00     0.174 C 
BRANCH  34  35
HETATM   35  C20 UNL     1      36.772  26.137  22.484  1.00  0.00     0.038 C 
BRANCH  35  36
HETATM   36  C21 UNL     1      36.895  26.798  23.794  1.00  0.00    -0.020 C 
HETATM   37  C22 UNL     1      38.073  27.803  23.643  1.00  0.00     0.009 C 
HETATM   38  C23 UNL     1      35.738  27.663  24.199  1.00  0.00     0.009 C 
ENDBRANCH  35  36
ENDBRANCH  34  35
BRANCH  34  39
HETATM   39  C24 UNL     1      37.820  26.079  20.262  1.00  0.00     0.254 C 
HETATM   40  N4  UNL     1      39.095  25.537  20.562  1.00  0.00    -0.060 NA
HETATM   41  O5  UNL     1      37.346  25.870  19.117  1.00  0.00    -0.275 OA
ENDBRANCH  34  39
ENDBRANCH  32  34
ENDBRANCH   9  30
TORSDOF 13
ENDMDL
