MODEL 1
REMARK VINA RESULT: -8.273523773      0.000      0.000
REMARK  4 active torsions:
REMARK  status: ('A' for Active; 'I' for Inactive)
REMARK    1  A    between atoms: C3_5  and  C4_6 
REMARK       I    between atoms: C4_6  and  N2_8 
REMARK       I    between atoms: N3_11  and  C7_12 
REMARK       I    between atoms: C7_12  and  N4_14 
REMARK    2  A    between atoms: N4_14  and  C8_16 
REMARK    3  A    between atoms: C16_24  and  O4_25 
REMARK    4  A    between atoms: C19_29  and  N5_30 
REMARK       I    between atoms: N5_30  and  C20_32 
ROOT
HETATM    1  C4  UNL     1      18.214 -14.234  21.614  1.00  0.00     0.233 C 
HETATM    2  O2  UNL     1      18.797 -14.034  20.530  1.00  0.00    -0.272 OA
HETATM    3  N2  UNL     1      18.948 -14.752  22.712  1.00  0.00    -0.346 N 
HETATM    4  C5  UNL     1      20.375 -15.071  22.646  1.00  0.00     0.154 C 
HETATM    5  C6  UNL     1      20.448 -16.292  23.572  1.00  0.00     0.143 C 
HETATM    6  N3  UNL     1      21.710 -16.402  24.240  1.00  0.00    -0.325 N 
HETATM    7  C7  UNL     1      22.727 -17.350  23.935  1.00  0.00     0.319 C 
HETATM    8  O3  UNL     1      23.801 -17.312  24.633  1.00  0.00    -0.247 OA
HETATM    9  N4  UNL     1      22.589 -18.311  22.906  1.00  0.00    -0.338 N 
ATOM     10  H4  UNL     1      21.737 -18.348  22.345  1.00  0.00     0.164 HD
HETATM   11  C14 UNL     1      21.739 -15.380  25.259  1.00  0.00     0.131 C 
HETATM   12  C15 UNL     1      20.308 -15.228  25.693  1.00  0.00     0.061 C 
HETATM   13  C16 UNL     1      19.471 -15.965  24.644  1.00  0.00     0.097 C 
HETATM   14  C17 UNL     1      18.470 -15.058  24.038  1.00  0.00     0.165 C 
ENDROOT
BRANCH   1  15
HETATM   15  C3  UNL     1      16.770 -13.930  21.739  1.00  0.00     0.172 C 
HETATM   16  C2  UNL     1      16.021 -15.033  21.150  1.00  0.00     0.233 C 
HETATM   17  N1  UNL     1      15.324 -14.862  19.943  1.00  0.00    -0.340 N 
HETATM   18  O1  UNL     1      16.015 -16.144  21.750  1.00  0.00    -0.272 OA
HETATM   19  C1  UNL     1      15.211 -15.955  18.991  1.00  0.00     0.154 C 
HETATM   20  C21 UNL     1      14.726 -13.607  19.660  1.00  0.00     0.181 C 
HETATM   21  C19 UNL     1      15.141 -12.453  20.486  1.00  0.00     0.120 C 
HETATM   22 BR1  UNL     1      15.041 -13.240  17.763  1.00  0.00    -0.066 Br
HETATM   23  C18 UNL     1      16.430 -12.577  21.213  1.00  0.00     0.051 C 
BRANCH  21  24
HETATM   24  N5  UNL     1      14.045 -12.160  21.415  1.00  0.00    -0.338 N 
HETATM   25  C20 UNL     1      13.521 -10.857  21.523  1.00  0.00     0.329 C 
HETATM   26  N6  UNL     1      12.468 -10.567  22.414  1.00  0.00    -0.040 NA
HETATM   27  O5  UNL     1      13.998  -9.944  20.818  1.00  0.00    -0.251 OA
ATOM     28  H5  UNL     1      13.658 -12.908  21.989  1.00  0.00     0.164 HD
ENDBRANCH  21  24
ENDBRANCH   1  15
BRANCH  13  29
HETATM   29  O4  UNL     1      18.905 -17.102  25.226  1.00  0.00    -0.386 OA
ATOM     30  H4  UNL     1      18.697 -16.980  26.145  1.00  0.00     0.210 HD
ENDBRANCH  13  29
BRANCH   9  31
HETATM   31  C8  UNL     1      23.673 -19.243  22.656  1.00  0.00     0.086 C 
HETATM   32  C9  UNL     1      23.240 -20.646  23.048  1.00  0.00     0.025 C 
HETATM   33  C10 UNL     1      24.328 -21.650  22.864  1.00  0.00     0.002 C 
HETATM   34  C11 UNL     1      25.330 -21.186  21.845  1.00  0.00     0.000 C 
HETATM   35  C12 UNL     1      24.580 -20.528  20.713  1.00  0.00     0.002 C 
HETATM   36  C13 UNL     1      24.108 -19.176  21.217  1.00  0.00     0.025 C 
ENDBRANCH   9  31
TORSDOF 4
ENDMDL
MODEL 2
REMARK VINA RESULT: -7.994702061      5.571      8.763
REMARK  4 active torsions:
REMARK  status: ('A' for Active; 'I' for Inactive)
REMARK    1  A    between atoms: C3_5  and  C4_6 
REMARK       I    between atoms: C4_6  and  N2_8 
REMARK       I    between atoms: N3_11  and  C7_12 
REMARK       I    between atoms: C7_12  and  N4_14 
REMARK    2  A    between atoms: N4_14  and  C8_16 
REMARK    3  A    between atoms: C16_24  and  O4_25 
REMARK    4  A    between atoms: C19_29  and  N5_30 
REMARK       I    between atoms: N5_30  and  C20_32 
ROOT
HETATM    1  C4  UNL     1      13.334 -19.153  19.753  1.00  0.00     0.233 C 
HETATM    2  O2  UNL     1      14.351 -19.736  19.328  1.00  0.00    -0.272 OA
HETATM    3  N2  UNL     1      13.416 -17.781  20.103  1.00  0.00    -0.346 N 
HETATM    4  C5  UNL     1      14.647 -16.996  19.994  1.00  0.00     0.154 C 
HETATM    5  C6  UNL     1      14.505 -16.054  21.196  1.00  0.00     0.143 C 
HETATM    6  N3  UNL     1      15.132 -14.785  20.979  1.00  0.00    -0.325 N 
HETATM    7  C7  UNL     1      16.351 -14.352  21.574  1.00  0.00     0.319 C 
HETATM    8  O3  UNL     1      16.776 -13.182  21.272  1.00  0.00    -0.247 OA
HETATM    9  N4  UNL     1      17.090 -15.161  22.470  1.00  0.00    -0.338 N 
ATOM     10  H4  UNL     1      16.759 -16.094  22.716  1.00  0.00     0.164 HD
HETATM   11  C14 UNL     1      14.298 -14.054  20.056  1.00  0.00     0.131 C 
HETATM   12  C15 UNL     1      12.899 -14.520  20.348  1.00  0.00     0.061 C 
HETATM   13  C16 UNL     1      13.047 -15.763  21.230  1.00  0.00     0.097 C 
HETATM   14  C17 UNL     1      12.372 -16.927  20.614  1.00  0.00     0.165 C 
ENDROOT
BRANCH   1  15
HETATM   15  C3  UNL     1      12.060 -19.897  19.884  1.00  0.00     0.172 C 
HETATM   16  C2  UNL     1      12.136 -20.717  21.086  1.00  0.00     0.233 C 
HETATM   17  N1  UNL     1      12.232 -22.115  20.995  1.00  0.00    -0.340 N 
HETATM   18  O1  UNL     1      12.116 -20.142  22.210  1.00  0.00    -0.272 OA
HETATM   19  C1  UNL     1      13.001 -22.872  21.970  1.00  0.00     0.154 C 
HETATM   20  C21 UNL     1      11.565 -22.788  19.938  1.00  0.00     0.181 C 
HETATM   21  C19 UNL     1      11.082 -21.968  18.806  1.00  0.00     0.120 C 
HETATM   22 BR1  UNL     1      12.774 -24.190  19.301  1.00  0.00    -0.066 Br
HETATM   23  C18 UNL     1      11.702 -20.629  18.636  1.00  0.00     0.051 C 
BRANCH  21  24
HETATM   24  N5  UNL     1       9.626 -21.855  18.934  1.00  0.00    -0.338 N 
HETATM   25  C20 UNL     1       8.777 -22.847  18.406  1.00  0.00     0.329 C 
HETATM   26  N6  UNL     1       7.376 -22.746  18.525  1.00  0.00    -0.040 NA
HETATM   27  O5  UNL     1       9.275 -23.832  17.822  1.00  0.00    -0.251 OA
ATOM     28  H5  UNL     1       9.223 -21.049  19.412  1.00  0.00     0.164 HD
ENDBRANCH  21  24
ENDBRANCH   1  15
BRANCH  13  29
HETATM   29  O4  UNL     1      12.582 -15.471  22.515  1.00  0.00    -0.386 OA
ATOM     30  H4  UNL     1      11.795 -15.953  22.740  1.00  0.00     0.210 HD
ENDBRANCH  13  29
BRANCH   9  31
HETATM   31  C8  UNL     1      18.325 -14.647  23.034  1.00  0.00     0.086 C 
HETATM   32  C9  UNL     1      18.443 -15.083  24.485  1.00  0.00     0.025 C 
HETATM   33  C10 UNL     1      19.669 -14.545  25.143  1.00  0.00     0.002 C 
HETATM   34  C11 UNL     1      20.731 -14.220  24.132  1.00  0.00     0.000 C 
HETATM   35  C12 UNL     1      20.735 -15.308  23.086  1.00  0.00     0.002 C 
HETATM   36  C13 UNL     1      19.507 -15.098  22.219  1.00  0.00     0.025 C 
ENDBRANCH   9  31
TORSDOF 4
ENDMDL
MODEL 3
REMARK VINA RESULT: -7.693233834      0.851      1.031
REMARK  4 active torsions:
REMARK  status: ('A' for Active; 'I' for Inactive)
REMARK    1  A    between atoms: C3_5  and  C4_6 
REMARK       I    between atoms: C4_6  and  N2_8 
REMARK       I    between atoms: N3_11  and  C7_12 
REMARK       I    between atoms: C7_12  and  N4_14 
REMARK    2  A    between atoms: N4_14  and  C8_16 
REMARK    3  A    between atoms: C16_24  and  O4_25 
REMARK    4  A    between atoms: C19_29  and  N5_30 
REMARK       I    between atoms: N5_30  and  C20_32 
ROOT
HETATM    1  C4  UNL     1      18.033 -14.621  21.916  1.00  0.00     0.233 C 
HETATM    2  O2  UNL     1      18.652 -14.671  20.835  1.00  0.00    -0.272 OA
HETATM    3  N2  UNL     1      18.702 -14.973  23.117  1.00  0.00    -0.346 N 
HETATM    4  C5  UNL     1      20.101 -15.400  23.161  1.00  0.00     0.154 C 
HETATM    5  C6  UNL     1      20.062 -16.426  24.301  1.00  0.00     0.143 C 
HETATM    6  N3  UNL     1      21.298 -16.497  25.021  1.00  0.00    -0.325 N 
HETATM    7  C7  UNL     1      22.245 -17.556  24.934  1.00  0.00     0.319 C 
HETATM    8  O3  UNL     1      23.304 -17.464  25.649  1.00  0.00    -0.247 OA
HETATM    9  N4  UNL     1      22.055 -18.682  24.098  1.00  0.00    -0.338 N 
ATOM     10  H4  UNL     1      21.215 -18.763  23.525  1.00  0.00     0.164 HD
HETATM   11  C14 UNL     1      21.383 -15.306  25.831  1.00  0.00     0.131 C 
HETATM   12  C15 UNL     1      19.959 -14.973  26.179  1.00  0.00     0.061 C 
HETATM   13  C16 UNL     1      19.090 -15.833  25.257  1.00  0.00     0.097 C 
HETATM   14  C17 UNL     1      18.175 -14.988  24.459  1.00  0.00     0.165 C 
ENDROOT
BRANCH   1  15
HETATM   15  C3  UNL     1      16.614 -14.196  21.932  1.00  0.00     0.172 C 
HETATM   16  C2  UNL     1      15.832 -15.201  21.224  1.00  0.00     0.233 C 
HETATM   17  N1  UNL     1      15.264 -14.916  19.972  1.00  0.00    -0.340 N 
HETATM   18  O1  UNL     1      15.678 -16.333  21.762  1.00  0.00    -0.272 OA
HETATM   19  C1  UNL     1      15.145 -15.952  18.958  1.00  0.00     0.154 C 
HETATM   20  C21 UNL     1      14.802 -13.602  19.704  1.00  0.00     0.181 C 
HETATM   21  C19 UNL     1      15.236 -12.527  20.621  1.00  0.00     0.120 C 
HETATM   22 BR1  UNL     1      15.316 -13.180  17.862  1.00  0.00    -0.066 Br
HETATM   23  C18 UNL     1      16.438 -12.797  21.449  1.00  0.00     0.051 C 
BRANCH  21  24
HETATM   24  N5  UNL     1      14.089 -12.179  21.466  1.00  0.00    -0.338 N 
HETATM   25  C20 UNL     1      13.566 -10.871  21.470  1.00  0.00     0.329 C 
HETATM   26  N6  UNL     1      12.464 -10.530  22.279  1.00  0.00    -0.040 NA
HETATM   27  O5  UNL     1      14.089 -10.000  20.744  1.00  0.00    -0.251 OA
ATOM     28  H5  UNL     1      13.664 -12.894  22.057  1.00  0.00     0.164 HD
ENDBRANCH  21  24
ENDBRANCH   1  15
BRANCH  13  29
HETATM   29  O4  UNL     1      18.427 -16.797  26.022  1.00  0.00    -0.386 OA
ATOM     30  H4  UNL     1      17.483 -16.756  25.927  1.00  0.00     0.210 HD
ENDBRANCH  13  29
BRANCH   9  31
HETATM   31  C8  UNL     1      23.069 -19.719  24.065  1.00  0.00     0.086 C 
HETATM   32  C9  UNL     1      22.597 -20.920  24.867  1.00  0.00     0.025 C 
HETATM   33  C10 UNL     1      23.617 -22.008  24.917  1.00  0.00     0.002 C 
HETATM   34  C11 UNL     1      24.562 -21.923  23.752  1.00  0.00     0.000 C 
HETATM   35  C12 UNL     1      23.764 -21.561  22.523  1.00  0.00     0.002 C 
HETATM   36  C13 UNL     1      23.399 -20.092  22.645  1.00  0.00     0.025 C 
ENDBRANCH   9  31
TORSDOF 4
ENDMDL
MODEL 4
REMARK VINA RESULT: -7.474244552      3.030     10.283
REMARK  4 active torsions:
REMARK  status: ('A' for Active; 'I' for Inactive)
REMARK    1  A    between atoms: C3_5  and  C4_6 
REMARK       I    between atoms: C4_6  and  N2_8 
REMARK       I    between atoms: N3_11  and  C7_12 
REMARK       I    between atoms: C7_12  and  N4_14 
REMARK    2  A    between atoms: N4_14  and  C8_16 
REMARK    3  A    between atoms: C16_24  and  O4_25 
REMARK    4  A    between atoms: C19_29  and  N5_30 
REMARK       I    between atoms: N5_30  and  C20_32 
ROOT
HETATM    1  C4  UNL     1      18.204 -15.254  22.062  1.00  0.00     0.233 C 
HETATM    2  O2  UNL     1      18.774 -14.412  22.784  1.00  0.00    -0.272 OA
HETATM    3  N2  UNL     1      17.102 -14.853  21.264  1.00  0.00    -0.346 N 
HETATM    4  C5  UNL     1      16.585 -13.484  21.237  1.00  0.00     0.154 C 
HETATM    5  C6  UNL     1      15.084 -13.737  21.048  1.00  0.00     0.143 C 
HETATM    6  N3  UNL     1      14.436 -12.687  20.321  1.00  0.00    -0.325 N 
HETATM    7  C7  UNL     1      13.567 -11.708  20.882  1.00  0.00     0.319 C 
HETATM    8  O3  UNL     1      13.068 -10.835  20.088  1.00  0.00    -0.247 OA
HETATM    9  N4  UNL     1      13.248 -11.672  22.260  1.00  0.00    -0.338 N 
ATOM     10  H4  UNL     1      13.641 -12.363  22.899  1.00  0.00     0.164 HD
HETATM   11  C14 UNL     1      14.834 -12.821  18.941  1.00  0.00     0.131 C 
HETATM   12  C15 UNL     1      15.034 -14.297  18.739  1.00  0.00     0.061 C 
HETATM   13  C16 UNL     1      15.051 -14.914  20.141  1.00  0.00     0.097 C 
HETATM   14  C17 UNL     1      16.307 -15.660  20.371  1.00  0.00     0.165 C 
ENDROOT
BRANCH   1  15
HETATM   15  C3  UNL     1      18.683 -16.656  22.049  1.00  0.00     0.172 C 
HETATM   16  C2  UNL     1      18.288 -17.282  23.304  1.00  0.00     0.233 C 
HETATM   17  N1  UNL     1      19.249 -17.610  24.274  1.00  0.00    -0.340 N 
HETATM   18  O1  UNL     1      17.064 -17.521  23.498  1.00  0.00    -0.272 OA
HETATM   19  C1  UNL     1      18.930 -17.527  25.691  1.00  0.00     0.154 C 
HETATM   20  C21 UNL     1      20.539 -18.029  23.858  1.00  0.00     0.181 C 
HETATM   21  C19 UNL     1      20.913 -17.784  22.449  1.00  0.00     0.120 C 
HETATM   22 BR1  UNL     1      21.829 -17.185  25.065  1.00  0.00    -0.066 Br
HETATM   23  C18 UNL     1      20.133 -16.754  21.718  1.00  0.00     0.051 C 
BRANCH  21  24
HETATM   24  N5  UNL     1      20.859 -19.072  21.749  1.00  0.00    -0.338 N 
HETATM   25  C20 UNL     1      21.659 -19.310  20.615  1.00  0.00     0.329 C 
HETATM   26  N6  UNL     1      21.613 -20.544  19.937  1.00  0.00    -0.040 NA
HETATM   27  O5  UNL     1      22.421 -18.410  20.203  1.00  0.00    -0.251 OA
ATOM     28  H5  UNL     1      20.235 -19.803  22.089  1.00  0.00     0.164 HD
ENDBRANCH  21  24
ENDBRANCH   1  15
BRANCH  13  29
HETATM   29  O4  UNL     1      13.904 -15.695  20.310  1.00  0.00    -0.386 OA
ATOM     30  H4  UNL     1      13.974 -16.545  19.892  1.00  0.00     0.210 HD
ENDBRANCH  13  29
BRANCH   9  31
HETATM   31  C8  UNL     1      12.354 -10.641  22.754  1.00  0.00     0.086 C 
HETATM   32  C9  UNL     1      11.607 -11.154  23.973  1.00  0.00     0.025 C 
HETATM   33  C10 UNL     1      10.630 -10.158  24.503  1.00  0.00     0.002 C 
HETATM   34  C11 UNL     1      11.011  -8.760  24.109  1.00  0.00     0.000 C 
HETATM   35  C12 UNL     1      12.510  -8.628  24.228  1.00  0.00     0.002 C 
HETATM   36  C13 UNL     1      13.118  -9.380  23.059  1.00  0.00     0.025 C 
ENDBRANCH   9  31
TORSDOF 4
ENDMDL
MODEL 5
REMARK VINA RESULT: -7.043423328      5.453      8.988
REMARK  4 active torsions:
REMARK  status: ('A' for Active; 'I' for Inactive)
REMARK    1  A    between atoms: C3_5  and  C4_6 
REMARK       I    between atoms: C4_6  and  N2_8 
REMARK       I    between atoms: N3_11  and  C7_12 
REMARK       I    between atoms: C7_12  and  N4_14 
REMARK    2  A    between atoms: N4_14  and  C8_16 
REMARK    3  A    between atoms: C16_24  and  O4_25 
REMARK    4  A    between atoms: C19_29  and  N5_30 
REMARK       I    between atoms: N5_30  and  C20_32 
ROOT
HETATM    1  C4  UNL     1      12.708 -18.334  18.758  1.00  0.00     0.233 C 
HETATM    2  O2  UNL     1      13.484 -18.567  17.810  1.00  0.00    -0.272 OA
HETATM    3  N2  UNL     1      12.811 -17.102  19.453  1.00  0.00    -0.346 N 
HETATM    4  C5  UNL     1      13.792 -16.069  19.117  1.00  0.00     0.154 C 
HETATM    5  C6  UNL     1      14.107 -15.496  20.504  1.00  0.00     0.143 C 
HETATM    6  N3  UNL     1      14.457 -14.108  20.461  1.00  0.00    -0.325 N 
HETATM    7  C7  UNL     1      15.768 -13.581  20.630  1.00  0.00     0.319 C 
HETATM    8  O3  UNL     1      15.909 -12.310  20.563  1.00  0.00    -0.247 OA
HETATM    9  N4  UNL     1      16.896 -14.404  20.866  1.00  0.00    -0.338 N 
ATOM     10  H4  UNL     1      16.793 -15.417  20.921  1.00  0.00     0.164 HD
HETATM   11  C14 UNL     1      13.240 -13.373  20.215  1.00  0.00     0.131 C 
HETATM   12  C15 UNL     1      12.160 -14.184  20.875  1.00  0.00     0.061 C 
HETATM   13  C16 UNL     1      12.792 -15.542  21.196  1.00  0.00     0.097 C 
HETATM   14  C17 UNL     1      12.024 -16.640  20.570  1.00  0.00     0.165 C 
ENDROOT
BRANCH   1  15
HETATM   15  C3  UNL     1      11.695 -19.344  19.144  1.00  0.00     0.172 C 
HETATM   16  C2  UNL     1      12.274 -20.199  20.171  1.00  0.00     0.233 C 
HETATM   17  N1  UNL     1      12.602 -21.535  19.889  1.00  0.00    -0.340 N 
HETATM   18  O1  UNL     1      12.476 -19.711  21.318  1.00  0.00    -0.272 OA
HETATM   19  C1  UNL     1      13.753 -22.165  20.518  1.00  0.00     0.154 C 
HETATM   20  C21 UNL     1      11.796 -22.270  18.983  1.00  0.00     0.181 C 
HETATM   21  C19 UNL     1      10.856 -21.507  18.134  1.00  0.00     0.120 C 
HETATM   22 BR1  UNL     1      13.008 -23.337  17.875  1.00  0.00    -0.066 Br
HETATM   23  C18 UNL     1      11.132 -20.059  17.963  1.00  0.00     0.051 C 
BRANCH  21  24
HETATM   24  N5  UNL     1       9.507 -21.721  18.669  1.00  0.00    -0.338 N 
HETATM   25  C20 UNL     1       8.684 -22.744  18.161  1.00  0.00     0.329 C 
HETATM   26  N6  UNL     1       7.387 -22.956  18.670  1.00  0.00    -0.040 NA
HETATM   27  O5  UNL     1       9.112 -23.476  17.244  1.00  0.00    -0.251 OA
ATOM     28  H5  UNL     1       9.162 -21.121  19.418  1.00  0.00     0.164 HD
ENDBRANCH  21  24
ENDBRANCH   1  15
BRANCH  13  29
HETATM   29  O4  UNL     1      12.913 -15.673  22.583  1.00  0.00    -0.386 OA
ATOM     30  H4  UNL     1      13.571 -16.309  22.835  1.00  0.00     0.210 HD
ENDBRANCH  13  29
BRANCH   9  31
HETATM   31  C8  UNL     1      18.200 -13.789  21.027  1.00  0.00     0.086 C 
HETATM   32  C9  UNL     1      19.210 -14.840  21.458  1.00  0.00     0.025 C 
HETATM   33  C10 UNL     1      20.566 -14.264  21.692  1.00  0.00     0.002 C 
HETATM   34  C11 UNL     1      20.755 -12.985  20.926  1.00  0.00     0.000 C 
HETATM   35  C12 UNL     1      20.126 -13.155  19.564  1.00  0.00     0.002 C 
HETATM   36  C13 UNL     1      18.621 -13.099  19.758  1.00  0.00     0.025 C 
ENDBRANCH   9  31
TORSDOF 4
ENDMDL
