MODEL 1
REMARK VINA RESULT: -9.838156964      0.000      0.000
REMARK  17 active torsions:
REMARK  status: ('A' for Active; 'I' for Inactive)
REMARK    1  A    between atoms: C1_2  and  C2_4 
REMARK    2  A    between atoms: C3_5  and  S1_6 
REMARK    3  A    between atoms: S1_6  and  C4_7 
REMARK    4  A    between atoms: C4_7  and  C5_8 
REMARK    5  A    between atoms: C5_8  and  O3_9 
REMARK    6  A    between atoms: C5_8  and  C6_11 
REMARK    7  A    between atoms: C6_11  and  O4_12 
REMARK    8  A    between atoms: C6_11  and  C7_14 
REMARK    9  A    between atoms: C7_14  and  O5_15 
REMARK   10  A    between atoms: C8_19  and  C9_20 
REMARK       I    between atoms: N2_25  and  C12_27 
REMARK   11  A    between atoms: C12_27  and  C13_29 
REMARK   12  A    between atoms: C14_33  and  C15_34 
REMARK   13  A    between atoms: C16_35  and  N4_36 
REMARK   14  A    between atoms: C18_40  and  S2_41 
REMARK   15  A    between atoms: C19_47  and  N6_48 
REMARK   16  A    between atoms: N6_48  and  O15_49 
REMARK   17  A    between atoms: N6_48  and  O16_51 
ROOT
HETATM    1  C2  UNL     1      48.518  93.745  37.527  1.00  0.00     0.096 C 
HETATM    2  C3  UNL     1      48.048  94.367  36.436  1.00  0.00     0.085 C 
HETATM    3  N1  UNL     1      47.393  93.562  35.500  1.00  0.00    -0.369 N 
ATOM      4  H1  UNL     1      46.654  93.980  34.935  1.00  0.00     0.161 HD
HETATM    5  C8  UNL     1      47.711  92.160  35.291  1.00  0.00     0.189 C 
HETATM    6  C10 UNL     1      48.322  91.484  36.462  1.00  0.00     0.094 C 
HETATM    7  C11 UNL     1      48.313  92.278  37.719  1.00  0.00     0.034 C 
HETATM    8  N2  UNL     1      48.151  91.875  38.860  1.00  0.00    -0.327 N 
ATOM      9  H2  UNL     1      48.199  92.707  39.448  1.00  0.00     0.168 HD
HETATM   10  C12 UNL     1      47.938  90.857  39.707  1.00  0.00     0.261 C 
HETATM   11  O8  UNL     1      46.863  90.157  39.582  1.00  0.00    -0.270 OA
ENDROOT
BRANCH  10  12
HETATM   12  C13 UNL     1      48.823  90.442  40.805  1.00  0.00     0.320 C 
HETATM   13  O9  UNL     1      48.507  89.146  41.315  1.00  0.00    -0.257 OA
HETATM   14  N3  UNL     1      49.285  88.211  40.743  1.00  0.00    -0.261 N 
HETATM   15  C14 UNL     1      50.235  88.694  39.996  1.00  0.00     0.119 C 
ATOM     16  H3  UNL     1      49.143  87.210  40.882  1.00  0.00     0.194 HD
HETATM   17  C20 UNL     1      50.233  90.118  40.340  1.00  0.00     0.219 C 
HETATM   18  O17 UNL     1      51.163  90.963  40.299  1.00  0.00    -0.287 OA
BRANCH  15  19
HETATM   19  C15 UNL     1      51.228  87.916  39.247  1.00  0.00     0.072 A 
HETATM   20  C16 UNL     1      51.639  88.218  37.986  1.00  0.00     0.121 A 
HETATM   21  C17 UNL     1      52.818  87.621  37.495  1.00  0.00     0.082 A 
HETATM   22  C18 UNL     1      53.563  86.746  38.213  1.00  0.00     0.154 A 
HETATM   23  N5  UNL     1      53.142  86.452  39.444  1.00  0.00    -0.331 N 
HETATM   24  C19 UNL     1      52.027  86.990  39.978  1.00  0.00     0.152 A 
ATOM     25  H5  UNL     1      53.685  85.794  40.003  1.00  0.00     0.168 HD
BRANCH  20  26
HETATM   26  N4  UNL     1      50.900  88.990  37.037  1.00  0.00    -0.115 N 
HETATM   27  O10 UNL     1      49.701  88.726  36.869  1.00  0.00    -0.532 OA
HETATM   28  O11 UNL     1      51.485  89.984  36.339  1.00  0.00    -0.532 OA
ENDBRANCH  20  26
BRANCH  22  29
HETATM   29  S2  UNL     1      55.032  86.006  37.580  1.00  0.00     0.154 S 
HETATM   30  O12 UNL     1      56.068  86.088  38.658  1.00  0.00    -0.590 OA
HETATM   31  O13 UNL     1      55.488  86.887  36.434  1.00  0.00    -0.590 OA
HETATM   32  O14 UNL     1      54.722  84.455  37.082  1.00  0.00    -0.590 OA
ENDBRANCH  22  29
BRANCH  24  33
HETATM   33  N6  UNL     1      51.701  86.580  41.283  1.00  0.00    -0.018 NA
BRANCH  33  34
HETATM   34  O15 UNL     1      52.691  87.096  42.122  1.00  0.00    -0.283 OA
ATOM     35  H15 UNL     1      52.412  86.919  43.013  1.00  0.00     0.240 HD
ENDBRANCH  33  34
BRANCH  33  36
HETATM   36  O16 UNL     1      51.880  85.241  41.387  1.00  0.00    -0.283 OA
ATOM     37  H16 UNL     1      51.924  85.001  42.305  1.00  0.00     0.240 HD
ENDBRANCH  33  36
ENDBRANCH  24  33
ENDBRANCH  15  19
ENDBRANCH  10  12
BRANCH   1  38
HETATM   38  C1  UNL     1      49.197  94.527  38.530  1.00  0.00     0.214 C 
HETATM   39  O1  UNL     1      48.648  94.660  39.669  1.00  0.00    -0.644 OA
HETATM   40  O2  UNL     1      50.410  95.116  38.266  1.00  0.00    -0.644 OA
ENDBRANCH   1  38
BRANCH   2  41
HETATM   41  S1  UNL     1      48.247  96.101  36.221  1.00  0.00    -0.109 SA
BRANCH  41  42
HETATM   42  C4  UNL     1      49.160  96.502  34.744  1.00  0.00     0.115 C 
BRANCH  42  43
HETATM   43  C5  UNL     1      50.580  96.032  34.722  1.00  0.00     0.158 C 
BRANCH  43  44
HETATM   44  O3  UNL     1      51.272  96.517  35.810  1.00  0.00    -0.392 OA
ATOM     45  H3  UNL     1      52.182  96.679  35.586  1.00  0.00     0.210 HD
ENDBRANCH  43  44
BRANCH  43  46
HETATM   46  C6  UNL     1      50.584  94.504  34.750  1.00  0.00     0.171 C 
BRANCH  46  47
HETATM   47  O4  UNL     1      50.117  93.939  33.576  1.00  0.00    -0.391 OA
ATOM     48  H4  UNL     1      50.809  93.742  32.956  1.00  0.00     0.210 HD
ENDBRANCH  46  47
BRANCH  46  49
HETATM   49  C7  UNL     1      51.922  93.942  35.079  1.00  0.00     0.198 C 
BRANCH  49  50
HETATM   50  O5  UNL     1      51.959  93.644  36.450  1.00  0.00    -0.398 OA
ATOM     51  H5  UNL     1      52.629  92.987  36.600  1.00  0.00     0.209 HD
ENDBRANCH  49  50
ENDBRANCH  46  49
ENDBRANCH  43  46
ENDBRANCH  42  43
ENDBRANCH  41  42
ENDBRANCH   2  41
BRANCH   5  52
HETATM   52  C9  UNL     1      46.521  91.438  34.787  1.00  0.00     0.197 C 
HETATM   53  O6  UNL     1      45.628  92.060  34.199  1.00  0.00    -0.646 OA
HETATM   54  O7  UNL     1      46.493  90.056  35.021  1.00  0.00    -0.646 OA
ENDBRANCH   5  52
TORSDOF 17
ENDMDL
MODEL 2
REMARK VINA RESULT: -9.411489381      3.157      9.121
REMARK  17 active torsions:
REMARK  status: ('A' for Active; 'I' for Inactive)
REMARK    1  A    between atoms: C1_2  and  C2_4 
REMARK    2  A    between atoms: C3_5  and  S1_6 
REMARK    3  A    between atoms: S1_6  and  C4_7 
REMARK    4  A    between atoms: C4_7  and  C5_8 
REMARK    5  A    between atoms: C5_8  and  O3_9 
REMARK    6  A    between atoms: C5_8  and  C6_11 
REMARK    7  A    between atoms: C6_11  and  O4_12 
REMARK    8  A    between atoms: C6_11  and  C7_14 
REMARK    9  A    between atoms: C7_14  and  O5_15 
REMARK   10  A    between atoms: C8_19  and  C9_20 
REMARK       I    between atoms: N2_25  and  C12_27 
REMARK   11  A    between atoms: C12_27  and  C13_29 
REMARK   12  A    between atoms: C14_33  and  C15_34 
REMARK   13  A    between atoms: C16_35  and  N4_36 
REMARK   14  A    between atoms: C18_40  and  S2_41 
REMARK   15  A    between atoms: C19_47  and  N6_48 
REMARK   16  A    between atoms: N6_48  and  O15_49 
REMARK   17  A    between atoms: N6_48  and  O16_51 
ROOT
HETATM    1  C2  UNL     1      53.033  85.817  39.126  1.00  0.00     0.096 C 
HETATM    2  C3  UNL     1      53.645  84.863  38.409  1.00  0.00     0.085 C 
HETATM    3  N1  UNL     1      54.843  85.228  37.789  1.00  0.00    -0.369 N 
ATOM      4  H1  UNL     1      55.552  84.509  37.643  1.00  0.00     0.161 HD
HETATM    5  C8  UNL     1      55.131  86.580  37.342  1.00  0.00     0.189 C 
HETATM    6  C10 UNL     1      54.386  87.641  38.064  1.00  0.00     0.094 C 
HETATM    7  C11 UNL     1      53.636  87.177  39.261  1.00  0.00     0.034 C 
HETATM    8  N2  UNL     1      53.472  87.764  40.319  1.00  0.00    -0.327 N 
ATOM      9  H2  UNL     1      52.919  87.131  40.895  1.00  0.00     0.168 HD
HETATM   10  C12 UNL     1      53.675  88.849  41.081  1.00  0.00     0.261 C 
HETATM   11  O8  UNL     1      54.884  89.183  41.380  1.00  0.00    -0.270 OA
ENDROOT
BRANCH  10  12
HETATM   12  C13 UNL     1      52.635  89.724  41.641  1.00  0.00     0.320 C 
HETATM   13  O9  UNL     1      52.679  91.050  41.113  1.00  0.00    -0.257 OA
HETATM   14  N3  UNL     1      51.812  91.182  40.094  1.00  0.00    -0.261 N 
HETATM   15  C14 UNL     1      51.030  90.155  39.925  1.00  0.00     0.119 C 
ATOM     16  H3  UNL     1      51.770  92.014  39.506  1.00  0.00     0.194 HD
HETATM   17  C20 UNL     1      51.240  89.376  41.147  1.00  0.00     0.219 C 
HETATM   18  O17 UNL     1      50.473  88.574  41.739  1.00  0.00    -0.287 OA
BRANCH  15  19
HETATM   19  C15 UNL     1      49.995  90.015  38.895  1.00  0.00     0.072 A 
HETATM   20  C16 UNL     1      48.747  90.547  38.993  1.00  0.00     0.121 A 
HETATM   21  C17 UNL     1      47.957  90.644  37.829  1.00  0.00     0.082 A 
HETATM   22  C18 UNL     1      48.373  90.221  36.611  1.00  0.00     0.154 A 
HETATM   23  N5  UNL     1      49.595  89.692  36.532  1.00  0.00    -0.331 N 
HETATM   24  C19 UNL     1      50.405  89.574  37.604  1.00  0.00     0.152 A 
ATOM     25  H5  UNL     1      49.930  89.364  35.627  1.00  0.00     0.168 HD
BRANCH  20  26
HETATM   26  N4  UNL     1      48.088  90.897  40.213  1.00  0.00    -0.115 N 
HETATM   27  O10 UNL     1      47.421  90.028  40.791  1.00  0.00    -0.532 OA
HETATM   28  O11 UNL     1      48.187  92.138  40.728  1.00  0.00    -0.532 OA
ENDBRANCH  20  26
BRANCH  22  29
HETATM   29  S2  UNL     1      47.368  90.345  35.167  1.00  0.00     0.154 S 
HETATM   30  O12 UNL     1      48.231  90.900  34.076  1.00  0.00    -0.590 OA
HETATM   31  O13 UNL     1      46.304  91.376  35.482  1.00  0.00    -0.590 OA
HETATM   32  O14 UNL     1      46.711  88.868  34.800  1.00  0.00    -0.590 OA
ENDBRANCH  22  29
BRANCH  24  33
HETATM   33  N6  UNL     1      51.662  88.989  37.372  1.00  0.00    -0.018 NA
BRANCH  33  34
HETATM   34  O15 UNL     1      52.188  89.609  36.236  1.00  0.00    -0.283 OA
ATOM     35  H15 UNL     1      53.052  89.239  36.100  1.00  0.00     0.240 HD
ENDBRANCH  33  34
BRANCH  33  36
HETATM   36  O16 UNL     1      51.490  87.707  36.969  1.00  0.00    -0.283 OA
ATOM     37  H16 UNL     1      51.693  87.640  36.043  1.00  0.00     0.240 HD
ENDBRANCH  33  36
ENDBRANCH  24  33
ENDBRANCH  15  19
ENDBRANCH  10  12
BRANCH   1  38
HETATM   38  C1  UNL     1      51.797  85.495  39.793  1.00  0.00     0.214 C 
HETATM   39  O1  UNL     1      50.703  85.736  39.192  1.00  0.00    -0.644 OA
HETATM   40  O2  UNL     1      51.795  84.938  41.049  1.00  0.00    -0.644 OA
ENDBRANCH   1  38
BRANCH   2  41
HETATM   41  S1  UNL     1      52.964  83.246  38.279  1.00  0.00    -0.109 SA
BRANCH  41  42
HETATM   42  C4  UNL     1      52.268  82.930  36.669  1.00  0.00     0.115 C 
BRANCH  42  43
HETATM   43  C5  UNL     1      53.232  82.424  35.643  1.00  0.00     0.158 C 
BRANCH  43  44
HETATM   44  O3  UNL     1      54.504  82.889  35.896  1.00  0.00    -0.392 OA
ATOM     45  H3  UNL     1      54.827  83.401  35.164  1.00  0.00     0.210 HD
ENDBRANCH  43  44
BRANCH  43  46
HETATM   46  C6  UNL     1      53.226  80.897  35.685  1.00  0.00     0.171 C 
BRANCH  46  47
HETATM   47  O4  UNL     1      51.973  80.366  35.942  1.00  0.00    -0.391 OA
ATOM     48  H4  UNL     1      51.269  80.869  35.551  1.00  0.00     0.210 HD
ENDBRANCH  46  47
BRANCH  46  49
HETATM   49  C7  UNL     1      53.783  80.289  34.447  1.00  0.00     0.198 C 
BRANCH  49  50
HETATM   50  O5  UNL     1      52.892  79.308  33.988  1.00  0.00    -0.398 OA
ATOM     51  H5  UNL     1      53.155  78.467  34.344  1.00  0.00     0.209 HD
ENDBRANCH  49  50
ENDBRANCH  46  49
ENDBRANCH  43  46
ENDBRANCH  42  43
ENDBRANCH  41  42
ENDBRANCH   2  41
BRANCH   5  52
HETATM   52  C9  UNL     1      56.592  86.819  37.350  1.00  0.00     0.197 C 
HETATM   53  O6  UNL     1      57.319  86.205  36.559  1.00  0.00    -0.646 OA
HETATM   54  O7  UNL     1      57.059  87.753  38.284  1.00  0.00    -0.646 OA
ENDBRANCH   5  52
TORSDOF 17
ENDMDL
MODEL 3
REMARK VINA RESULT: -9.337767595      0.946      2.592
REMARK  17 active torsions:
REMARK  status: ('A' for Active; 'I' for Inactive)
REMARK    1  A    between atoms: C1_2  and  C2_4 
REMARK    2  A    between atoms: C3_5  and  S1_6 
REMARK    3  A    between atoms: S1_6  and  C4_7 
REMARK    4  A    between atoms: C4_7  and  C5_8 
REMARK    5  A    between atoms: C5_8  and  O3_9 
REMARK    6  A    between atoms: C5_8  and  C6_11 
REMARK    7  A    between atoms: C6_11  and  O4_12 
REMARK    8  A    between atoms: C6_11  and  C7_14 
REMARK    9  A    between atoms: C7_14  and  O5_15 
REMARK   10  A    between atoms: C8_19  and  C9_20 
REMARK       I    between atoms: N2_25  and  C12_27 
REMARK   11  A    between atoms: C12_27  and  C13_29 
REMARK   12  A    between atoms: C14_33  and  C15_34 
REMARK   13  A    between atoms: C16_35  and  N4_36 
REMARK   14  A    between atoms: C18_40  and  S2_41 
REMARK   15  A    between atoms: C19_47  and  N6_48 
REMARK   16  A    between atoms: N6_48  and  O15_49 
REMARK   17  A    between atoms: N6_48  and  O16_51 
ROOT
HETATM    1  C2  UNL     1      48.598  93.789  37.453  1.00  0.00     0.096 C 
HETATM    2  C3  UNL     1      48.112  94.325  36.324  1.00  0.00     0.085 C 
HETATM    3  N1  UNL     1      47.498  93.438  35.434  1.00  0.00    -0.369 N 
ATOM      4  H1  UNL     1      46.747  93.791  34.841  1.00  0.00     0.161 HD
HETATM    5  C8  UNL     1      47.874  92.040  35.313  1.00  0.00     0.189 C 
HETATM    6  C10 UNL     1      48.503  91.462  36.525  1.00  0.00     0.094 C 
HETATM    7  C11 UNL     1      48.452  92.329  37.733  1.00  0.00     0.034 C 
HETATM    8  N2  UNL     1      48.296  91.990  38.895  1.00  0.00    -0.327 N 
ATOM      9  H2  UNL     1      48.307  92.857  39.432  1.00  0.00     0.168 HD
HETATM   10  C12 UNL     1      48.119  91.016  39.800  1.00  0.00     0.261 C 
HETATM   11  O8  UNL     1      47.073  90.266  39.712  1.00  0.00    -0.270 OA
ENDROOT
BRANCH  10  12
HETATM   12  C13 UNL     1      49.011  90.705  40.926  1.00  0.00     0.320 C 
HETATM   13  O9  UNL     1      48.630  89.519  41.627  1.00  0.00    -0.257 OA
HETATM   14  N3  UNL     1      49.328  88.461  41.179  1.00  0.00    -0.261 N 
HETATM   15  C14 UNL     1      50.282  88.766  40.348  1.00  0.00     0.119 C 
ATOM     16  H3  UNL     1      49.127  87.503  41.465  1.00  0.00     0.194 HD
HETATM   17  C20 UNL     1      50.381  90.222  40.480  1.00  0.00     0.219 C 
HETATM   18  O17 UNL     1      51.362  90.987  40.296  1.00  0.00    -0.287 OA
BRANCH  15  19
HETATM   19  C15 UNL     1      51.198  87.823  39.697  1.00  0.00     0.072 A 
HETATM   20  C16 UNL     1      51.858  86.830  40.351  1.00  0.00     0.121 A 
HETATM   21  C17 UNL     1      52.437  85.789  39.597  1.00  0.00     0.082 A 
HETATM   22  C18 UNL     1      52.381  85.731  38.244  1.00  0.00     0.154 A 
HETATM   23  N5  UNL     1      51.739  86.718  37.617  1.00  0.00    -0.331 N 
HETATM   24  C19 UNL     1      51.158  87.740  38.276  1.00  0.00     0.152 A 
ATOM     25  H5  UNL     1      51.685  86.698  36.598  1.00  0.00     0.168 HD
BRANCH  20  26
HETATM   26  N4  UNL     1      52.151  86.810  41.751  1.00  0.00    -0.115 N 
HETATM   27  O10 UNL     1      53.290  86.482  42.108  1.00  0.00    -0.532 OA
HETATM   28  O11 UNL     1      51.216  87.140  42.663  1.00  0.00    -0.532 OA
ENDBRANCH  20  26
BRANCH  22  29
HETATM   29  S2  UNL     1      53.116  84.424  37.317  1.00  0.00     0.154 S 
HETATM   30  O12 UNL     1      52.196  84.121  36.176  1.00  0.00    -0.590 OA
HETATM   31  O13 UNL     1      53.130  83.216  38.231  1.00  0.00    -0.590 OA
HETATM   32  O14 UNL     1      54.643  84.854  36.835  1.00  0.00    -0.590 OA
ENDBRANCH  22  29
BRANCH  24  33
HETATM   33  N6  UNL     1      50.525  88.713  37.482  1.00  0.00    -0.018 NA
BRANCH  33  34
HETATM   34  O15 UNL     1      49.243  88.230  37.206  1.00  0.00    -0.283 OA
ATOM     35  H15 UNL     1      48.632  88.879  37.536  1.00  0.00     0.240 HD
ENDBRANCH  33  34
BRANCH  33  36
HETATM   36  O16 UNL     1      51.110  88.741  36.260  1.00  0.00    -0.283 OA
ATOM     37  H16 UNL     1      51.884  89.292  36.296  1.00  0.00     0.240 HD
ENDBRANCH  33  36
ENDBRANCH  24  33
ENDBRANCH  15  19
ENDBRANCH  10  12
BRANCH   1  38
HETATM   38  C1  UNL     1      49.237  94.657  38.410  1.00  0.00     0.214 C 
HETATM   39  O1  UNL     1      48.694  94.807  39.550  1.00  0.00    -0.644 OA
HETATM   40  O2  UNL     1      50.407  95.309  38.104  1.00  0.00    -0.644 OA
ENDBRANCH   1  38
BRANCH   2  41
HETATM   41  S1  UNL     1      48.243  96.050  36.006  1.00  0.00    -0.109 SA
BRANCH  41  42
HETATM   42  C4  UNL     1      49.191  96.399  34.538  1.00  0.00     0.115 C 
BRANCH  42  43
HETATM   43  C5  UNL     1      50.624  95.972  34.584  1.00  0.00     0.158 C 
BRANCH  43  44
HETATM   44  O3  UNL     1      51.267  96.534  35.665  1.00  0.00    -0.392 OA
ATOM     45  H3  UNL     1      52.204  96.392  35.610  1.00  0.00     0.210 HD
ENDBRANCH  43  44
BRANCH  43  46
HETATM   46  C6  UNL     1      50.670  94.449  34.693  1.00  0.00     0.171 C 
BRANCH  46  47
HETATM   47  O4  UNL     1      50.255  93.809  33.538  1.00  0.00    -0.391 OA
ATOM     48  H4  UNL     1      50.886  93.869  32.832  1.00  0.00     0.210 HD
ENDBRANCH  46  47
BRANCH  46  49
HETATM   49  C7  UNL     1      52.014  93.946  35.090  1.00  0.00     0.198 C 
BRANCH  49  50
HETATM   50  O5  UNL     1      52.000  93.664  36.464  1.00  0.00    -0.398 OA
ATOM     51  H5  UNL     1      52.053  92.723  36.582  1.00  0.00     0.209 HD
ENDBRANCH  49  50
ENDBRANCH  46  49
ENDBRANCH  43  46
ENDBRANCH  42  43
ENDBRANCH  41  42
ENDBRANCH   2  41
BRANCH   5  52
HETATM   52  C9  UNL     1      46.718  91.242  34.846  1.00  0.00     0.197 C 
HETATM   53  O6  UNL     1      45.758  91.806  34.308  1.00  0.00    -0.646 OA
HETATM   54  O7  UNL     1      46.800  89.858  35.056  1.00  0.00    -0.646 OA
ENDBRANCH   5  52
TORSDOF 17
ENDMDL
MODEL 4
REMARK VINA RESULT: -9.321686140      1.893      2.426
REMARK  17 active torsions:
REMARK  status: ('A' for Active; 'I' for Inactive)
REMARK    1  A    between atoms: C1_2  and  C2_4 
REMARK    2  A    between atoms: C3_5  and  S1_6 
REMARK    3  A    between atoms: S1_6  and  C4_7 
REMARK    4  A    between atoms: C4_7  and  C5_8 
REMARK    5  A    between atoms: C5_8  and  O3_9 
REMARK    6  A    between atoms: C5_8  and  C6_11 
REMARK    7  A    between atoms: C6_11  and  O4_12 
REMARK    8  A    between atoms: C6_11  and  C7_14 
REMARK    9  A    between atoms: C7_14  and  O5_15 
REMARK   10  A    between atoms: C8_19  and  C9_20 
REMARK       I    between atoms: N2_25  and  C12_27 
REMARK   11  A    between atoms: C12_27  and  C13_29 
REMARK   12  A    between atoms: C14_33  and  C15_34 
REMARK   13  A    between atoms: C16_35  and  N4_36 
REMARK   14  A    between atoms: C18_40  and  S2_41 
REMARK   15  A    between atoms: C19_47  and  N6_48 
REMARK   16  A    between atoms: N6_48  and  O15_49 
REMARK   17  A    between atoms: N6_48  and  O16_51 
ROOT
HETATM    1  C2  UNL     1      48.931  92.241  37.244  1.00  0.00     0.096 C 
HETATM    2  C3  UNL     1      48.307  92.443  36.074  1.00  0.00     0.085 C 
HETATM    3  N1  UNL     1      47.584  91.360  35.565  1.00  0.00    -0.369 N 
ATOM      4  H1  UNL     1      46.765  91.554  34.988  1.00  0.00     0.161 HD
HETATM    5  C8  UNL     1      47.940  89.974  35.815  1.00  0.00     0.189 C 
HETATM    6  C10 UNL     1      48.715  89.751  37.059  1.00  0.00     0.094 C 
HETATM    7  C11 UNL     1      48.818  90.933  37.955  1.00  0.00     0.034 C 
HETATM    8  N2  UNL     1      48.810  90.953  39.176  1.00  0.00    -0.327 N 
ATOM      9  H2  UNL     1      48.889  91.938  39.429  1.00  0.00     0.168 HD
HETATM   10  C12 UNL     1      48.746  90.293  40.342  1.00  0.00     0.261 C 
HETATM   11  O8  UNL     1      47.696  89.591  40.604  1.00  0.00    -0.270 OA
ENDROOT
BRANCH  10  12
HETATM   12  C13 UNL     1      49.771  90.289  41.395  1.00  0.00     0.320 C 
HETATM   13  O9  UNL     1      49.804  89.068  42.135  1.00  0.00    -0.257 OA
HETATM   14  N3  UNL     1      50.743  88.242  41.643  1.00  0.00    -0.261 N 
HETATM   15  C14 UNL     1      51.503  88.781  40.733  1.00  0.00     0.119 C 
ATOM     16  H3  UNL     1      50.851  87.277  41.954  1.00  0.00     0.194 HD
HETATM   17  C20 UNL     1      51.185  90.208  40.843  1.00  0.00     0.219 C 
HETATM   18  O17 UNL     1      51.885  91.216  40.572  1.00  0.00    -0.287 OA
BRANCH  15  19
HETATM   19  C15 UNL     1      52.601  88.122  40.020  1.00  0.00     0.072 A 
HETATM   20  C16 UNL     1      52.606  87.885  38.680  1.00  0.00     0.121 A 
HETATM   21  C17 UNL     1      53.825  87.560  38.052  1.00  0.00     0.082 A 
HETATM   22  C18 UNL     1      55.001  87.458  38.719  1.00  0.00     0.154 A 
HETATM   23  N5  UNL     1      54.979  87.682  40.033  1.00  0.00    -0.331 N 
HETATM   24  C19 UNL     1      53.849  88.003  40.696  1.00  0.00     0.152 A 
ATOM     25  H5  UNL     1      55.850  87.609  40.558  1.00  0.00     0.168 HD
BRANCH  20  26
HETATM   26  N4  UNL     1      51.444  87.794  37.851  1.00  0.00    -0.115 N 
HETATM   27  O10 UNL     1      50.542  87.014  38.186  1.00  0.00    -0.532 OA
HETATM   28  O11 UNL     1      51.327  88.535  36.732  1.00  0.00    -0.532 OA
ENDBRANCH  20  26
BRANCH  22  29
HETATM   29  S2  UNL     1      56.516  87.044  37.917  1.00  0.00     0.154 S 
HETATM   30  O12 UNL     1      57.513  86.739  38.990  1.00  0.00    -0.590 OA
HETATM   31  O13 UNL     1      56.973  88.302  37.206  1.00  0.00    -0.590 OA
HETATM   32  O14 UNL     1      56.279  85.788  36.862  1.00  0.00    -0.590 OA
ENDBRANCH  22  29
BRANCH  24  33
HETATM   33  N6  UNL     1      53.977  88.202  42.082  1.00  0.00    -0.018 NA
BRANCH  33  34
HETATM   34  O15 UNL     1      55.310  87.936  42.403  1.00  0.00    -0.283 OA
ATOM     35  H15 UNL     1      55.298  87.284  43.094  1.00  0.00     0.240 HD
ENDBRANCH  33  34
BRANCH  33  36
HETATM   36  O16 UNL     1      53.304  87.226  42.738  1.00  0.00    -0.283 OA
ATOM     37  H16 UNL     1      53.910  86.535  42.979  1.00  0.00     0.240 HD
ENDBRANCH  33  36
ENDBRANCH  24  33
ENDBRANCH  15  19
ENDBRANCH  10  12
BRANCH   1  38
HETATM   38  C1  UNL     1      49.686  93.325  37.820  1.00  0.00     0.214 C 
HETATM   39  O1  UNL     1      49.110  94.088  38.658  1.00  0.00    -0.644 OA
HETATM   40  O2  UNL     1      51.000  93.533  37.476  1.00  0.00    -0.644 OA
ENDBRANCH   1  38
BRANCH   2  41
HETATM   41  S1  UNL     1      48.400  93.994  35.250  1.00  0.00    -0.109 SA
BRANCH  41  42
HETATM   42  C4  UNL     1      47.124  95.121  35.779  1.00  0.00     0.115 C 
BRANCH  42  43
HETATM   43  C5  UNL     1      47.368  96.561  35.456  1.00  0.00     0.158 C 
BRANCH  43  44
HETATM   44  O3  UNL     1      46.177  97.231  35.283  1.00  0.00    -0.392 OA
ATOM     45  H3  UNL     1      45.969  97.752  36.050  1.00  0.00     0.210 HD
ENDBRANCH  43  44
BRANCH  43  46
HETATM   46  C6  UNL     1      48.148  97.190  36.609  1.00  0.00     0.171 C 
BRANCH  46  47
HETATM   47  O4  UNL     1      47.745  96.731  37.852  1.00  0.00    -0.391 OA
ATOM     48  H4  UNL     1      47.735  95.783  37.913  1.00  0.00     0.210 HD
ENDBRANCH  46  47
BRANCH  46  49
HETATM   49  C7  UNL     1      49.619  97.018  36.465  1.00  0.00     0.198 C 
BRANCH  49  50
HETATM   50  O5  UNL     1      50.144  96.592  37.694  1.00  0.00    -0.398 OA
ATOM     51  H5  UNL     1      50.721  95.854  37.539  1.00  0.00     0.209 HD
ENDBRANCH  49  50
ENDBRANCH  46  49
ENDBRANCH  43  46
ENDBRANCH  42  43
ENDBRANCH  41  42
ENDBRANCH   2  41
BRANCH   5  52
HETATM   52  C9  UNL     1      46.733  89.119  35.746  1.00  0.00     0.197 C 
HETATM   53  O6  UNL     1      46.379  88.642  34.660  1.00  0.00    -0.646 OA
HETATM   54  O7  UNL     1      46.059  88.906  36.956  1.00  0.00    -0.646 OA
ENDBRANCH   5  52
TORSDOF 17
ENDMDL
MODEL 5
REMARK VINA RESULT: -9.306017197      2.289      3.493
REMARK  17 active torsions:
REMARK  status: ('A' for Active; 'I' for Inactive)
REMARK    1  A    between atoms: C1_2  and  C2_4 
REMARK    2  A    between atoms: C3_5  and  S1_6 
REMARK    3  A    between atoms: S1_6  and  C4_7 
REMARK    4  A    between atoms: C4_7  and  C5_8 
REMARK    5  A    between atoms: C5_8  and  O3_9 
REMARK    6  A    between atoms: C5_8  and  C6_11 
REMARK    7  A    between atoms: C6_11  and  O4_12 
REMARK    8  A    between atoms: C6_11  and  C7_14 
REMARK    9  A    between atoms: C7_14  and  O5_15 
REMARK   10  A    between atoms: C8_19  and  C9_20 
REMARK       I    between atoms: N2_25  and  C12_27 
REMARK   11  A    between atoms: C12_27  and  C13_29 
REMARK   12  A    between atoms: C14_33  and  C15_34 
REMARK   13  A    between atoms: C16_35  and  N4_36 
REMARK   14  A    between atoms: C18_40  and  S2_41 
REMARK   15  A    between atoms: C19_47  and  N6_48 
REMARK   16  A    between atoms: N6_48  and  O15_49 
REMARK   17  A    between atoms: N6_48  and  O16_51 
ROOT
HETATM    1  C2  UNL     1      48.925  93.480  35.850  1.00  0.00     0.096 C 
HETATM    2  C3  UNL     1      49.154  94.008  34.639  1.00  0.00     0.085 C 
HETATM    3  N1  UNL     1      50.242  93.487  33.934  1.00  0.00    -0.369 N 
ATOM      4  H1  UNL     1      50.202  93.485  32.914  1.00  0.00     0.161 HD
HETATM    5  C8  UNL     1      51.428  92.948  34.578  1.00  0.00     0.189 C 
HETATM    6  C10 UNL     1      51.207  92.448  35.957  1.00  0.00     0.094 C 
HETATM    7  C11 UNL     1      49.783  92.377  36.379  1.00  0.00     0.034 C 
HETATM    8  N2  UNL     1      49.249  91.534  37.082  1.00  0.00    -0.327 N 
ATOM      9  H2  UNL     1      48.270  91.814  37.140  1.00  0.00     0.168 HD
HETATM   10  C12 UNL     1      49.340  90.414  37.813  1.00  0.00     0.261 C 
HETATM   11  O8  UNL     1      49.718  89.323  37.239  1.00  0.00    -0.270 OA
ENDROOT
BRANCH  10  12
HETATM   12  C13 UNL     1      49.038  90.286  39.246  1.00  0.00     0.320 C 
HETATM   13  O9  UNL     1      48.396  89.052  39.572  1.00  0.00    -0.257 OA
HETATM   14  N3  UNL     1      49.297  88.148  39.993  1.00  0.00    -0.261 N 
HETATM   15  C14 UNL     1      50.494  88.629  40.164  1.00  0.00     0.119 C 
ATOM     16  H3  UNL     1      49.062  87.170  40.165  1.00  0.00     0.194 HD
HETATM   17  C20 UNL     1      50.280  90.077  40.097  1.00  0.00     0.219 C 
HETATM   18  O17 UNL     1      50.933  91.017  40.618  1.00  0.00    -0.287 OA
BRANCH  15  19
HETATM   19  C15 UNL     1      51.673  87.879  40.609  1.00  0.00     0.072 A 
HETATM   20  C16 UNL     1      52.579  87.312  39.766  1.00  0.00     0.121 A 
HETATM   21  C17 UNL     1      53.829  86.915  40.282  1.00  0.00     0.082 A 
HETATM   22  C18 UNL     1      54.176  87.057  41.584  1.00  0.00     0.154 A 
HETATM   23  N5  UNL     1      53.275  87.605  42.400  1.00  0.00    -0.331 N 
HETATM   24  C19 UNL     1      52.062  88.012  41.973  1.00  0.00     0.152 A 
ATOM     25  H5  UNL     1      53.511  87.720  43.385  1.00  0.00     0.168 HD
BRANCH  20  26
HETATM   26  N4  UNL     1      52.328  86.943  38.408  1.00  0.00    -0.115 N 
HETATM   27  O10 UNL     1      51.748  85.871  38.187  1.00  0.00    -0.532 OA
HETATM   28  O11 UNL     1      52.710  87.736  37.388  1.00  0.00    -0.532 OA
ENDBRANCH  20  26
BRANCH  22  29
HETATM   29  S2  UNL     1      55.744  86.548  42.211  1.00  0.00     0.154 S 
HETATM   30  O12 UNL     1      56.790  87.259  41.411  1.00  0.00    -0.590 OA
HETATM   31  O13 UNL     1      55.858  85.068  41.908  1.00  0.00    -0.590 OA
HETATM   32  O14 UNL     1      55.836  86.857  43.837  1.00  0.00    -0.590 OA
ENDBRANCH  22  29
BRANCH  24  33
HETATM   33  N6  UNL     1      51.212  88.563  42.948  1.00  0.00    -0.018 NA
BRANCH  33  34
HETATM   34  O15 UNL     1      51.693  89.846  43.218  1.00  0.00    -0.283 OA
ATOM     35  H15 UNL     1      50.945  90.366  43.487  1.00  0.00     0.240 HD
ENDBRANCH  33  34
BRANCH  33  36
HETATM   36  O16 UNL     1      51.400  87.913  44.122  1.00  0.00    -0.283 OA
ATOM     37  H16 UNL     1      50.584  87.904  44.609  1.00  0.00     0.240 HD
ENDBRANCH  33  36
ENDBRANCH  24  33
ENDBRANCH  15  19
ENDBRANCH  10  12
BRANCH   1  38
HETATM   38  C1  UNL     1      47.813  93.975  36.621  1.00  0.00     0.214 C 
HETATM   39  O1  UNL     1      47.996  94.986  37.371  1.00  0.00    -0.644 OA
HETATM   40  O2  UNL     1      46.580  93.373  36.551  1.00  0.00    -0.644 OA
ENDBRANCH   1  38
BRANCH   2  41
HETATM   41  S1  UNL     1      48.124  95.278  33.991  1.00  0.00    -0.109 SA
BRANCH  41  42
HETATM   42  C4  UNL     1      48.901  96.881  34.052  1.00  0.00     0.115 C 
BRANCH  42  43
HETATM   43  C5  UNL     1      48.436  97.777  35.155  1.00  0.00     0.158 C 
BRANCH  43  44
HETATM   44  O3  UNL     1      47.271  97.299  35.715  1.00  0.00    -0.392 OA
ATOM     45  H3  UNL     1      47.380  97.152  36.647  1.00  0.00     0.210 HD
ENDBRANCH  43  44
BRANCH  43  46
HETATM   46  C6  UNL     1      49.529  97.839  36.221  1.00  0.00     0.171 C 
BRANCH  46  47
HETATM   47  O4  UNL     1      49.087  97.454  37.475  1.00  0.00    -0.391 OA
ATOM     48  H4  UNL     1      49.777  97.446  38.127  1.00  0.00     0.210 HD
ENDBRANCH  46  47
BRANCH  46  49
HETATM   49  C7  UNL     1      50.734  97.049  35.850  1.00  0.00     0.198 C 
BRANCH  49  50
HETATM   50  O5  UNL     1      50.852  95.967  36.735  1.00  0.00    -0.398 OA
ATOM     51  H5  UNL     1      50.269  95.274  36.448  1.00  0.00     0.209 HD
ENDBRANCH  49  50
ENDBRANCH  46  49
ENDBRANCH  43  46
ENDBRANCH  42  43
ENDBRANCH  41  42
ENDBRANCH   2  41
BRANCH   5  52
HETATM   52  C9  UNL     1      52.061  91.930  33.708  1.00  0.00     0.197 C 
HETATM   53  O6  UNL     1      52.135  90.756  34.090  1.00  0.00    -0.646 OA
HETATM   54  O7  UNL     1      52.545  92.389  32.475  1.00  0.00    -0.646 OA
ENDBRANCH   5  52
TORSDOF 17
ENDMDL
