MODEL 1
REMARK VINA RESULT: -5.739242011      0.000      0.000
REMARK  14 active torsions:
REMARK  status: ('A' for Active; 'I' for Inactive)
REMARK    1  A    between atoms: N1_1  and  N2_4 
REMARK    2  A    between atoms: N2_4  and  N3_5 
REMARK    3  A    between atoms: N3_5  and  C1_7 
REMARK    4  A    between atoms: C2_8  and  C3_9 
REMARK    5  A    between atoms: C3_9  and  O1_10 
REMARK    6  A    between atoms: C4_13  and  O3_14 
REMARK    7  A    between atoms: O3_14  and  C5_15 
REMARK    8  A    between atoms: C6_17  and  C7_18 
REMARK    9  A    between atoms: C7_18  and  O5_19 
REMARK   10  A    between atoms: C8_21  and  N4_22 
REMARK   11  A    between atoms: N4_22  and  S1_24 
REMARK   12  A    between atoms: S1_24  and  N5_25 
REMARK   13  A    between atoms: C10_31  and  N6_32 
REMARK   14  A    between atoms: C11_36  and  C12_37 
ROOT
HETATM    1  O3  UNL     1      14.748  30.072  42.454  1.00  0.00    -0.329 OA
ENDROOT
BRANCH   1   2
HETATM    2  C4  UNL     1      15.958  30.712  42.690  1.00  0.00     0.271 C 
HETATM    3  O2  UNL     1      16.073  31.745  41.764  1.00  0.00    -0.351 OA
HETATM    4  C2  UNL     1      16.744  32.776  42.415  1.00  0.00     0.174 C 
HETATM    5  C1  UNL     1      16.179  32.761  43.822  1.00  0.00     0.155 C 
HETATM    6  C11 UNL     1      16.095  31.274  44.067  1.00  0.00     0.088 C 
BRANCH   4   7
HETATM    7  C3  UNL     1      16.583  34.093  41.721  1.00  0.00     0.198 C 
BRANCH   7   8
HETATM    8  O1  UNL     1      17.805  34.732  41.710  1.00  0.00    -0.398 OA
ATOM      9  H1  UNL     1      18.389  34.257  41.131  1.00  0.00     0.209 HD
ENDBRANCH   7   8
ENDBRANCH   4   7
BRANCH   5  10
HETATM   10  N3  UNL     1      17.063  33.420  44.759  1.00  0.00    -0.245 N 
ATOM     11  H3  UNL     1      16.722  33.828  45.629  1.00  0.00     0.197 HD
BRANCH  10  12
HETATM   12  N2  UNL     1      18.263  33.460  44.438  1.00  0.00    -0.248 NA
BRANCH  12  13
HETATM   13  N1  UNL     1      19.465  33.525  44.143  1.00  0.00    -0.261 N 
ATOM     14  H12 UNL     1      18.855  34.341  44.177  1.00  0.00     0.193 HD
ATOM     15  H11 UNL     1      20.456  33.549  43.905  1.00  0.00     0.193 HD
ENDBRANCH  12  13
ENDBRANCH  10  12
ENDBRANCH   5  10
BRANCH   6  16
HETATM   16  C12 UNL     1      15.017  30.900  45.030  1.00  0.00     0.104 C 
HETATM   17  S2  UNL     1      15.505  31.423  46.713  1.00  0.00    -0.152 SA
HETATM   18  C13 UNL     1      13.751  31.881  46.605  1.00  0.00     0.127 C 
HETATM   19  C14 UNL     1      13.815  31.759  45.097  1.00  0.00     0.004 C 
HETATM   20  N7  UNL     1      13.050  32.259  44.215  1.00  0.00    -0.404 N 
ATOM     21  H72 UNL     1      13.093  32.176  43.199  1.00  0.00     0.155 HD
ATOM     22  H71 UNL     1      12.221  32.852  44.262  1.00  0.00     0.155 HD
ENDBRANCH   6  16
ENDBRANCH   1   2
BRANCH   1  23
HETATM   23  C5  UNL     1      14.650  29.529  41.197  1.00  0.00     0.293 C 
HETATM   24  O4  UNL     1      13.306  29.219  40.875  1.00  0.00    -0.350 OA
HETATM   25  C6  UNL     1      13.266  29.273  39.465  1.00  0.00     0.171 C 
HETATM   26  C8  UNL     1      13.970  28.093  38.924  1.00  0.00     0.127 C 
HETATM   27  C9  UNL     1      14.986  27.450  39.844  1.00  0.00     0.066 C 
HETATM   28  C10 UNL     1      15.489  28.304  40.951  1.00  0.00     0.240 C 
BRANCH  25  29
HETATM   29  C7  UNL     1      11.829  29.297  38.993  1.00  0.00     0.198 C 
BRANCH  29  30
HETATM   30  O5  UNL     1      11.713  29.810  37.708  1.00  0.00    -0.398 OA
ATOM     31  H5  UNL     1      10.898  30.282  37.586  1.00  0.00     0.209 HD
ENDBRANCH  29  30
ENDBRANCH  25  29
BRANCH  26  32
HETATM   32  N4  UNL     1      14.642  28.508  37.681  1.00  0.00    -0.296 N 
ATOM     33  H4  UNL     1      15.323  29.264  37.605  1.00  0.00     0.174 HD
BRANCH  32  34
HETATM   34  S1  UNL     1      14.107  27.528  36.379  1.00  0.00     0.313 S 
HETATM   35  O6  UNL     1      13.534  26.257  36.929  1.00  0.00    -0.183 OA
HETATM   36  O7  UNL     1      13.073  28.237  35.527  1.00  0.00    -0.183 OA
BRANCH  34  37
HETATM   37  N5  UNL     1      15.492  27.105  35.402  1.00  0.00    -0.312 N 
ATOM     38  H52 UNL     1      16.362  26.710  35.760  1.00  0.00     0.170 HD
ATOM     39  H51 UNL     1      15.277  27.321  34.429  1.00  0.00     0.170 HD
ENDBRANCH  34  37
ENDBRANCH  32  34
ENDBRANCH  26  32
BRANCH  28  40
HETATM   40  N6  UNL     1      15.375  27.495  42.179  1.00  0.00    -0.070 N 
ATOM     41  H63 UNL     1      15.532  28.025  43.036  1.00  0.00     0.274 HD
ATOM     42  H62 UNL     1      14.421  27.204  42.391  1.00  0.00     0.274 HD
ATOM     43  H61 UNL     1      16.023  26.717  42.055  1.00  0.00     0.274 HD
ENDBRANCH  28  40
ENDBRANCH   1  23
TORSDOF 14
ENDMDL
MODEL 2
REMARK VINA RESULT: -5.535023419      1.911      2.434
REMARK  14 active torsions:
REMARK  status: ('A' for Active; 'I' for Inactive)
REMARK    1  A    between atoms: N1_1  and  N2_4 
REMARK    2  A    between atoms: N2_4  and  N3_5 
REMARK    3  A    between atoms: N3_5  and  C1_7 
REMARK    4  A    between atoms: C2_8  and  C3_9 
REMARK    5  A    between atoms: C3_9  and  O1_10 
REMARK    6  A    between atoms: C4_13  and  O3_14 
REMARK    7  A    between atoms: O3_14  and  C5_15 
REMARK    8  A    between atoms: C6_17  and  C7_18 
REMARK    9  A    between atoms: C7_18  and  O5_19 
REMARK   10  A    between atoms: C8_21  and  N4_22 
REMARK   11  A    between atoms: N4_22  and  S1_24 
REMARK   12  A    between atoms: S1_24  and  N5_25 
REMARK   13  A    between atoms: C10_31  and  N6_32 
REMARK   14  A    between atoms: C11_36  and  C12_37 
ROOT
HETATM    1  O3  UNL     1      15.273  30.060  42.305  1.00  0.00    -0.329 OA
ENDROOT
BRANCH   1   2
HETATM    2  C4  UNL     1      15.737  31.368  42.262  1.00  0.00     0.271 C 
HETATM    3  O2  UNL     1      14.905  32.135  43.074  1.00  0.00    -0.351 OA
HETATM    4  C2  UNL     1      15.716  33.108  43.649  1.00  0.00     0.174 C 
HETATM    5  C1  UNL     1      17.011  32.383  43.957  1.00  0.00     0.155 C 
HETATM    6  C11 UNL     1      17.150  31.532  42.718  1.00  0.00     0.088 C 
BRANCH   4   7
HETATM    7  C3  UNL     1      15.086  33.742  44.850  1.00  0.00     0.198 C 
BRANCH   7   8
HETATM    8  O1  UNL     1      15.845  34.834  45.216  1.00  0.00    -0.398 OA
ATOM      9  H1  UNL     1      15.760  34.958  46.154  1.00  0.00     0.209 HD
ENDBRANCH   7   8
ENDBRANCH   4   7
BRANCH   5  10
HETATM   10  N3  UNL     1      18.116  33.305  44.112  1.00  0.00    -0.245 N 
ATOM     11  H3  UNL     1      18.595  33.715  43.311  1.00  0.00     0.197 HD
BRANCH  10  12
HETATM   12  N2  UNL     1      18.445  33.568  45.282  1.00  0.00    -0.248 NA
BRANCH  12  13
HETATM   13  N1  UNL     1      18.739  33.843  46.454  1.00  0.00    -0.261 N 
ATOM     14  H12 UNL     1      17.849  33.424  46.187  1.00  0.00     0.193 HD
ATOM     15  H11 UNL     1      19.009  34.080  47.408  1.00  0.00     0.193 HD
ENDBRANCH  12  13
ENDBRANCH  10  12
ENDBRANCH   5  10
BRANCH   6  16
HETATM   16  C12 UNL     1      17.904  30.266  42.959  1.00  0.00     0.104 C 
HETATM   17  S2  UNL     1      19.670  30.658  43.221  1.00  0.00    -0.152 SA
HETATM   18  C13 UNL     1      19.309  29.408  44.487  1.00  0.00     0.127 C 
HETATM   19  C14 UNL     1      17.826  29.655  44.303  1.00  0.00     0.004 C 
HETATM   20  N7  UNL     1      16.863  29.399  45.091  1.00  0.00    -0.404 N 
ATOM     21  H72 UNL     1      15.864  29.565  44.967  1.00  0.00     0.155 HD
ATOM     22  H71 UNL     1      16.810  28.977  46.018  1.00  0.00     0.155 HD
ENDBRANCH   6  16
ENDBRANCH   1   2
BRANCH   1  23
HETATM   23  C5  UNL     1      15.057  29.512  41.064  1.00  0.00     0.293 C 
HETATM   24  O4  UNL     1      13.686  29.218  40.865  1.00  0.00    -0.350 OA
HETATM   25  C6  UNL     1      13.523  29.266  39.463  1.00  0.00     0.171 C 
HETATM   26  C8  UNL     1      14.161  28.075  38.868  1.00  0.00     0.127 C 
HETATM   27  C9  UNL     1      15.248  27.424  39.698  1.00  0.00     0.066 C 
HETATM   28  C10 UNL     1      15.856  28.277  40.752  1.00  0.00     0.240 C 
BRANCH  25  29
HETATM   29  C7  UNL     1      12.050  29.305  39.120  1.00  0.00     0.198 C 
BRANCH  29  30
HETATM   30  O5  UNL     1      11.826  29.828  37.853  1.00  0.00    -0.398 OA
ATOM     31  H5  UNL     1      11.941  29.175  37.174  1.00  0.00     0.209 HD
ENDBRANCH  29  30
ENDBRANCH  25  29
BRANCH  26  32
HETATM   32  N4  UNL     1      14.726  28.476  37.568  1.00  0.00    -0.296 N 
ATOM     33  H4  UNL     1      15.406  29.224  37.429  1.00  0.00     0.174 HD
BRANCH  32  34
HETATM   34  S1  UNL     1      14.066  27.497  36.325  1.00  0.00     0.313 S 
HETATM   35  O6  UNL     1      13.505  26.248  36.934  1.00  0.00    -0.183 OA
HETATM   36  O7  UNL     1      12.989  28.224  35.545  1.00  0.00    -0.183 OA
BRANCH  34  37
HETATM   37  N5  UNL     1      15.361  27.026  35.250  1.00  0.00    -0.312 N 
ATOM     38  H52 UNL     1      16.227  27.546  35.113  1.00  0.00     0.170 HD
ATOM     39  H51 UNL     1      15.098  26.152  34.794  1.00  0.00     0.170 HD
ENDBRANCH  34  37
ENDBRANCH  32  34
ENDBRANCH  26  32
BRANCH  28  40
HETATM   40  N6  UNL     1      15.843  27.474  41.990  1.00  0.00    -0.070 N 
ATOM     41  H63 UNL     1      16.312  27.924  42.775  1.00  0.00     0.274 HD
ATOM     42  H62 UNL     1      14.921  27.405  42.422  1.00  0.00     0.274 HD
ATOM     43  H61 UNL     1      16.245  26.572  41.735  1.00  0.00     0.274 HD
ENDBRANCH  28  40
ENDBRANCH   1  23
TORSDOF 14
ENDMDL
MODEL 3
REMARK VINA RESULT: -5.440823492     10.985     13.854
REMARK  14 active torsions:
REMARK  status: ('A' for Active; 'I' for Inactive)
REMARK    1  A    between atoms: N1_1  and  N2_4 
REMARK    2  A    between atoms: N2_4  and  N3_5 
REMARK    3  A    between atoms: N3_5  and  C1_7 
REMARK    4  A    between atoms: C2_8  and  C3_9 
REMARK    5  A    between atoms: C3_9  and  O1_10 
REMARK    6  A    between atoms: C4_13  and  O3_14 
REMARK    7  A    between atoms: O3_14  and  C5_15 
REMARK    8  A    between atoms: C6_17  and  C7_18 
REMARK    9  A    between atoms: C7_18  and  O5_19 
REMARK   10  A    between atoms: C8_21  and  N4_22 
REMARK   11  A    between atoms: N4_22  and  S1_24 
REMARK   12  A    between atoms: S1_24  and  N5_25 
REMARK   13  A    between atoms: C10_31  and  N6_32 
REMARK   14  A    between atoms: C11_36  and  C12_37 
ROOT
HETATM    1  O3  UNL     1       9.060  23.623  33.562  1.00  0.00    -0.329 OA
ENDROOT
BRANCH   1   2
HETATM    2  C4  UNL     1       9.974  23.815  32.533  1.00  0.00     0.271 C 
HETATM    3  O2  UNL     1      11.113  24.393  33.087  1.00  0.00    -0.351 OA
HETATM    4  C2  UNL     1      12.192  23.885  32.370  1.00  0.00     0.174 C 
HETATM    5  C1  UNL     1      11.831  22.432  32.131  1.00  0.00     0.155 C 
HETATM    6  C11 UNL     1      10.361  22.563  31.817  1.00  0.00     0.088 C 
BRANCH   4   7
HETATM    7  C3  UNL     1      13.493  24.067  33.087  1.00  0.00     0.198 C 
BRANCH   7   8
HETATM    8  O1  UNL     1      14.508  23.611  32.273  1.00  0.00    -0.398 OA
ATOM      9  H1  UNL     1      14.910  24.358  31.846  1.00  0.00     0.209 HD
ENDBRANCH   7   8
ENDBRANCH   4   7
BRANCH   5  10
HETATM   10  N3  UNL     1      12.578  21.872  31.024  1.00  0.00    -0.245 N 
ATOM     11  H3  UNL     1      12.482  22.227  30.072  1.00  0.00     0.197 HD
BRANCH  10  12
HETATM   12  N2  UNL     1      13.343  20.933  31.303  1.00  0.00    -0.248 NA
BRANCH  12  13
HETATM   13  N1  UNL     1      14.102  19.985  31.548  1.00  0.00    -0.261 N 
ATOM     14  H12 UNL     1      13.696  20.150  30.627  1.00  0.00     0.193 HD
ATOM     15  H11 UNL     1      14.729  19.214  31.778  1.00  0.00     0.193 HD
ENDBRANCH  12  13
ENDBRANCH  10  12
ENDBRANCH   5  10
BRANCH   6  16
HETATM   16  C12 UNL     1       9.575  21.343  32.173  1.00  0.00     0.104 C 
HETATM   17  S2  UNL     1       7.871  21.518  31.536  1.00  0.00    -0.152 SA
HETATM   18  C13 UNL     1       8.306  19.799  31.147  1.00  0.00     0.127 C 
HETATM   19  C14 UNL     1       9.770  20.127  31.354  1.00  0.00     0.004 C 
HETATM   20  N7  UNL     1      10.801  19.515  30.933  1.00  0.00    -0.404 N 
ATOM     21  H72 UNL     1      11.787  19.736  31.073  1.00  0.00     0.155 HD
ATOM     22  H71 UNL     1      10.935  18.676  30.369  1.00  0.00     0.155 HD
ENDBRANCH   6  16
ENDBRANCH   1   2
BRANCH   1  23
HETATM   23  C5  UNL     1       8.168  24.657  33.704  1.00  0.00     0.293 C 
HETATM   24  O4  UNL     1       8.418  25.392  34.888  1.00  0.00    -0.350 OA
HETATM   25  C6  UNL     1       7.906  26.678  34.612  1.00  0.00     0.171 C 
HETATM   26  C8  UNL     1       6.431  26.615  34.621  1.00  0.00     0.127 C 
HETATM   27  C9  UNL     1       5.826  25.251  34.359  1.00  0.00     0.066 C 
HETATM   28  C10 UNL     1       6.715  24.267  33.688  1.00  0.00     0.240 C 
BRANCH  25  29
HETATM   29  C7  UNL     1       8.401  27.661  35.651  1.00  0.00     0.198 C 
BRANCH  29  30
HETATM   30  O5  UNL     1       7.966  28.954  35.390  1.00  0.00    -0.398 OA
ATOM     31  H5  UNL     1       8.633  29.599  35.593  1.00  0.00     0.209 HD
ENDBRANCH  29  30
ENDBRANCH  25  29
BRANCH  26  32
HETATM   32  N4  UNL     1       5.940  27.561  33.604  1.00  0.00    -0.296 N 
ATOM     33  H4  UNL     1       6.274  27.614  32.641  1.00  0.00     0.174 HD
BRANCH  32  34
HETATM   34  S1  UNL     1       4.721  28.558  34.282  1.00  0.00     0.313 S 
HETATM   35  O6  UNL     1       4.966  29.977  33.868  1.00  0.00    -0.183 OA
HETATM   36  O7  UNL     1       3.333  28.125  33.853  1.00  0.00    -0.183 OA
BRANCH  34  37
HETATM   37  N5  UNL     1       4.855  28.484  36.022  1.00  0.00    -0.312 N 
ATOM     38  H52 UNL     1       4.469  29.172  36.669  1.00  0.00     0.170 HD
ATOM     39  H51 UNL     1       5.379  27.644  36.269  1.00  0.00     0.170 HD
ENDBRANCH  34  37
ENDBRANCH  32  34
ENDBRANCH  26  32
BRANCH  28  40
HETATM   40  N6  UNL     1       6.629  23.027  34.483  1.00  0.00    -0.070 N 
ATOM     41  H63 UNL     1       6.617  22.178  33.918  1.00  0.00     0.274 HD
ATOM     42  H62 UNL     1       7.482  22.814  35.002  1.00  0.00     0.274 HD
ATOM     43  H61 UNL     1       5.806  23.138  35.074  1.00  0.00     0.274 HD
ENDBRANCH  28  40
ENDBRANCH   1  23
TORSDOF 14
ENDMDL
MODEL 4
REMARK VINA RESULT: -5.437955847      3.305      4.449
REMARK  14 active torsions:
REMARK  status: ('A' for Active; 'I' for Inactive)
REMARK    1  A    between atoms: N1_1  and  N2_4 
REMARK    2  A    between atoms: N2_4  and  N3_5 
REMARK    3  A    between atoms: N3_5  and  C1_7 
REMARK    4  A    between atoms: C2_8  and  C3_9 
REMARK    5  A    between atoms: C3_9  and  O1_10 
REMARK    6  A    between atoms: C4_13  and  O3_14 
REMARK    7  A    between atoms: O3_14  and  C5_15 
REMARK    8  A    between atoms: C6_17  and  C7_18 
REMARK    9  A    between atoms: C7_18  and  O5_19 
REMARK   10  A    between atoms: C8_21  and  N4_22 
REMARK   11  A    between atoms: N4_22  and  S1_24 
REMARK   12  A    between atoms: S1_24  and  N5_25 
REMARK   13  A    between atoms: C10_31  and  N6_32 
REMARK   14  A    between atoms: C11_36  and  C12_37 
ROOT
HETATM    1  O3  UNL     1      12.918  27.176  41.227  1.00  0.00    -0.329 OA
ENDROOT
BRANCH   1   2
HETATM    2  C4  UNL     1      13.097  28.243  42.098  1.00  0.00     0.271 C 
HETATM    3  O2  UNL     1      14.116  29.038  41.582  1.00  0.00    -0.351 OA
HETATM    4  C2  UNL     1      13.785  30.350  41.908  1.00  0.00     0.174 C 
HETATM    5  C1  UNL     1      12.282  30.415  41.721  1.00  0.00     0.155 C 
HETATM    6  C11 UNL     1      11.876  29.081  42.297  1.00  0.00     0.088 C 
BRANCH   4   7
HETATM    7  C3  UNL     1      14.534  31.352  41.085  1.00  0.00     0.198 C 
BRANCH   7   8
HETATM    8  O1  UNL     1      14.729  32.485  41.846  1.00  0.00    -0.398 OA
ATOM      9  H1  UNL     1      14.009  32.562  42.461  1.00  0.00     0.209 HD
ENDBRANCH   7   8
ENDBRANCH   4   7
BRANCH   5  10
HETATM   10  N3  UNL     1      11.701  31.524  42.449  1.00  0.00    -0.245 N 
ATOM     11  H3  UNL     1      10.861  32.002  42.126  1.00  0.00     0.197 HD
BRANCH  10  12
HETATM   12  N2  UNL     1      12.290  31.857  43.491  1.00  0.00    -0.248 NA
BRANCH  12  13
HETATM   13  N1  UNL     1      12.868  32.225  44.524  1.00  0.00    -0.261 N 
ATOM     14  H12 UNL     1      12.549  32.872  43.803  1.00  0.00     0.193 HD
ATOM     15  H11 UNL     1      13.346  32.498  45.382  1.00  0.00     0.193 HD
ENDBRANCH  12  13
ENDBRANCH  10  12
ENDBRANCH   5  10
BRANCH   6  16
HETATM   16  C12 UNL     1      10.617  28.544  41.700  1.00  0.00     0.104 C 
HETATM   17  S2  UNL     1       9.182  29.271  42.569  1.00  0.00    -0.152 SA
HETATM   18  C13 UNL     1       8.705  29.327  40.818  1.00  0.00     0.127 C 
HETATM   19  C14 UNL     1      10.152  29.123  40.421  1.00  0.00     0.004 C 
HETATM   20  N7  UNL     1      10.731  29.385  39.321  1.00  0.00    -0.404 N 
ATOM     21  H72 UNL     1      11.706  29.247  39.053  1.00  0.00     0.155 HD
ATOM     22  H71 UNL     1      10.410  29.784  38.438  1.00  0.00     0.155 HD
ENDBRANCH   6  16
ENDBRANCH   1   2
BRANCH   1  23
HETATM   23  C5  UNL     1      13.673  27.268  40.083  1.00  0.00     0.293 C 
HETATM   24  O4  UNL     1      12.888  27.027  38.929  1.00  0.00    -0.350 OA
HETATM   25  C6  UNL     1      13.561  27.723  37.901  1.00  0.00     0.171 C 
HETATM   26  C8  UNL     1      14.798  26.992  37.564  1.00  0.00     0.127 C 
HETATM   27  C9  UNL     1      15.348  26.087  38.646  1.00  0.00     0.066 C 
HETATM   28  C10 UNL     1      14.881  26.373  40.028  1.00  0.00     0.240 C 
BRANCH  25  29
HETATM   29  C7  UNL     1      12.665  27.838  36.688  1.00  0.00     0.198 C 
BRANCH  29  30
HETATM   30  O5  UNL     1      13.243  28.607  35.687  1.00  0.00    -0.398 OA
ATOM     31  H5  UNL     1      12.646  29.269  35.359  1.00  0.00     0.209 HD
ENDBRANCH  29  30
ENDBRANCH  25  29
BRANCH  26  32
HETATM   32  N4  UNL     1      15.821  27.990  37.207  1.00  0.00    -0.296 N 
ATOM     33  H4  UNL     1      16.076  28.798  37.775  1.00  0.00     0.174 HD
BRANCH  32  34
HETATM   34  S1  UNL     1      16.519  27.588  35.693  1.00  0.00     0.313 S 
HETATM   35  O6  UNL     1      15.522  26.810  34.888  1.00  0.00    -0.183 OA
HETATM   36  O7  UNL     1      16.955  28.821  34.927  1.00  0.00    -0.183 OA
BRANCH  34  37
HETATM   37  N5  UNL     1      17.894  26.549  35.979  1.00  0.00    -0.312 N 
ATOM     38  H52 UNL     1      17.856  25.640  36.440  1.00  0.00     0.170 HD
ATOM     39  H51 UNL     1      18.726  27.009  35.609  1.00  0.00     0.170 HD
ENDBRANCH  34  37
ENDBRANCH  32  34
ENDBRANCH  26  32
BRANCH  28  40
HETATM   40  N6  UNL     1      14.441  25.081  40.589  1.00  0.00    -0.070 N 
ATOM     41  H63 UNL     1      14.741  24.929  41.552  1.00  0.00     0.274 HD
ATOM     42  H62 UNL     1      13.438  25.032  40.766  1.00  0.00     0.274 HD
ATOM     43  H61 UNL     1      14.778  24.372  39.939  1.00  0.00     0.274 HD
ENDBRANCH  28  40
ENDBRANCH   1  23
TORSDOF 14
ENDMDL
MODEL 5
REMARK VINA RESULT: -5.419036228      5.599     10.744
REMARK  14 active torsions:
REMARK  status: ('A' for Active; 'I' for Inactive)
REMARK    1  A    between atoms: N1_1  and  N2_4 
REMARK    2  A    between atoms: N2_4  and  N3_5 
REMARK    3  A    between atoms: N3_5  and  C1_7 
REMARK    4  A    between atoms: C2_8  and  C3_9 
REMARK    5  A    between atoms: C3_9  and  O1_10 
REMARK    6  A    between atoms: C4_13  and  O3_14 
REMARK    7  A    between atoms: O3_14  and  C5_15 
REMARK    8  A    between atoms: C6_17  and  C7_18 
REMARK    9  A    between atoms: C7_18  and  O5_19 
REMARK   10  A    between atoms: C8_21  and  N4_22 
REMARK   11  A    between atoms: N4_22  and  S1_24 
REMARK   12  A    between atoms: S1_24  and  N5_25 
REMARK   13  A    between atoms: C10_31  and  N6_32 
REMARK   14  A    between atoms: C11_36  and  C12_37 
ROOT
HETATM    1  O3  UNL     1       8.115  28.157  37.478  1.00  0.00    -0.329 OA
ENDROOT
BRANCH   1   2
HETATM    2  C4  UNL     1       7.827  28.293  36.126  1.00  0.00     0.271 C 
HETATM    3  O2  UNL     1       8.989  27.996  35.419  1.00  0.00    -0.351 OA
HETATM    4  C2  UNL     1       8.578  27.377  34.242  1.00  0.00     0.174 C 
HETATM    5  C1  UNL     1       7.421  26.495  34.667  1.00  0.00     0.155 C 
HETATM    6  C11 UNL     1       6.723  27.411  35.643  1.00  0.00     0.088 C 
BRANCH   4   7
HETATM    7  C3  UNL     1       9.686  26.626  33.572  1.00  0.00     0.198 C 
BRANCH   7   8
HETATM    8  O1  UNL     1       9.242  26.199  32.339  1.00  0.00    -0.398 OA
ATOM      9  H1  UNL     1       9.607  25.339  32.168  1.00  0.00     0.209 HD
ENDBRANCH   7   8
ENDBRANCH   4   7
BRANCH   5  10
HETATM   10  N3  UNL     1       6.575  26.147  33.545  1.00  0.00    -0.245 N 
ATOM     11  H3  UNL     1       5.858  26.781  33.191  1.00  0.00     0.197 HD
BRANCH  10  12
HETATM   12  N2  UNL     1       6.775  25.030  33.039  1.00  0.00    -0.248 NA
BRANCH  12  13
HETATM   13  N1  UNL     1       7.006  23.913  32.554  1.00  0.00    -0.261 N 
ATOM     14  H12 UNL     1       7.665  24.406  33.156  1.00  0.00     0.193 HD
ATOM     15  H11 UNL     1       7.169  22.995  32.141  1.00  0.00     0.193 HD
ENDBRANCH  12  13
ENDBRANCH  10  12
ENDBRANCH   5  10
BRANCH   6  16
HETATM   16  C12 UNL     1       5.972  26.674  36.703  1.00  0.00     0.104 C 
HETATM   17  S2  UNL     1       4.598  25.746  35.932  1.00  0.00    -0.152 SA
HETATM   18  C13 UNL     1       5.293  24.577  37.136  1.00  0.00     0.127 C 
HETATM   19  C14 UNL     1       6.551  25.415  37.218  1.00  0.00     0.004 C 
HETATM   20  N7  UNL     1       7.713  25.087  37.613  1.00  0.00    -0.404 N 
ATOM     21  H72 UNL     1       8.561  25.652  37.669  1.00  0.00     0.155 HD
ATOM     22  H71 UNL     1       8.113  24.218  37.969  1.00  0.00     0.155 HD
ENDBRANCH   6  16
ENDBRANCH   1   2
BRANCH   1  23
HETATM   23  C5  UNL     1       9.445  28.325  37.776  1.00  0.00     0.293 C 
HETATM   24  O4  UNL     1       9.905  27.314  38.654  1.00  0.00    -0.350 OA
HETATM   25  C6  UNL     1      11.289  27.230  38.390  1.00  0.00     0.171 C 
HETATM   26  C8  UNL     1      11.954  28.422  38.952  1.00  0.00     0.127 C 
HETATM   27  C9  UNL     1      11.075  29.638  39.149  1.00  0.00     0.066 C 
HETATM   28  C10 UNL     1       9.816  29.661  38.359  1.00  0.00     0.240 C 
BRANCH  25  29
HETATM   29  C7  UNL     1      11.853  25.968  39.005  1.00  0.00     0.198 C 
BRANCH  29  30
HETATM   30  O5  UNL     1      13.058  25.599  38.420  1.00  0.00    -0.398 OA
ATOM     31  H5  UNL     1      13.692  26.306  38.439  1.00  0.00     0.209 HD
ENDBRANCH  29  30
ENDBRANCH  25  29
BRANCH  26  32
HETATM   32  N4  UNL     1      13.068  28.774  38.054  1.00  0.00    -0.296 N 
ATOM     33  H4  UNL     1      13.006  28.833  37.037  1.00  0.00     0.174 HD
BRANCH  32  34
HETATM   34  S1  UNL     1      14.483  29.071  38.976  1.00  0.00     0.313 S 
HETATM   35  O6  UNL     1      15.683  28.908  38.094  1.00  0.00    -0.183 OA
HETATM   36  O7  UNL     1      14.476  30.456  39.591  1.00  0.00    -0.183 OA
BRANCH  34  37
HETATM   37  N5  UNL     1      14.583  27.863  40.235  1.00  0.00    -0.312 N 
ATOM     38  H52 UNL     1      14.622  26.856  40.078  1.00  0.00     0.170 HD
ATOM     39  H51 UNL     1      14.596  28.340  41.137  1.00  0.00     0.170 HD
ENDBRANCH  34  37
ENDBRANCH  32  34
ENDBRANCH  26  32
BRANCH  28  40
HETATM   40  N6  UNL     1       8.739  29.990  39.312  1.00  0.00    -0.070 N 
ATOM     41  H63 UNL     1       8.156  29.191  39.564  1.00  0.00     0.274 HD
ATOM     42  H62 UNL     1       9.074  30.196  40.253  1.00  0.00     0.274 HD
ATOM     43  H61 UNL     1       8.220  30.756  38.884  1.00  0.00     0.274 HD
ENDBRANCH  28  40
ENDBRANCH   1  23
TORSDOF 14
ENDMDL
