MODEL 1
REMARK VINA RESULT: -5.968163346      0.000      0.000
REMARK  12 active torsions:
REMARK  status: ('A' for Active; 'I' for Inactive)
REMARK    1  A    between atoms: C3_3  and  O1_4 
REMARK    2  A    between atoms: O1_4  and  C4_5 
REMARK    3  A    between atoms: C6_9  and  N1_10 
REMARK    4  A    between atoms: C7_14  and  O4_15 
REMARK    5  A    between atoms: O4_15  and  C8_16 
REMARK    6  A    between atoms: C8_16  and  C9_17 
REMARK    7  A    between atoms: C9_17  and  O5_18 
REMARK    8  A    between atoms: C10_20  and  N2_21 
REMARK       I    between atoms: N2_21  and  C11_23 
REMARK    9  A    between atoms: C13_27  and  N4_28 
REMARK       I    between atoms: N4_28  and  C14_30 
REMARK   10  A    between atoms: C14_30  and  O8_32 
REMARK   11  A    between atoms: O8_32  and  C15_33 
REMARK   12  A    between atoms: C19_37  and  O9_38 
ROOT
HETATM    1  C4  UNL     1      12.941  27.403  37.842  1.00  0.00     0.322 C 
HETATM    2  O2  UNL     1      13.421  26.190  37.370  1.00  0.00    -0.206 OA
HETATM    3  O3  UNL     1      13.404  26.180  36.077  1.00  0.00    -0.236 OA
HETATM    4  C5  UNL     1      13.922  27.291  35.462  1.00  0.00     0.245 C 
HETATM    5  C6  UNL     1      15.251  27.740  35.975  1.00  0.00     0.241 C 
HETATM    6  C7  UNL     1      15.399  27.693  37.460  1.00  0.00     0.181 C 
HETATM    7  C10 UNL     1      14.146  28.293  38.077  1.00  0.00     0.174 C 
ENDROOT
BRANCH   1   8
HETATM    8  O1  UNL     1      12.352  27.195  39.081  1.00  0.00    -0.350 OA
BRANCH   8   9
HETATM    9  C3  UNL     1      11.003  27.362  39.107  1.00  0.00     0.133 C 
HETATM   10  C2  UNL     1      10.727  28.798  39.572  1.00  0.00     0.041 C 
HETATM   11  C1  UNL     1      11.098  29.018  40.998  1.00  0.00     0.015 C 
HETATM   12  C19 UNL     1       9.273  28.944  39.267  1.00  0.00     0.147 C 
HETATM   13  C13 UNL     1       8.985  27.993  38.105  1.00  0.00     0.118 C 
HETATM   14  C12 UNL     1      10.354  27.405  37.735  1.00  0.00     0.060 C 
BRANCH  12  15
HETATM   15  O9  UNL     1       8.506  28.631  40.362  1.00  0.00    -0.393 OA
ATOM     16  H9  UNL     1       7.587  28.805  40.195  1.00  0.00     0.210 HD
ENDBRANCH  12  15
BRANCH  13  17
HETATM   17  N4  UNL     1       8.387  28.704  37.021  1.00  0.00    -0.330 N 
HETATM   18  C14 UNL     1       7.002  28.550  36.779  1.00  0.00     0.361 C 
HETATM   19  O7  UNL     1       6.274  27.796  37.498  1.00  0.00    -0.238 OA
ATOM     20  H4  UNL     1       8.950  29.315  36.429  1.00  0.00     0.165 HD
BRANCH  18  21
HETATM   21  O8  UNL     1       6.327  29.205  35.743  1.00  0.00    -0.294 OA
BRANCH  21  22
HETATM   22  C15 UNL     1       6.036  28.559  34.518  1.00  0.00     0.061 C 
HETATM   23  C16 UNL     1       4.790  27.693  34.635  1.00  0.00     0.046 C 
HETATM   24  C17 UNL     1       5.790  29.638  33.487  1.00  0.00     0.046 C 
HETATM   25  C18 UNL     1       7.172  27.662  34.081  1.00  0.00     0.046 C 
ENDBRANCH  21  22
ENDBRANCH  18  21
ENDBRANCH  13  17
ENDBRANCH   8   9
ENDBRANCH   1   8
BRANCH   7  26
HETATM   26  N2  UNL     1      14.373  28.543  39.488  1.00  0.00    -0.333 N 
HETATM   27  C11 UNL     1      14.413  29.834  40.050  1.00  0.00     0.329 C 
HETATM   28  N3  UNL     1      14.640  29.980  41.435  1.00  0.00    -0.040 NA
HETATM   29  O6  UNL     1      14.251  30.878  39.350  1.00  0.00    -0.251 OA
ATOM     30  H2  UNL     1      14.511  27.742  40.105  1.00  0.00     0.164 HD
ENDBRANCH   7  26
BRANCH   6  31
HETATM   31  O4  UNL     1      16.489  28.438  37.853  1.00  0.00    -0.379 OA
BRANCH  31  32
HETATM   32  C8  UNL     1      17.485  27.673  38.446  1.00  0.00     0.194 C 
BRANCH  32  33
HETATM   33  C9  UNL     1      18.807  28.025  37.789  1.00  0.00     0.190 C 
BRANCH  33  34
HETATM   34  O5  UNL     1      18.640  28.660  36.568  1.00  0.00    -0.399 OA
ATOM     35  H5  UNL     1      19.467  28.892  36.163  1.00  0.00     0.209 HD
ENDBRANCH  33  34
ENDBRANCH  32  33
ENDBRANCH  31  32
ENDBRANCH   6  31
BRANCH   5  36
HETATM   36  N1  UNL     1      16.319  27.018  35.320  1.00  0.00    -0.070 N 
ATOM     37  H13 UNL     1      16.285  27.128  34.306  1.00  0.00     0.274 HD
ATOM     38  H12 UNL     1      17.228  27.449  35.489  1.00  0.00     0.274 HD
ATOM     39  H11 UNL     1      16.308  26.036  35.595  1.00  0.00     0.274 HD
ENDBRANCH   5  36
TORSDOF 12
ENDMDL
MODEL 2
REMARK VINA RESULT: -5.866288263      3.320      4.543
REMARK  12 active torsions:
REMARK  status: ('A' for Active; 'I' for Inactive)
REMARK    1  A    between atoms: C3_3  and  O1_4 
REMARK    2  A    between atoms: O1_4  and  C4_5 
REMARK    3  A    between atoms: C6_9  and  N1_10 
REMARK    4  A    between atoms: C7_14  and  O4_15 
REMARK    5  A    between atoms: O4_15  and  C8_16 
REMARK    6  A    between atoms: C8_16  and  C9_17 
REMARK    7  A    between atoms: C9_17  and  O5_18 
REMARK    8  A    between atoms: C10_20  and  N2_21 
REMARK       I    between atoms: N2_21  and  C11_23 
REMARK    9  A    between atoms: C13_27  and  N4_28 
REMARK       I    between atoms: N4_28  and  C14_30 
REMARK   10  A    between atoms: C14_30  and  O8_32 
REMARK   11  A    between atoms: O8_32  and  C15_33 
REMARK   12  A    between atoms: C19_37  and  O9_38 
ROOT
HETATM    1  C4  UNL     1      13.305  27.186  37.806  1.00  0.00     0.322 C 
HETATM    2  O2  UNL     1      13.644  26.001  37.169  1.00  0.00    -0.206 OA
HETATM    3  O3  UNL     1      13.367  26.081  35.908  1.00  0.00    -0.236 OA
HETATM    4  C5  UNL     1      13.784  27.223  35.274  1.00  0.00     0.245 C 
HETATM    5  C6  UNL     1      15.201  27.614  35.536  1.00  0.00     0.241 C 
HETATM    6  C7  UNL     1      15.643  27.462  36.954  1.00  0.00     0.181 C 
HETATM    7  C10 UNL     1      14.558  28.038  37.849  1.00  0.00     0.174 C 
ENDROOT
BRANCH   1   8
HETATM    8  O1  UNL     1      12.971  26.903  39.122  1.00  0.00    -0.350 OA
BRANCH   8   9
HETATM    9  C3  UNL     1      11.712  27.269  39.483  1.00  0.00     0.133 C 
HETATM   10  C2  UNL     1      11.549  26.944  40.974  1.00  0.00     0.041 C 
HETATM   11  C1  UNL     1      11.537  25.478  41.240  1.00  0.00     0.015 C 
HETATM   12  C19 UNL     1      10.280  27.657  41.305  1.00  0.00     0.147 C 
HETATM   13  C13 UNL     1      10.181  28.825  40.325  1.00  0.00     0.118 C 
HETATM   14  C12 UNL     1      11.487  28.771  39.520  1.00  0.00     0.060 C 
BRANCH  12  15
HETATM   15  O9  UNL     1       9.198  26.820  41.186  1.00  0.00    -0.393 OA
ATOM     16  H9  UNL     1       8.436  27.290  40.871  1.00  0.00     0.210 HD
ENDBRANCH  12  15
BRANCH  13  17
HETATM   17  N4  UNL     1      10.029  30.055  41.034  1.00  0.00    -0.330 N 
HETATM   18  C14 UNL     1       8.746  30.428  41.496  1.00  0.00     0.361 C 
HETATM   19  O7  UNL     1       7.723  29.702  41.297  1.00  0.00    -0.238 OA
ATOM     20  H4  UNL     1      10.836  30.656  41.206  1.00  0.00     0.165 HD
BRANCH  18  21
HETATM   21  O8  UNL     1       8.499  31.612  42.201  1.00  0.00    -0.294 OA
BRANCH  21  22
HETATM   22  C15 UNL     1       8.996  31.819  43.509  1.00  0.00     0.061 C 
HETATM   23  C16 UNL     1      10.472  32.187  43.485  1.00  0.00     0.046 C 
HETATM   24  C17 UNL     1       8.214  32.963  44.113  1.00  0.00     0.046 C 
HETATM   25  C18 UNL     1       8.853  30.576  44.359  1.00  0.00     0.046 C 
ENDBRANCH  21  22
ENDBRANCH  18  21
ENDBRANCH  13  17
ENDBRANCH   8   9
ENDBRANCH   1   8
BRANCH   7  26
HETATM   26  N2  UNL     1      15.071  28.186  39.198  1.00  0.00    -0.333 N 
HETATM   27  C11 UNL     1      15.032  29.400  39.913  1.00  0.00     0.329 C 
HETATM   28  N3  UNL     1      15.557  29.448  41.222  1.00  0.00    -0.040 NA
HETATM   29  O6  UNL     1      14.540  30.457  39.418  1.00  0.00    -0.251 OA
ATOM     30  H2  UNL     1      15.481  27.370  39.652  1.00  0.00     0.164 HD
ENDBRANCH   7  26
BRANCH   6  31
HETATM   31  O4  UNL     1      16.812  28.160  37.165  1.00  0.00    -0.379 OA
BRANCH  31  32
HETATM   32  C8  UNL     1      17.890  27.338  37.463  1.00  0.00     0.194 C 
BRANCH  32  33
HETATM   33  C9  UNL     1      18.809  28.087  38.410  1.00  0.00     0.190 C 
BRANCH  33  34
HETATM   34  O5  UNL     1      18.162  28.489  39.568  1.00  0.00    -0.399 OA
ATOM     35  H5  UNL     1      18.231  29.425  39.717  1.00  0.00     0.209 HD
ENDBRANCH  33  34
ENDBRANCH  32  33
ENDBRANCH  31  32
ENDBRANCH   6  31
BRANCH   5  36
HETATM   36  N1  UNL     1      16.094  26.921  34.632  1.00  0.00    -0.070 N 
ATOM     37  H13 UNL     1      15.590  26.285  34.015  1.00  0.00     0.274 HD
ATOM     38  H12 UNL     1      16.478  27.548  33.924  1.00  0.00     0.274 HD
ATOM     39  H11 UNL     1      16.829  26.442  35.153  1.00  0.00     0.274 HD
ENDBRANCH   5  36
TORSDOF 12
ENDMDL
MODEL 3
REMARK VINA RESULT: -5.865180253      3.082      4.530
REMARK  12 active torsions:
REMARK  status: ('A' for Active; 'I' for Inactive)
REMARK    1  A    between atoms: C3_3  and  O1_4 
REMARK    2  A    between atoms: O1_4  and  C4_5 
REMARK    3  A    between atoms: C6_9  and  N1_10 
REMARK    4  A    between atoms: C7_14  and  O4_15 
REMARK    5  A    between atoms: O4_15  and  C8_16 
REMARK    6  A    between atoms: C8_16  and  C9_17 
REMARK    7  A    between atoms: C9_17  and  O5_18 
REMARK    8  A    between atoms: C10_20  and  N2_21 
REMARK       I    between atoms: N2_21  and  C11_23 
REMARK    9  A    between atoms: C13_27  and  N4_28 
REMARK       I    between atoms: N4_28  and  C14_30 
REMARK   10  A    between atoms: C14_30  and  O8_32 
REMARK   11  A    between atoms: O8_32  and  C15_33 
REMARK   12  A    between atoms: C19_37  and  O9_38 
ROOT
HETATM    1  C4  UNL     1      12.998  27.349  37.948  1.00  0.00     0.322 C 
HETATM    2  O2  UNL     1      13.483  26.149  37.450  1.00  0.00    -0.206 OA
HETATM    3  O3  UNL     1      13.407  26.142  36.159  1.00  0.00    -0.236 OA
HETATM    4  C5  UNL     1      13.872  27.266  35.525  1.00  0.00     0.245 C 
HETATM    5  C6  UNL     1      15.212  27.743  35.979  1.00  0.00     0.241 C 
HETATM    6  C7  UNL     1      15.429  27.695  37.456  1.00  0.00     0.181 C 
HETATM    7  C10 UNL     1      14.193  28.265  38.131  1.00  0.00     0.174 C 
ENDROOT
BRANCH   1   8
HETATM    8  O1  UNL     1      12.471  27.124  39.212  1.00  0.00    -0.350 OA
BRANCH   8   9
HETATM    9  C3  UNL     1      11.162  27.465  39.353  1.00  0.00     0.133 C 
HETATM   10  C2  UNL     1      10.509  26.412  40.259  1.00  0.00     0.041 C 
HETATM   11  C1  UNL     1      10.417  25.076  39.606  1.00  0.00     0.015 C 
HETATM   12  C19 UNL     1       9.199  27.053  40.576  1.00  0.00     0.147 C 
HETATM   13  C13 UNL     1       9.428  28.561  40.477  1.00  0.00     0.118 C 
HETATM   14  C12 UNL     1      10.929  28.709  40.192  1.00  0.00     0.060 C 
BRANCH  12  15
HETATM   15  O9  UNL     1       8.225  26.644  39.698  1.00  0.00    -0.393 OA
ATOM     16  H9  UNL     1       8.603  26.373  38.870  1.00  0.00     0.210 HD
ENDBRANCH  12  15
BRANCH  13  17
HETATM   17  N4  UNL     1       9.039  29.200  41.693  1.00  0.00    -0.330 N 
HETATM   18  C14 UNL     1       8.300  30.404  41.631  1.00  0.00     0.361 C 
HETATM   19  O7  UNL     1       7.973  30.935  40.524  1.00  0.00    -0.238 OA
ATOM     20  H4  UNL     1       9.291  28.794  42.595  1.00  0.00     0.165 HD
BRANCH  18  21
HETATM   21  O8  UNL     1       7.874  31.102  42.767  1.00  0.00    -0.294 OA
BRANCH  21  22
HETATM   22  C15 UNL     1       8.793  31.688  43.670  1.00  0.00     0.061 C 
HETATM   23  C16 UNL     1       8.309  33.052  44.140  1.00  0.00     0.046 C 
HETATM   24  C17 UNL     1       8.901  30.766  44.864  1.00  0.00     0.046 C 
HETATM   25  C18 UNL     1      10.149  31.885  43.031  1.00  0.00     0.046 C 
ENDBRANCH  21  22
ENDBRANCH  18  21
ENDBRANCH  13  17
ENDBRANCH   8   9
ENDBRANCH   1   8
BRANCH   7  26
HETATM   26  N2  UNL     1      14.478  28.516  39.532  1.00  0.00    -0.333 N 
HETATM   27  C11 UNL     1      14.458  29.801  40.108  1.00  0.00     0.329 C 
HETATM   28  N3  UNL     1      14.751  29.948  41.482  1.00  0.00    -0.040 NA
HETATM   29  O6  UNL     1      14.187  30.838  39.433  1.00  0.00    -0.251 OA
ATOM     30  H2  UNL     1      14.704  27.720  40.129  1.00  0.00     0.164 HD
ENDBRANCH   7  26
BRANCH   6  31
HETATM   31  O4  UNL     1      16.520  28.462  37.801  1.00  0.00    -0.379 OA
BRANCH  31  32
HETATM   32  C8  UNL     1      17.533  27.728  38.400  1.00  0.00     0.194 C 
BRANCH  32  33
HETATM   33  C9  UNL     1      18.819  27.985  37.636  1.00  0.00     0.190 C 
BRANCH  33  34
HETATM   34  O5  UNL     1      18.606  28.688  36.460  1.00  0.00    -0.399 OA
ATOM     35  H5  UNL     1      18.834  29.606  36.539  1.00  0.00     0.209 HD
ENDBRANCH  33  34
ENDBRANCH  32  33
ENDBRANCH  31  32
ENDBRANCH   6  31
BRANCH   5  36
HETATM   36  N1  UNL     1      16.265  27.047  35.273  1.00  0.00    -0.070 N 
ATOM     37  H13 UNL     1      16.601  26.237  35.795  1.00  0.00     0.274 HD
ATOM     38  H12 UNL     1      15.912  26.560  34.449  1.00  0.00     0.274 HD
ATOM     39  H11 UNL     1      17.023  27.688  35.039  1.00  0.00     0.274 HD
ENDBRANCH   5  36
TORSDOF 12
ENDMDL
MODEL 4
REMARK VINA RESULT: -5.802757664      2.432      3.178
REMARK  12 active torsions:
REMARK  status: ('A' for Active; 'I' for Inactive)
REMARK    1  A    between atoms: C3_3  and  O1_4 
REMARK    2  A    between atoms: O1_4  and  C4_5 
REMARK    3  A    between atoms: C6_9  and  N1_10 
REMARK    4  A    between atoms: C7_14  and  O4_15 
REMARK    5  A    between atoms: O4_15  and  C8_16 
REMARK    6  A    between atoms: C8_16  and  C9_17 
REMARK    7  A    between atoms: C9_17  and  O5_18 
REMARK    8  A    between atoms: C10_20  and  N2_21 
REMARK       I    between atoms: N2_21  and  C11_23 
REMARK    9  A    between atoms: C13_27  and  N4_28 
REMARK       I    between atoms: N4_28  and  C14_30 
REMARK   10  A    between atoms: C14_30  and  O8_32 
REMARK   11  A    between atoms: O8_32  and  C15_33 
REMARK   12  A    between atoms: C19_37  and  O9_38 
ROOT
HETATM    1  C4  UNL     1      12.964  27.313  37.766  1.00  0.00     0.322 C 
HETATM    2  O2  UNL     1      13.472  26.114  37.288  1.00  0.00    -0.206 OA
HETATM    3  O3  UNL     1      13.494  26.127  35.995  1.00  0.00    -0.236 OA
HETATM    4  C5  UNL     1      14.017  27.255  35.415  1.00  0.00     0.245 C 
HETATM    5  C6  UNL     1      15.324  27.711  35.976  1.00  0.00     0.241 C 
HETATM    6  C7  UNL     1      15.428  27.639  37.464  1.00  0.00     0.181 C 
HETATM    7  C10 UNL     1      14.150  28.212  38.053  1.00  0.00     0.174 C 
ENDROOT
BRANCH   1   8
HETATM    8  O1  UNL     1      12.340  27.076  38.983  1.00  0.00    -0.350 OA
BRANCH   8   9
HETATM    9  C3  UNL     1      11.067  26.607  38.890  1.00  0.00     0.133 C 
HETATM   10  C2  UNL     1      10.851  25.632  40.055  1.00  0.00     0.041 C 
HETATM   11  C1  UNL     1      11.656  24.385  39.912  1.00  0.00     0.015 C 
HETATM   12  C19 UNL     1       9.372  25.437  40.020  1.00  0.00     0.147 C 
HETATM   13  C13 UNL     1       8.789  26.713  39.413  1.00  0.00     0.118 C 
HETATM   14  C12 UNL     1       9.999  27.637  39.214  1.00  0.00     0.060 C 
BRANCH  12  15
HETATM   15  O9  UNL     1       9.037  24.337  39.269  1.00  0.00    -0.393 OA
ATOM     16  H9  UNL     1       8.112  24.138  39.348  1.00  0.00     0.210 HD
ENDBRANCH  12  15
BRANCH  13  17
HETATM   17  N4  UNL     1       7.813  27.276  40.290  1.00  0.00    -0.330 N 
HETATM   18  C14 UNL     1       6.656  27.873  39.737  1.00  0.00     0.361 C 
HETATM   19  O7  UNL     1       6.461  27.925  38.483  1.00  0.00    -0.238 OA
ATOM     20  H4  UNL     1       7.947  27.248  41.301  1.00  0.00     0.165 HD
BRANCH  18  21
HETATM   21  O8  UNL     1       5.645  28.450  40.514  1.00  0.00    -0.294 OA
BRANCH  21  22
HETATM   22  C15 UNL     1       5.609  29.839  40.779  1.00  0.00     0.061 C 
HETATM   23  C16 UNL     1       4.631  30.550  39.856  1.00  0.00     0.046 C 
HETATM   24  C17 UNL     1       5.151  30.013  42.210  1.00  0.00     0.046 C 
HETATM   25  C18 UNL     1       6.966  30.477  40.579  1.00  0.00     0.046 C 
ENDBRANCH  21  22
ENDBRANCH  18  21
ENDBRANCH  13  17
ENDBRANCH   8   9
ENDBRANCH   1   8
BRANCH   7  26
HETATM   26  N2  UNL     1      14.331  28.439  39.475  1.00  0.00    -0.333 N 
HETATM   27  C11 UNL     1      14.317  29.720  40.063  1.00  0.00     0.329 C 
HETATM   28  N3  UNL     1      14.503  29.843  41.456  1.00  0.00    -0.040 NA
HETATM   29  O6  UNL     1      14.143  30.772  39.379  1.00  0.00    -0.251 OA
ATOM     30  H2  UNL     1      14.476  27.631  40.079  1.00  0.00     0.164 HD
ENDBRANCH   7  26
BRANCH   6  31
HETATM   31  O4  UNL     1      16.497  28.388  37.903  1.00  0.00    -0.379 OA
BRANCH  31  32
HETATM   32  C8  UNL     1      17.458  27.633  38.559  1.00  0.00     0.194 C 
BRANCH  32  33
HETATM   33  C9  UNL     1      18.799  27.891  37.895  1.00  0.00     0.190 C 
BRANCH  33  34
HETATM   34  O5  UNL     1      18.683  28.661  36.748  1.00  0.00    -0.399 OA
ATOM     35  H5  UNL     1      18.374  28.159  36.003  1.00  0.00     0.209 HD
ENDBRANCH  33  34
ENDBRANCH  32  33
ENDBRANCH  31  32
ENDBRANCH   6  31
BRANCH   5  36
HETATM   36  N1  UNL     1      16.420  27.012  35.341  1.00  0.00    -0.070 N 
ATOM     37  H13 UNL     1      16.323  26.000  35.422  1.00  0.00     0.274 HD
ATOM     38  H12 UNL     1      16.380  27.088  34.324  1.00  0.00     0.274 HD
ATOM     39  H11 UNL     1      17.314  27.338  35.710  1.00  0.00     0.274 HD
ENDBRANCH   5  36
TORSDOF 12
ENDMDL
MODEL 5
REMARK VINA RESULT: -5.784299020      1.954      3.264
REMARK  12 active torsions:
REMARK  status: ('A' for Active; 'I' for Inactive)
REMARK    1  A    between atoms: C3_3  and  O1_4 
REMARK    2  A    between atoms: O1_4  and  C4_5 
REMARK    3  A    between atoms: C6_9  and  N1_10 
REMARK    4  A    between atoms: C7_14  and  O4_15 
REMARK    5  A    between atoms: O4_15  and  C8_16 
REMARK    6  A    between atoms: C8_16  and  C9_17 
REMARK    7  A    between atoms: C9_17  and  O5_18 
REMARK    8  A    between atoms: C10_20  and  N2_21 
REMARK       I    between atoms: N2_21  and  C11_23 
REMARK    9  A    between atoms: C13_27  and  N4_28 
REMARK       I    between atoms: N4_28  and  C14_30 
REMARK   10  A    between atoms: C14_30  and  O8_32 
REMARK   11  A    between atoms: O8_32  and  C15_33 
REMARK   12  A    between atoms: C19_37  and  O9_38 
ROOT
HETATM    1  C4  UNL     1      14.571  28.514  39.436  1.00  0.00     0.322 C 
HETATM    2  O2  UNL     1      15.550  29.372  39.914  1.00  0.00    -0.206 OA
HETATM    3  O3  UNL     1      16.200  28.808  40.880  1.00  0.00    -0.236 OA
HETATM    4  C5  UNL     1      16.613  27.520  40.653  1.00  0.00     0.245 C 
HETATM    5  C6  UNL     1      17.297  27.294  39.344  1.00  0.00     0.241 C 
HETATM    6  C7  UNL     1      16.672  27.989  38.180  1.00  0.00     0.181 C 
HETATM    7  C10 UNL     1      15.169  27.775  38.256  1.00  0.00     0.174 C 
ENDROOT
BRANCH   1   8
HETATM    8  O1  UNL     1      13.520  29.273  38.939  1.00  0.00    -0.350 OA
BRANCH   8   9
HETATM    9  C3  UNL     1      12.291  28.915  39.397  1.00  0.00     0.133 C 
HETATM   10  C2  UNL     1      11.736  30.102  40.197  1.00  0.00     0.041 C 
HETATM   11  C1  UNL     1      12.486  30.337  41.463  1.00  0.00     0.015 C 
HETATM   12  C19 UNL     1      10.307  29.710  40.373  1.00  0.00     0.147 C 
HETATM   13  C13 UNL     1       9.964  28.810  39.186  1.00  0.00     0.118 C 
HETATM   14  C12 UNL     1      11.229  28.813  38.316  1.00  0.00     0.060 C 
BRANCH  12  15
HETATM   15  O9  UNL     1      10.119  29.049  41.562  1.00  0.00    -0.393 OA
ATOM     16  H9  UNL     1       9.202  29.041  41.807  1.00  0.00     0.210 HD
ENDBRANCH  12  15
BRANCH  13  17
HETATM   17  N4  UNL     1       8.826  29.321  38.491  1.00  0.00    -0.330 N 
HETATM   18  C14 UNL     1       7.602  28.617  38.565  1.00  0.00     0.361 C 
HETATM   19  O7  UNL     1       7.485  27.541  39.230  1.00  0.00    -0.238 OA
ATOM     20  H4  UNL     1       8.894  30.183  37.949  1.00  0.00     0.165 HD
BRANCH  18  21
HETATM   21  O8  UNL     1       6.433  29.039  37.920  1.00  0.00    -0.294 OA
BRANCH  21  22
HETATM   22  C15 UNL     1       6.193  28.758  36.554  1.00  0.00     0.061 C 
HETATM   23  C16 UNL     1       6.071  27.260  36.314  1.00  0.00     0.046 C 
HETATM   24  C17 UNL     1       4.888  29.424  36.180  1.00  0.00     0.046 C 
HETATM   25  C18 UNL     1       7.315  29.267  35.678  1.00  0.00     0.046 C 
ENDBRANCH  21  22
ENDBRANCH  18  21
ENDBRANCH  13  17
ENDBRANCH   8   9
ENDBRANCH   1   8
BRANCH   7  26
HETATM   26  N2  UNL     1      14.560  28.168  36.999  1.00  0.00    -0.333 N 
HETATM   27  C11 UNL     1      13.750  27.310  36.229  1.00  0.00     0.329 C 
HETATM   28  N3  UNL     1      13.200  27.782  35.017  1.00  0.00    -0.040 NA
HETATM   29  O6  UNL     1      13.497  26.122  36.588  1.00  0.00    -0.251 OA
ATOM     30  H2  UNL     1      14.727  29.114  36.656  1.00  0.00     0.164 HD
ENDBRANCH   7  26
BRANCH   6  31
HETATM   31  O4  UNL     1      17.140  27.455  37.000  1.00  0.00    -0.379 OA
BRANCH  31  32
HETATM   32  C8  UNL     1      18.135  28.222  36.412  1.00  0.00     0.194 C 
BRANCH  32  33
HETATM   33  C9  UNL     1      17.565  28.855  35.155  1.00  0.00     0.190 C 
BRANCH  33  34
HETATM   34  O5  UNL     1      16.508  28.128  34.629  1.00  0.00    -0.399 OA
ATOM     35  H5  UNL     1      15.681  28.334  35.047  1.00  0.00     0.209 HD
ENDBRANCH  33  34
ENDBRANCH  32  33
ENDBRANCH  31  32
ENDBRANCH   6  31
BRANCH   5  36
HETATM   36  N1  UNL     1      18.706  27.609  39.447  1.00  0.00    -0.070 N 
ATOM     37  H13 UNL     1      19.283  26.768  39.437  1.00  0.00     0.274 HD
ATOM     38  H12 UNL     1      19.060  28.046  38.596  1.00  0.00     0.274 HD
ATOM     39  H11 UNL     1      18.885  28.183  40.271  1.00  0.00     0.274 HD
ENDBRANCH   5  36
TORSDOF 12
ENDMDL
