MODEL 1
REMARK VINA RESULT: -6.187611537      0.000      0.000
REMARK  12 active torsions:
REMARK  status: ('A' for Active; 'I' for Inactive)
REMARK       I    between atoms: C2_2  and  N1_4 
REMARK    1  A    between atoms: N1_4  and  C3_6 
REMARK    2  A    between atoms: C4_7  and  S1_8 
REMARK    3  A    between atoms: S1_8  and  C5_9 
REMARK    4  A    between atoms: C6_11  and  C7_12 
REMARK    5  A    between atoms: C7_12  and  S2_13 
REMARK    6  A    between atoms: S2_13  and  C8_14 
REMARK    7  A    between atoms: C8_14  and  C9_15 
REMARK    8  A    between atoms: C9_15  and  C10_16 
REMARK    9  A    between atoms: C11_19  and  O4_20 
REMARK   10  A    between atoms: C12_22  and  O5_23 
REMARK   11  A    between atoms: C14_27  and  O7_28 
REMARK   12  A    between atoms: C15_30  and  O8_31 
ROOT
HETATM    1  C3  UNL     1      11.144  30.582  42.981  1.00  0.00     0.130 C 
HETATM    2  C4  UNL     1      11.459  30.400  41.508  1.00  0.00     0.209 C 
HETATM    3  O6  UNL     1      12.657  31.121  41.445  1.00  0.00    -0.365 OA
HETATM    4  C13 UNL     1      13.452  30.547  42.470  1.00  0.00     0.160 C 
HETATM    5  C14 UNL     1      14.649  31.349  42.732  1.00  0.00     0.176 C 
HETATM    6  C15 UNL     1      14.719  32.085  44.017  1.00  0.00     0.149 C 
HETATM    7  C16 UNL     1      14.179  31.265  45.158  1.00  0.00     0.035 C 
HETATM    8  C17 UNL     1      12.734  30.964  44.853  1.00  0.00     0.012 C 
HETATM    9  C18 UNL     1      12.525  30.251  43.571  1.00  0.00     0.043 C 
ENDROOT
BRANCH   2  10
HETATM   10  S1  UNL     1      11.662  28.684  41.050  1.00  0.00    -0.101 SA
BRANCH  10  11
HETATM   11  C5  UNL     1      12.637  28.497  39.566  1.00  0.00     0.217 C 
HETATM   12  O2  UNL     1      13.309  27.314  39.463  1.00  0.00    -0.364 OA
HETATM   13  C6  UNL     1      13.561  27.071  38.106  1.00  0.00     0.163 C 
HETATM   14  C11 UNL     1      12.902  28.105  37.286  1.00  0.00     0.180 C 
HETATM   15  C12 UNL     1      11.877  28.696  38.284  1.00  0.00     0.188 C 
BRANCH  13  16
HETATM   16  C7  UNL     1      15.008  26.817  37.866  1.00  0.00     0.108 C 
BRANCH  16  17
HETATM   17  S2  UNL     1      16.192  27.932  38.541  1.00  0.00    -0.166 SA
BRANCH  17  18
HETATM   18  C8  UNL     1      17.833  27.908  37.843  1.00  0.00     0.082 C 
BRANCH  18  19
HETATM   19  C9  UNL     1      17.709  27.330  36.426  1.00  0.00     0.109 C 
BRANCH  19  20
HETATM   20  C10 UNL     1      17.462  28.435  35.479  1.00  0.00     0.231 C 
HETATM   21  N2  UNL     1      18.489  29.377  35.235  1.00  0.00    -0.062 NA
HETATM   22  O3  UNL     1      16.371  28.534  34.908  1.00  0.00    -0.277 OA
ENDBRANCH  19  20
ENDBRANCH  18  19
ENDBRANCH  17  18
ENDBRANCH  16  17
ENDBRANCH  13  16
BRANCH  14  23
HETATM   23  O4  UNL     1      12.194  27.506  36.232  1.00  0.00    -0.390 OA
ATOM     24  H4  UNL     1      12.221  28.062  35.462  1.00  0.00     0.210 HD
ENDBRANCH  14  23
BRANCH  15  25
HETATM   25  O5  UNL     1      11.667  30.012  37.943  1.00  0.00    -0.389 OA
ATOM     26  H5  UNL     1      11.964  30.641  38.591  1.00  0.00     0.210 HD
ENDBRANCH  15  25
ENDBRANCH  10  11
ENDBRANCH   2  10
BRANCH   1  27
HETATM   27  N1  UNL     1      10.717  31.894  43.322  1.00  0.00    -0.353 N 
HETATM   28  C2  UNL     1       9.394  32.292  43.596  1.00  0.00     0.214 C 
HETATM   29  C1  UNL     1       9.010  33.680  43.947  1.00  0.00     0.117 C 
HETATM   30  O1  UNL     1       8.484  31.431  43.542  1.00  0.00    -0.274 OA
ATOM     31  H1  UNL     1      11.437  32.615  43.373  1.00  0.00     0.163 HD
ENDBRANCH   1  27
BRANCH   5  32
HETATM   32  O7  UNL     1      14.772  32.313  41.703  1.00  0.00    -0.390 OA
ATOM     33  H7  UNL     1      15.598  32.768  41.818  1.00  0.00     0.210 HD
ENDBRANCH   5  32
BRANCH   6  34
HETATM   34  O8  UNL     1      14.130  33.360  43.960  1.00  0.00    -0.393 OA
ATOM     35  H8  UNL     1      14.425  33.878  43.220  1.00  0.00     0.210 HD
ENDBRANCH   6  34
TORSDOF 12
ENDMDL
MODEL 2
REMARK VINA RESULT: -6.029661153      2.830      7.749
REMARK  12 active torsions:
REMARK  status: ('A' for Active; 'I' for Inactive)
REMARK       I    between atoms: C2_2  and  N1_4 
REMARK    1  A    between atoms: N1_4  and  C3_6 
REMARK    2  A    between atoms: C4_7  and  S1_8 
REMARK    3  A    between atoms: S1_8  and  C5_9 
REMARK    4  A    between atoms: C6_11  and  C7_12 
REMARK    5  A    between atoms: C7_12  and  S2_13 
REMARK    6  A    between atoms: S2_13  and  C8_14 
REMARK    7  A    between atoms: C8_14  and  C9_15 
REMARK    8  A    between atoms: C9_15  and  C10_16 
REMARK    9  A    between atoms: C11_19  and  O4_20 
REMARK   10  A    between atoms: C12_22  and  O5_23 
REMARK   11  A    between atoms: C14_27  and  O7_28 
REMARK   12  A    between atoms: C15_30  and  O8_31 
ROOT
HETATM    1  C3  UNL     1      14.925  27.745  37.811  1.00  0.00     0.130 C 
HETATM    2  C4  UNL     1      14.858  26.907  39.074  1.00  0.00     0.209 C 
HETATM    3  O6  UNL     1      16.033  26.163  38.910  1.00  0.00    -0.365 OA
HETATM    4  C13 UNL     1      17.031  27.150  38.703  1.00  0.00     0.160 C 
HETATM    5  C14 UNL     1      18.289  26.553  38.249  1.00  0.00     0.176 C 
HETATM    6  C15 UNL     1      18.705  26.800  36.848  1.00  0.00     0.149 C 
HETATM    7  C16 UNL     1      18.429  28.219  36.428  1.00  0.00     0.035 C 
HETATM    8  C17 UNL     1      16.941  28.441  36.537  1.00  0.00     0.012 C 
HETATM    9  C18 UNL     1      16.393  28.194  37.891  1.00  0.00     0.043 C 
ENDROOT
BRANCH   2  10
HETATM   10  S1  UNL     1      14.870  27.894  40.563  1.00  0.00    -0.101 SA
BRANCH  10  11
HETATM   11  C5  UNL     1      13.331  28.767  40.803  1.00  0.00     0.217 C 
HETATM   12  O2  UNL     1      12.576  28.328  41.851  1.00  0.00    -0.364 OA
HETATM   13  C6  UNL     1      11.734  29.374  42.252  1.00  0.00     0.163 C 
HETATM   14  C11 UNL     1      12.059  30.593  41.488  1.00  0.00     0.180 C 
HETATM   15  C12 UNL     1      13.467  30.258  40.939  1.00  0.00     0.188 C 
BRANCH  13  16
HETATM   16  C7  UNL     1      10.312  28.936  42.282  1.00  0.00     0.108 C 
BRANCH  16  17
HETATM   17  S2  UNL     1       9.147  29.753  41.245  1.00  0.00    -0.166 SA
BRANCH  17  18
HETATM   18  C8  UNL     1       8.657  28.920  39.746  1.00  0.00     0.082 C 
BRANCH  18  19
HETATM   19  C9  UNL     1       9.203  29.749  38.574  1.00  0.00     0.109 C 
BRANCH  19  20
HETATM   20  C10 UNL     1      10.591  29.331  38.298  1.00  0.00     0.231 C 
HETATM   21  N2  UNL     1      10.927  27.959  38.381  1.00  0.00    -0.062 NA
HETATM   22  O3  UNL     1      11.446  30.170  37.999  1.00  0.00    -0.277 OA
ENDBRANCH  19  20
ENDBRANCH  18  19
ENDBRANCH  17  18
ENDBRANCH  16  17
ENDBRANCH  13  16
BRANCH  14  23
HETATM   23  O4  UNL     1      12.175  31.691  42.356  1.00  0.00    -0.390 OA
ATOM     24  H4  UNL     1      12.645  31.438  43.142  1.00  0.00     0.210 HD
ENDBRANCH  14  23
BRANCH  15  25
HETATM   25  O5  UNL     1      13.627  30.929  39.749  1.00  0.00    -0.389 OA
ATOM     26  H5  UNL     1      13.935  31.824  39.838  1.00  0.00     0.210 HD
ENDBRANCH  15  25
ENDBRANCH  10  11
ENDBRANCH   2  10
BRANCH   1  27
HETATM   27  N1  UNL     1      14.651  27.019  36.621  1.00  0.00    -0.353 N 
HETATM   28  C2  UNL     1      13.779  27.415  35.588  1.00  0.00     0.214 C 
HETATM   29  C1  UNL     1      13.534  26.612  34.367  1.00  0.00     0.117 C 
HETATM   30  O1  UNL     1      13.173  28.507  35.699  1.00  0.00    -0.274 OA
ATOM     31  H1  UNL     1      15.131  26.127  36.504  1.00  0.00     0.163 HD
ENDBRANCH   1  27
BRANCH   5  32
HETATM   32  O7  UNL     1      18.195  25.148  38.403  1.00  0.00    -0.390 OA
ATOM     33  H7  UNL     1      18.126  24.757  37.540  1.00  0.00     0.210 HD
ENDBRANCH   5  32
BRANCH   6  34
HETATM   34  O8  UNL     1      18.174  25.870  35.937  1.00  0.00    -0.393 OA
ATOM     35  H8  UNL     1      17.808  26.272  35.158  1.00  0.00     0.210 HD
ENDBRANCH   6  34
TORSDOF 12
ENDMDL
MODEL 3
REMARK VINA RESULT: -5.983080012      3.192      8.038
REMARK  12 active torsions:
REMARK  status: ('A' for Active; 'I' for Inactive)
REMARK       I    between atoms: C2_2  and  N1_4 
REMARK    1  A    between atoms: N1_4  and  C3_6 
REMARK    2  A    between atoms: C4_7  and  S1_8 
REMARK    3  A    between atoms: S1_8  and  C5_9 
REMARK    4  A    between atoms: C6_11  and  C7_12 
REMARK    5  A    between atoms: C7_12  and  S2_13 
REMARK    6  A    between atoms: S2_13  and  C8_14 
REMARK    7  A    between atoms: C8_14  and  C9_15 
REMARK    8  A    between atoms: C9_15  and  C10_16 
REMARK    9  A    between atoms: C11_19  and  O4_20 
REMARK   10  A    between atoms: C12_22  and  O5_23 
REMARK   11  A    between atoms: C14_27  and  O7_28 
REMARK   12  A    between atoms: C15_30  and  O8_31 
ROOT
HETATM    1  C3  UNL     1      14.534  29.025  39.640  1.00  0.00     0.130 C 
HETATM    2  C4  UNL     1      14.104  30.454  39.912  1.00  0.00     0.209 C 
HETATM    3  O6  UNL     1      12.916  30.473  39.172  1.00  0.00    -0.365 OA
HETATM    4  C13 UNL     1      12.194  29.355  39.663  1.00  0.00     0.160 C 
HETATM    5  C14 UNL     1      11.033  29.055  38.822  1.00  0.00     0.176 C 
HETATM    6  C15 UNL     1      11.074  27.821  38.002  1.00  0.00     0.149 C 
HETATM    7  C16 UNL     1      11.689  26.672  38.757  1.00  0.00     0.035 C 
HETATM    8  C17 UNL     1      13.101  27.067  39.107  1.00  0.00     0.012 C 
HETATM    9  C18 UNL     1      13.199  28.311  39.905  1.00  0.00     0.043 C 
ENDROOT
BRANCH   2  10
HETATM   10  S1  UNL     1      13.839  30.781  41.649  1.00  0.00    -0.101 SA
BRANCH  10  11
HETATM   11  C5  UNL     1      15.332  31.323  42.465  1.00  0.00     0.217 C 
HETATM   12  O2  UNL     1      16.399  30.483  42.335  1.00  0.00    -0.364 OA
HETATM   13  C6  UNL     1      17.570  31.230  42.521  1.00  0.00     0.163 C 
HETATM   14  C11 UNL     1      17.230  32.658  42.660  1.00  0.00     0.180 C 
HETATM   15  C12 UNL     1      15.795  32.701  42.081  1.00  0.00     0.188 C 
BRANCH  13  16
HETATM   16  C7  UNL     1      18.433  30.620  43.569  1.00  0.00     0.108 C 
BRANCH  16  17
HETATM   17  S2  UNL     1      18.292  31.193  45.228  1.00  0.00    -0.166 SA
BRANCH  17  18
HETATM   18  C8  UNL     1      16.672  31.158  45.973  1.00  0.00     0.082 C 
BRANCH  18  19
HETATM   19  C9  UNL     1      16.501  32.480  46.736  1.00  0.00     0.109 C 
BRANCH  19  20
HETATM   20  C10 UNL     1      15.659  33.388  45.934  1.00  0.00     0.231 C 
HETATM   21  N2  UNL     1      14.324  33.017  45.645  1.00  0.00    -0.062 NA
HETATM   22  O3  UNL     1      16.115  34.459  45.521  1.00  0.00    -0.277 OA
ENDBRANCH  19  20
ENDBRANCH  18  19
ENDBRANCH  17  18
ENDBRANCH  16  17
ENDBRANCH  13  16
BRANCH  14  23
HETATM   23  O4  UNL     1      18.060  33.435  41.835  1.00  0.00    -0.390 OA
ATOM     24  H4  UNL     1      18.131  33.037  40.975  1.00  0.00     0.210 HD
ENDBRANCH  14  23
BRANCH  15  25
HETATM   25  O5  UNL     1      15.119  33.726  42.702  1.00  0.00    -0.389 OA
ATOM     26  H5  UNL     1      15.151  34.557  42.242  1.00  0.00     0.210 HD
ENDBRANCH  15  25
ENDBRANCH  10  11
ENDBRANCH   2  10
BRANCH   1  27
HETATM   27  N1  UNL     1      15.006  28.806  38.318  1.00  0.00    -0.353 N 
HETATM   28  C2  UNL     1      16.333  28.508  37.948  1.00  0.00     0.214 C 
HETATM   29  C1  UNL     1      16.765  28.289  36.548  1.00  0.00     0.117 C 
HETATM   30  O1  UNL     1      17.202  28.421  38.847  1.00  0.00    -0.274 OA
ATOM     31  H1  UNL     1      14.320  28.870  37.567  1.00  0.00     0.163 HD
ENDBRANCH   1  27
BRANCH   5  32
HETATM   32  O7  UNL     1      10.845  30.134  37.924  1.00  0.00    -0.390 OA
ATOM     33  H7  UNL     1       9.948  30.109  37.613  1.00  0.00     0.210 HD
ENDBRANCH   5  32
BRANCH   6  34
HETATM   34  O8  UNL     1      11.676  28.007  36.746  1.00  0.00    -0.393 OA
ATOM     35  H8  UNL     1      12.360  27.375  36.559  1.00  0.00     0.210 HD
ENDBRANCH   6  34
TORSDOF 12
ENDMDL
MODEL 4
REMARK VINA RESULT: -5.969876892      2.399      8.685
REMARK  12 active torsions:
REMARK  status: ('A' for Active; 'I' for Inactive)
REMARK       I    between atoms: C2_2  and  N1_4 
REMARK    1  A    between atoms: N1_4  and  C3_6 
REMARK    2  A    between atoms: C4_7  and  S1_8 
REMARK    3  A    between atoms: S1_8  and  C5_9 
REMARK    4  A    between atoms: C6_11  and  C7_12 
REMARK    5  A    between atoms: C7_12  and  S2_13 
REMARK    6  A    between atoms: S2_13  and  C8_14 
REMARK    7  A    between atoms: C8_14  and  C9_15 
REMARK    8  A    between atoms: C9_15  and  C10_16 
REMARK    9  A    between atoms: C11_19  and  O4_20 
REMARK   10  A    between atoms: C12_22  and  O5_23 
REMARK   11  A    between atoms: C14_27  and  O7_28 
REMARK   12  A    between atoms: C15_30  and  O8_31 
ROOT
HETATM    1  C3  UNL     1      14.915  27.666  37.727  1.00  0.00     0.130 C 
HETATM    2  C4  UNL     1      14.838  26.811  38.978  1.00  0.00     0.209 C 
HETATM    3  O6  UNL     1      16.025  26.085  38.824  1.00  0.00    -0.365 OA
HETATM    4  C13 UNL     1      17.014  27.086  38.646  1.00  0.00     0.160 C 
HETATM    5  C14 UNL     1      18.286  26.510  38.206  1.00  0.00     0.176 C 
HETATM    6  C15 UNL     1      18.722  26.780  36.815  1.00  0.00     0.149 C 
HETATM    7  C16 UNL     1      18.435  28.201  36.408  1.00  0.00     0.035 C 
HETATM    8  C17 UNL     1      16.943  28.402  36.495  1.00  0.00     0.012 C 
HETATM    9  C18 UNL     1      16.376  28.132  37.837  1.00  0.00     0.043 C 
ENDROOT
BRANCH   2  10
HETATM   10  S1  UNL     1      14.813  27.780  40.479  1.00  0.00    -0.101 SA
BRANCH  10  11
HETATM   11  C5  UNL     1      13.431  28.910  40.526  1.00  0.00     0.217 C 
HETATM   12  O2  UNL     1      12.319  28.436  41.159  1.00  0.00    -0.364 OA
HETATM   13  C6  UNL     1      11.562  29.532  41.594  1.00  0.00     0.163 C 
HETATM   14  C11 UNL     1      12.299  30.782  41.326  1.00  0.00     0.180 C 
HETATM   15  C12 UNL     1      13.740  30.260  41.111  1.00  0.00     0.188 C 
BRANCH  13  16
HETATM   16  C7  UNL     1      10.158  29.441  41.109  1.00  0.00     0.108 C 
BRANCH  16  17
HETATM   17  S2  UNL     1       8.919  30.410  41.900  1.00  0.00    -0.166 SA
BRANCH  17  18
HETATM   18  C8  UNL     1       9.027  30.593  43.671  1.00  0.00     0.082 C 
BRANCH  18  19
HETATM   19  C9  UNL     1       8.360  31.931  44.025  1.00  0.00     0.109 C 
BRANCH  19  20
HETATM   20  C10 UNL     1       9.402  32.970  44.133  1.00  0.00     0.231 C 
HETATM   21  N2  UNL     1      10.679  32.617  44.630  1.00  0.00    -0.062 NA
HETATM   22  O3  UNL     1       9.160  34.132  43.792  1.00  0.00    -0.277 OA
ENDBRANCH  19  20
ENDBRANCH  18  19
ENDBRANCH  17  18
ENDBRANCH  16  17
ENDBRANCH  13  16
BRANCH  14  23
HETATM   23  O4  UNL     1      12.294  31.601  42.466  1.00  0.00    -0.390 OA
ATOM     24  H4  UNL     1      11.403  31.844  42.690  1.00  0.00     0.210 HD
ENDBRANCH  14  23
BRANCH  15  25
HETATM   25  O5  UNL     1      14.378  31.123  40.250  1.00  0.00    -0.389 OA
ATOM     26  H5  UNL     1      14.584  31.973  40.623  1.00  0.00     0.210 HD
ENDBRANCH  15  25
ENDBRANCH  10  11
ENDBRANCH   2  10
BRANCH   1  27
HETATM   27  N1  UNL     1      14.670  26.951  36.523  1.00  0.00    -0.353 N 
HETATM   28  C2  UNL     1      13.805  27.346  35.483  1.00  0.00     0.214 C 
HETATM   29  C1  UNL     1      13.591  26.556  34.249  1.00  0.00     0.117 C 
HETATM   30  O1  UNL     1      13.179  28.426  35.601  1.00  0.00    -0.274 OA
ATOM     31  H1  UNL     1      15.167  26.069  36.401  1.00  0.00     0.163 HD
ENDBRANCH   1  27
BRANCH   5  32
HETATM   32  O7  UNL     1      18.208  25.103  38.342  1.00  0.00    -0.390 OA
ATOM     33  H7  UNL     1      18.244  24.717  37.474  1.00  0.00     0.210 HD
ENDBRANCH   5  32
BRANCH   6  34
HETATM   34  O8  UNL     1      18.218  25.855  35.885  1.00  0.00    -0.393 OA
ATOM     35  H8  UNL     1      18.604  24.990  35.967  1.00  0.00     0.210 HD
ENDBRANCH   6  34
TORSDOF 12
ENDMDL
MODEL 5
REMARK VINA RESULT: -5.966410649      4.923      8.062
REMARK  12 active torsions:
REMARK  status: ('A' for Active; 'I' for Inactive)
REMARK       I    between atoms: C2_2  and  N1_4 
REMARK    1  A    between atoms: N1_4  and  C3_6 
REMARK    2  A    between atoms: C4_7  and  S1_8 
REMARK    3  A    between atoms: S1_8  and  C5_9 
REMARK    4  A    between atoms: C6_11  and  C7_12 
REMARK    5  A    between atoms: C7_12  and  S2_13 
REMARK    6  A    between atoms: S2_13  and  C8_14 
REMARK    7  A    between atoms: C8_14  and  C9_15 
REMARK    8  A    between atoms: C9_15  and  C10_16 
REMARK    9  A    between atoms: C11_19  and  O4_20 
REMARK   10  A    between atoms: C12_22  and  O5_23 
REMARK   11  A    between atoms: C14_27  and  O7_28 
REMARK   12  A    between atoms: C15_30  and  O8_31 
ROOT
HETATM    1  C3  UNL     1       6.724  27.882  36.566  1.00  0.00     0.130 C 
HETATM    2  C4  UNL     1       8.049  27.410  37.135  1.00  0.00     0.209 C 
HETATM    3  O6  UNL     1       8.528  26.702  36.026  1.00  0.00    -0.365 OA
HETATM    4  C13 UNL     1       8.447  27.640  34.965  1.00  0.00     0.160 C 
HETATM    5  C14 UNL     1       8.658  26.999  33.666  1.00  0.00     0.176 C 
HETATM    6  C15 UNL     1       7.494  26.880  32.756  1.00  0.00     0.149 C 
HETATM    7  C16 UNL     1       6.643  28.122  32.778  1.00  0.00     0.035 C 
HETATM    8  C17 UNL     1       6.138  28.299  34.187  1.00  0.00     0.012 C 
HETATM    9  C18 UNL     1       7.212  28.400  35.203  1.00  0.00     0.043 C 
ENDROOT
BRANCH   2  10
HETATM   10  S1  UNL     1       9.121  28.759  37.607  1.00  0.00    -0.101 SA
BRANCH  10  11
HETATM   11  C5  UNL     1      10.748  28.192  38.076  1.00  0.00     0.217 C 
HETATM   12  O2  UNL     1      11.530  27.766  37.043  1.00  0.00    -0.364 OA
HETATM   13  C6  UNL     1      12.871  27.873  37.435  1.00  0.00     0.163 C 
HETATM   14  C11 UNL     1      12.950  28.521  38.758  1.00  0.00     0.180 C 
HETATM   15  C12 UNL     1      11.554  29.180  38.872  1.00  0.00     0.188 C 
BRANCH  13  16
HETATM   16  C7  UNL     1      13.587  26.581  37.256  1.00  0.00     0.108 C 
BRANCH  16  17
HETATM   17  S2  UNL     1      14.731  26.062  38.490  1.00  0.00    -0.166 SA
BRANCH  17  18
HETATM   18  C8  UNL     1      16.386  26.721  38.404  1.00  0.00     0.082 C 
BRANCH  18  19
HETATM   19  C9  UNL     1      16.712  26.922  36.917  1.00  0.00     0.109 C 
BRANCH  19  20
HETATM   20  C10 UNL     1      16.736  28.368  36.624  1.00  0.00     0.231 C 
HETATM   21  N2  UNL     1      16.934  28.798  35.291  1.00  0.00    -0.062 NA
HETATM   22  O3  UNL     1      16.583  29.190  37.533  1.00  0.00    -0.277 OA
ENDBRANCH  19  20
ENDBRANCH  18  19
ENDBRANCH  17  18
ENDBRANCH  16  17
ENDBRANCH  13  16
BRANCH  14  23
HETATM   23  O4  UNL     1      13.917  29.540  38.740  1.00  0.00    -0.390 OA
ATOM     24  H4  UNL     1      14.787  29.166  38.810  1.00  0.00     0.210 HD
ENDBRANCH  14  23
BRANCH  15  25
HETATM   25  O5  UNL     1      11.225  29.244  40.207  1.00  0.00    -0.389 OA
ATOM     26  H5  UNL     1      11.967  29.202  40.799  1.00  0.00     0.210 HD
ENDBRANCH  15  25
ENDBRANCH  10  11
ENDBRANCH   2  10
BRANCH   1  27
HETATM   27  N1  UNL     1       5.754  26.852  36.431  1.00  0.00    -0.353 N 
HETATM   28  C2  UNL     1       4.476  26.831  37.024  1.00  0.00     0.214 C 
HETATM   29  C1  UNL     1       3.506  25.726  36.845  1.00  0.00     0.117 C 
HETATM   30  O1  UNL     1       4.132  27.798  37.744  1.00  0.00    -0.274 OA
ATOM     31  H1  UNL     1       6.007  26.053  35.851  1.00  0.00     0.163 HD
ENDBRANCH   1  27
BRANCH   5  32
HETATM   32  O7  UNL     1       9.134  25.684  33.891  1.00  0.00    -0.390 OA
ATOM     33  H7  UNL     1      10.072  25.677  33.738  1.00  0.00     0.210 HD
ENDBRANCH   5  32
BRANCH   6  34
HETATM   34  O8  UNL     1       6.734  25.718  32.974  1.00  0.00    -0.393 OA
ATOM     35  H8  UNL     1       6.908  25.031  32.341  1.00  0.00     0.210 HD
ENDBRANCH   6  34
TORSDOF 12
ENDMDL
