MODEL 1
REMARK VINA RESULT: -6.985613708      0.000      0.000
REMARK  3 active torsions:
REMARK  status: ('A' for Active; 'I' for Inactive)
REMARK    1  A    between atoms: N1_1  and  C1_4 
REMARK    2  A    between atoms: N3_7  and  C2_8 
REMARK    3  A    between atoms: N4_16  and  O2_17 
ROOT
HETATM    1  C1  UNL     1       6.247  18.862  34.870  1.00  0.00     0.186 A 
HETATM    2  N2  UNL     1       5.841  20.110  34.697  1.00  0.00    -0.270 N 
ATOM      3  H2  UNL     1       4.972  20.263  34.185  1.00  0.00     0.189 HD
HETATM    4  N3  UNL     1       6.496  21.181  35.152  1.00  0.00    -0.202 N 
HETATM    5  C8  UNL     1       7.641  20.932  35.824  1.00  0.00     0.375 A 
HETATM    6  O1  UNL     1       8.313  21.872  36.281  1.00  0.00    -0.242 OA
HETATM    7  N4  UNL     1       8.096  19.683  36.026  1.00  0.00    -0.129 N 
HETATM    8  C9  UNL     1       7.418  18.622  35.558  1.00  0.00     0.320 A 
HETATM    9  O3  UNL     1       7.843  17.444  35.746  1.00  0.00    -0.261 OA
ENDROOT
BRANCH   4  10
HETATM   10  C2  UNL     1       6.004  22.498  34.932  1.00  0.00     0.061 A 
HETATM   11  C3  UNL     1       6.230  23.534  35.793  1.00  0.00     0.032 A 
HETATM   12  C4  UNL     1       5.748  24.819  35.577  1.00  0.00     0.002 A 
HETATM   13  C5  UNL     1       5.010  25.045  34.437  1.00  0.00     0.000 A 
HETATM   14  C6  UNL     1       4.751  24.030  33.530  1.00  0.00     0.002 A 
HETATM   15  C7  UNL     1       5.259  22.767  33.801  1.00  0.00     0.032 A 
ENDBRANCH   4  10
BRANCH   1  16
HETATM   16  N1  UNL     1       5.592  17.844  34.419  1.00  0.00    -0.380 N 
ATOM     17  H12 UNL     1       4.580  17.832  34.550  1.00  0.00     0.158 HD
ATOM     18  H11 UNL     1       6.044  17.063  33.944  1.00  0.00     0.158 HD
ENDBRANCH   1  16
BRANCH   7  19
HETATM   19  O2  UNL     1       9.262  19.452  36.711  1.00  0.00    -0.276 OA
ATOM     20  H2  UNL     1       9.465  18.593  37.064  1.00  0.00     0.245 HD
ENDBRANCH   7  19
TORSDOF 3
ENDMDL
MODEL 2
REMARK VINA RESULT: -6.774683053      1.664      2.594
REMARK  3 active torsions:
REMARK  status: ('A' for Active; 'I' for Inactive)
REMARK    1  A    between atoms: N1_1  and  C1_4 
REMARK    2  A    between atoms: N3_7  and  C2_8 
REMARK    3  A    between atoms: N4_16  and  O2_17 
ROOT
HETATM    1  C1  UNL     1       7.972  19.709  36.154  1.00  0.00     0.186 A 
HETATM    2  N2  UNL     1       7.535  20.890  35.744  1.00  0.00    -0.270 N 
ATOM      3  H2  UNL     1       8.226  21.613  35.546  1.00  0.00     0.189 HD
HETATM    4  N3  UNL     1       6.246  21.194  35.573  1.00  0.00    -0.202 N 
HETATM    5  C8  UNL     1       5.365  20.207  35.847  1.00  0.00     0.375 A 
HETATM    6  O1  UNL     1       4.145  20.405  35.714  1.00  0.00    -0.242 OA
HETATM    7  N4  UNL     1       5.759  18.991  36.266  1.00  0.00    -0.129 N 
HETATM    8  C9  UNL     1       7.062  18.711  36.430  1.00  0.00     0.320 A 
HETATM    9  O3  UNL     1       7.436  17.568  36.824  1.00  0.00    -0.261 OA
ENDROOT
BRANCH   4  10
HETATM   10  C2  UNL     1       5.842  22.484  35.128  1.00  0.00     0.061 A 
HETATM   11  C3  UNL     1       5.212  22.701  33.936  1.00  0.00     0.032 A 
HETATM   12  C4  UNL     1       4.818  23.961  33.503  1.00  0.00     0.002 A 
HETATM   13  C5  UNL     1       5.083  25.033  34.325  1.00  0.00     0.000 A 
HETATM   14  C6  UNL     1       5.720  24.870  35.545  1.00  0.00     0.002 A 
HETATM   15  C7  UNL     1       6.089  23.586  35.923  1.00  0.00     0.032 A 
ENDBRANCH   4  10
BRANCH   1  16
HETATM   16  N1  UNL     1       9.226  19.444  36.311  1.00  0.00    -0.380 N 
ATOM     17  H12 UNL     1       9.883  20.225  36.314  1.00  0.00     0.158 HD
ATOM     18  H11 UNL     1       9.579  18.495  36.429  1.00  0.00     0.158 HD
ENDBRANCH   1  16
BRANCH   7  19
HETATM   19  O2  UNL     1       4.847  18.003  36.539  1.00  0.00    -0.276 OA
ATOM     20  H2  UNL     1       5.100  17.214  37.004  1.00  0.00     0.245 HD
ENDBRANCH   7  19
TORSDOF 3
ENDMDL
MODEL 3
REMARK VINA RESULT: -6.737266604      1.937      4.901
REMARK  3 active torsions:
REMARK  status: ('A' for Active; 'I' for Inactive)
REMARK    1  A    between atoms: N1_1  and  C1_4 
REMARK    2  A    between atoms: N3_7  and  C2_8 
REMARK    3  A    between atoms: N4_16  and  O2_17 
ROOT
HETATM    1  C1  UNL     1       5.299  23.330  35.823  1.00  0.00     0.186 A 
HETATM    2  N2  UNL     1       5.019  22.079  35.492  1.00  0.00    -0.270 N 
ATOM      3  H2  UNL     1       4.104  21.885  35.088  1.00  0.00     0.189 HD
HETATM    4  N3  UNL     1       5.861  21.055  35.654  1.00  0.00    -0.202 N 
HETATM    5  C8  UNL     1       7.062  21.358  36.192  1.00  0.00     0.375 A 
HETATM    6  O1  UNL     1       7.906  20.463  36.377  1.00  0.00    -0.242 OA
HETATM    7  N4  UNL     1       7.394  22.612  36.544  1.00  0.00    -0.129 N 
HETATM    8  C9  UNL     1       6.529  23.625  36.372  1.00  0.00     0.320 A 
HETATM    9  O3  UNL     1       6.838  24.807  36.701  1.00  0.00    -0.261 OA
ENDROOT
BRANCH   4  10
HETATM   10  C2  UNL     1       5.498  19.732  35.276  1.00  0.00     0.061 A 
HETATM   11  C3  UNL     1       6.308  18.916  34.538  1.00  0.00     0.032 A 
HETATM   12  C4  UNL     1       5.952  17.624  34.171  1.00  0.00     0.002 A 
HETATM   13  C5  UNL     1       4.722  17.158  34.576  1.00  0.00     0.000 A 
HETATM   14  C6  UNL     1       3.862  17.943  35.327  1.00  0.00     0.002 A 
HETATM   15  C7  UNL     1       4.273  19.225  35.663  1.00  0.00     0.032 A 
ENDBRANCH   4  10
BRANCH   1  16
HETATM   16  N1  UNL     1       4.464  24.301  35.654  1.00  0.00    -0.380 N 
ATOM     17  H12 UNL     1       4.580  24.893  34.832  1.00  0.00     0.158 HD
ATOM     18  H11 UNL     1       3.704  24.494  36.306  1.00  0.00     0.158 HD
ENDBRANCH   1  16
BRANCH   7  19
HETATM   19  O2  UNL     1       8.621  22.898  37.090  1.00  0.00    -0.276 OA
ATOM     20  H2  UNL     1       8.873  23.790  37.297  1.00  0.00     0.245 HD
ENDBRANCH   7  19
TORSDOF 3
ENDMDL
MODEL 4
REMARK VINA RESULT: -6.707217783      2.163      4.986
REMARK  3 active torsions:
REMARK  status: ('A' for Active; 'I' for Inactive)
REMARK    1  A    between atoms: N1_1  and  C1_4 
REMARK    2  A    between atoms: N3_7  and  C2_8 
REMARK    3  A    between atoms: N4_16  and  O2_17 
ROOT
HETATM    1  C1  UNL     1       4.945  23.372  35.558  1.00  0.00     0.186 A 
HETATM    2  N2  UNL     1       4.656  22.088  35.410  1.00  0.00    -0.270 N 
ATOM      3  H2  UNL     1       3.765  21.846  34.977  1.00  0.00     0.189 HD
HETATM    4  N3  UNL     1       5.457  21.090  35.792  1.00  0.00    -0.202 N 
HETATM    5  C8  UNL     1       6.626  21.457  36.362  1.00  0.00     0.375 A 
HETATM    6  O1  UNL     1       7.430  20.591  36.746  1.00  0.00    -0.242 OA
HETATM    7  N4  UNL     1       6.966  22.746  36.534  1.00  0.00    -0.129 N 
HETATM    8  C9  UNL     1       6.142  23.731  36.141  1.00  0.00     0.320 A 
HETATM    9  O3  UNL     1       6.458  24.947  36.302  1.00  0.00    -0.261 OA
ENDROOT
BRANCH   4  10
HETATM   10  C2  UNL     1       5.086  19.729  35.603  1.00  0.00     0.061 A 
HETATM   11  C3  UNL     1       4.299  19.040  36.482  1.00  0.00     0.032 A 
HETATM   12  C4  UNL     1       3.937  17.712  36.296  1.00  0.00     0.002 A 
HETATM   13  C5  UNL     1       4.402  17.072  35.169  1.00  0.00     0.000 A 
HETATM   14  C6  UNL     1       5.203  17.724  34.244  1.00  0.00     0.002 A 
HETATM   15  C7  UNL     1       5.530  19.051  34.486  1.00  0.00     0.032 A 
ENDBRANCH   4  10
BRANCH   1  16
HETATM   16  N1  UNL     1       4.150  24.316  35.179  1.00  0.00    -0.380 N 
ATOM     17  H12 UNL     1       3.904  24.364  34.190  1.00  0.00     0.158 HD
ATOM     18  H11 UNL     1       3.765  25.006  35.823  1.00  0.00     0.158 HD
ENDBRANCH   1  16
BRANCH   7  19
HETATM   19  O2  UNL     1       8.158  23.097  37.116  1.00  0.00    -0.276 OA
ATOM     20  H2  UNL     1       8.505  23.978  37.037  1.00  0.00     0.245 HD
ENDBRANCH   7  19
TORSDOF 3
ENDMDL
MODEL 5
REMARK VINA RESULT: -6.622993885      1.839      2.253
REMARK  3 active torsions:
REMARK  status: ('A' for Active; 'I' for Inactive)
REMARK    1  A    between atoms: N1_1  and  C1_4 
REMARK    2  A    between atoms: N3_7  and  C2_8 
REMARK    3  A    between atoms: N4_16  and  O2_17 
ROOT
HETATM    1  C1  UNL     1       5.568  18.993  37.658  1.00  0.00     0.186 A 
HETATM    2  N2  UNL     1       5.365  20.197  37.143  1.00  0.00    -0.270 N 
ATOM      3  H2  UNL     1       4.621  20.767  37.543  1.00  0.00     0.189 HD
HETATM    4  N3  UNL     1       6.074  20.710  36.135  1.00  0.00    -0.202 N 
HETATM    5  C8  UNL     1       7.049  19.919  35.636  1.00  0.00     0.375 A 
HETATM    6  O1  UNL     1       7.757  20.320  34.697  1.00  0.00    -0.242 OA
HETATM    7  N4  UNL     1       7.294  18.690  36.124  1.00  0.00    -0.129 N 
HETATM    8  C9  UNL     1       6.567  18.197  37.139  1.00  0.00     0.320 A 
HETATM    9  O3  UNL     1       6.794  17.040  37.601  1.00  0.00    -0.261 OA
ENDROOT
BRANCH   4  10
HETATM   10  C2  UNL     1       5.805  22.012  35.629  1.00  0.00     0.061 A 
HETATM   11  C3  UNL     1       5.126  22.236  34.464  1.00  0.00     0.032 A 
HETATM   12  C4  UNL     1       4.864  23.508  33.972  1.00  0.00     0.002 A 
HETATM   13  C5  UNL     1       5.316  24.585  34.701  1.00  0.00     0.000 A 
HETATM   14  C6  UNL     1       6.009  24.414  35.889  1.00  0.00     0.002 A 
HETATM   15  C7  UNL     1       6.241  23.119  36.330  1.00  0.00     0.032 A 
ENDBRANCH   4  10
BRANCH   1  16
HETATM   16  N1  UNL     1       4.865  18.523  38.634  1.00  0.00    -0.380 N 
ATOM     17  H12 UNL     1       3.860  18.419  38.493  1.00  0.00     0.158 HD
ATOM     18  H11 UNL     1       5.274  18.256  39.530  1.00  0.00     0.158 HD
ENDBRANCH   1  16
BRANCH   7  19
HETATM   19  O2  UNL     1       8.290  17.903  35.602  1.00  0.00    -0.276 OA
ATOM     20  H2  UNL     1       8.886  17.422  36.166  1.00  0.00     0.245 HD
ENDBRANCH   7  19
TORSDOF 3
ENDMDL
