MODEL 1
REMARK VINA RESULT: -8.315384024      0.000      0.000
REMARK  5 active torsions:
REMARK  status: ('A' for Active; 'I' for Inactive)
REMARK    1  A    between atoms: C2_2  and  O1_3 
REMARK    2  A    between atoms: C2_2  and  C3_5 
REMARK    3  A    between atoms: C2_2  and  C4_12 
REMARK       I    between atoms: C3_5  and  N1_7 
REMARK    4  A    between atoms: N1_7  and  N2_9 
REMARK       I    between atoms: C4_12  and  N3_14 
REMARK    5  A    between atoms: N3_14  and  N4_16 
REMARK       I    between atoms: N4_16  and  C5_18 
REMARK       I    between atoms: C5_18  and  N5_20 
ROOT
HETATM    1  C4  UNL     1       7.326   2.146  91.762  1.00  0.00     0.280 C 
HETATM    2  O3  UNL     1       6.690   1.078  91.470  1.00  0.00    -0.268 OA
HETATM    3  N3  UNL     1       6.934   2.943  92.873  1.00  0.00    -0.263 N 
ATOM      4  H3  UNL     1       7.443   3.795  93.105  1.00  0.00     0.190 HD
ENDROOT
BRANCH   3   5
HETATM    5  N4  UNL     1       5.844   2.543  93.640  1.00  0.00    -0.249 N 
HETATM    6  C5  UNL     1       5.975   2.127  94.986  1.00  0.00     0.337 C 
HETATM    7  O4  UNL     1       7.113   2.105  95.559  1.00  0.00    -0.245 OA
HETATM    8  N5  UNL     1       4.869   1.721  95.758  1.00  0.00    -0.330 N 
HETATM    9  C6  UNL     1       5.022   1.317  97.129  1.00  0.00     0.155 C 
HETATM   10  C9  UNL     1       3.558   1.692  95.167  1.00  0.00     0.155 C 
HETATM   11  C7  UNL     1       4.022   0.179  97.337  1.00  0.00     0.252 C 
HETATM   12  N6  UNL     1       2.696   0.734  97.256  1.00  0.00    -0.072 N 
HETATM   13  C8  UNL     1       2.571   1.835  96.332  1.00  0.00     0.252 C 
ATOM     14  H62 UNL     1       2.017   0.005  97.037  1.00  0.00     0.277 HD
ATOM     15  H61 UNL     1       2.365   1.006  98.182  1.00  0.00     0.277 HD
ATOM     16  H4  UNL     1       4.916   2.548  93.216  1.00  0.00     0.192 HD
ENDBRANCH   3   5
BRANCH   1  17
HETATM   17  C2  UNL     1       8.468   2.469  90.867  1.00  0.00     0.218 C 
HETATM   18  C1  UNL     1       9.379   3.415  91.615  1.00  0.00     0.067 C 
BRANCH  17  19
HETATM   19  O1  UNL     1       8.019   3.005  89.659  1.00  0.00    -0.372 OA
ATOM     20  H1  UNL     1       8.356   2.534  88.906  1.00  0.00     0.211 HD
ENDBRANCH  17  19
BRANCH  17  21
HETATM   21  C3  UNL     1       9.185   1.169  90.611  1.00  0.00     0.279 C 
HETATM   22  O2  UNL     1      10.137   0.883  91.391  1.00  0.00    -0.268 OA
HETATM   23  N1  UNL     1       8.856   0.283  89.577  1.00  0.00    -0.274 N 
ATOM     24  H1  UNL     1       8.089   0.497  88.940  1.00  0.00     0.189 HD
BRANCH  23  25
HETATM   25  N2  UNL     1       9.602  -0.918  89.425  1.00  0.00    -0.343 N 
ATOM     26  H22 UNL     1      10.568  -0.952  89.754  1.00  0.00     0.176 HD
ATOM     27  H21 UNL     1       9.162  -1.728  88.989  1.00  0.00     0.176 HD
ENDBRANCH  23  25
ENDBRANCH  17  21
ENDBRANCH   1  17
TORSDOF 5
ENDMDL
MODEL 2
REMARK VINA RESULT: -8.151481107      4.297      5.256
REMARK  5 active torsions:
REMARK  status: ('A' for Active; 'I' for Inactive)
REMARK    1  A    between atoms: C2_2  and  O1_3 
REMARK    2  A    between atoms: C2_2  and  C3_5 
REMARK    3  A    between atoms: C2_2  and  C4_12 
REMARK       I    between atoms: C3_5  and  N1_7 
REMARK    4  A    between atoms: N1_7  and  N2_9 
REMARK       I    between atoms: C4_12  and  N3_14 
REMARK    5  A    between atoms: N3_14  and  N4_16 
REMARK       I    between atoms: N4_16  and  C5_18 
REMARK       I    between atoms: C5_18  and  N5_20 
ROOT
HETATM    1  C4  UNL     1       8.459   1.856  90.526  1.00  0.00     0.280 C 
HETATM    2  O3  UNL     1       9.438   1.669  91.324  1.00  0.00    -0.268 OA
HETATM    3  N3  UNL     1       7.818   3.123  90.449  1.00  0.00    -0.263 N 
ATOM      4  H3  UNL     1       7.036   3.270  89.810  1.00  0.00     0.190 HD
ENDROOT
BRANCH   3   5
HETATM    5  N4  UNL     1       8.273   4.160  91.257  1.00  0.00    -0.249 N 
HETATM    6  C5  UNL     1       7.623   4.524  92.460  1.00  0.00     0.337 C 
HETATM    7  O4  UNL     1       6.582   3.907  92.859  1.00  0.00    -0.245 OA
HETATM    8  N5  UNL     1       8.086   5.576  93.275  1.00  0.00    -0.330 N 
HETATM    9  C6  UNL     1       7.421   5.921  94.501  1.00  0.00     0.155 C 
HETATM   10  C9  UNL     1       9.238   6.338  92.872  1.00  0.00     0.155 C 
HETATM   11  C7  UNL     1       7.511   7.444  94.605  1.00  0.00     0.252 C 
HETATM   12  N6  UNL     1       8.892   7.793  94.818  1.00  0.00    -0.072 N 
HETATM   13  C8  UNL     1       9.831   6.914  94.163  1.00  0.00     0.252 C 
ATOM     14  H62 UNL     1       9.061   8.762  94.549  1.00  0.00     0.277 HD
ATOM     15  H61 UNL     1       9.096   7.852  95.816  1.00  0.00     0.277 HD
ATOM     16  H4  UNL     1       9.104   4.678  90.972  1.00  0.00     0.192 HD
ENDBRANCH   3   5
BRANCH   1  17
HETATM   17  C2  UNL     1       8.064   0.671  89.719  1.00  0.00     0.218 C 
HETATM   18  C1  UNL     1       8.669  -0.548  90.375  1.00  0.00     0.067 C 
BRANCH  17  19
HETATM   19  O1  UNL     1       8.465   0.816  88.390  1.00  0.00    -0.372 OA
ATOM     20  H1  UNL     1       7.739   1.014  87.811  1.00  0.00     0.211 HD
ENDBRANCH  17  19
BRANCH  17  21
HETATM   21  C3  UNL     1       6.561   0.594  89.790  1.00  0.00     0.279 C 
HETATM   22  O2  UNL     1       6.020   1.043  90.840  1.00  0.00    -0.268 OA
HETATM   23  N1  UNL     1       5.754   0.063  88.775  1.00  0.00    -0.274 N 
ATOM     24  H1  UNL     1       6.174  -0.301  87.921  1.00  0.00     0.189 HD
BRANCH  23  25
HETATM   25  N2  UNL     1       4.342   0.038  88.950  1.00  0.00    -0.343 N 
ATOM     26  H22 UNL     1       3.896   0.758  89.517  1.00  0.00     0.176 HD
ATOM     27  H21 UNL     1       3.798  -0.701  88.505  1.00  0.00     0.176 HD
ENDBRANCH  23  25
ENDBRANCH  17  21
ENDBRANCH   1  17
TORSDOF 5
ENDMDL
MODEL 3
REMARK VINA RESULT: -8.085376129      3.238      7.076
REMARK  5 active torsions:
REMARK  status: ('A' for Active; 'I' for Inactive)
REMARK    1  A    between atoms: C2_2  and  O1_3 
REMARK    2  A    between atoms: C2_2  and  C3_5 
REMARK    3  A    between atoms: C2_2  and  C4_12 
REMARK       I    between atoms: C3_5  and  N1_7 
REMARK    4  A    between atoms: N1_7  and  N2_9 
REMARK       I    between atoms: C4_12  and  N3_14 
REMARK    5  A    between atoms: N3_14  and  N4_16 
REMARK       I    between atoms: N4_16  and  C5_18 
REMARK       I    between atoms: C5_18  and  N5_20 
ROOT
HETATM    1  C4  UNL     1       5.404   1.975  95.820  1.00  0.00     0.280 C 
HETATM    2  O3  UNL     1       6.050   2.276  96.881  1.00  0.00    -0.268 OA
HETATM    3  N3  UNL     1       5.544   2.756  94.640  1.00  0.00    -0.263 N 
ATOM      4  H3  UNL     1       5.027   2.514  93.795  1.00  0.00     0.190 HD
ENDROOT
BRANCH   3   5
HETATM    5  N4  UNL     1       6.395   3.857  94.656  1.00  0.00    -0.249 N 
HETATM    6  C5  UNL     1       7.221   4.192  93.557  1.00  0.00     0.337 C 
HETATM    7  O4  UNL     1       7.217   3.490  92.493  1.00  0.00    -0.245 OA
HETATM    8  N5  UNL     1       8.083   5.306  93.577  1.00  0.00    -0.330 N 
HETATM    9  C6  UNL     1       8.903   5.638  92.445  1.00  0.00     0.155 C 
HETATM   10  C9  UNL     1       8.163   6.126  94.757  1.00  0.00     0.155 C 
HETATM   11  C7  UNL     1      10.216   6.163  93.027  1.00  0.00     0.252 C 
HETATM   12  N6  UNL     1       9.943   7.421  93.672  1.00  0.00    -0.072 N 
HETATM   13  C8  UNL     1       8.636   7.503  94.278  1.00  0.00     0.252 C 
ATOM     14  H62 UNL     1      10.669   7.635  94.357  1.00  0.00     0.277 HD
ATOM     15  H61 UNL     1      10.084   8.194  93.022  1.00  0.00     0.277 HD
ATOM     16  H4  UNL     1       6.426   4.443  95.490  1.00  0.00     0.192 HD
ENDBRANCH   3   5
BRANCH   1  17
HETATM   17  C2  UNL     1       4.525   0.781  95.931  1.00  0.00     0.218 C 
HETATM   18  C1  UNL     1       4.227   0.570  97.396  1.00  0.00     0.067 C 
BRANCH  17  19
HETATM   19  O1  UNL     1       5.122  -0.334  95.342  1.00  0.00    -0.372 OA
ATOM     20  H1  UNL     1       4.770  -0.522  94.480  1.00  0.00     0.211 HD
ENDBRANCH  17  19
BRANCH  17  21
HETATM   21  C3  UNL     1       3.254   1.124  95.197  1.00  0.00     0.279 C 
HETATM   22  O2  UNL     1       3.036   0.501  94.120  1.00  0.00    -0.268 OA
HETATM   23  N1  UNL     1       2.326   2.076  95.639  1.00  0.00    -0.274 N 
ATOM     24  H1  UNL     1       2.486   2.586  96.508  1.00  0.00     0.189 HD
BRANCH  23  25
HETATM   25  N2  UNL     1       1.159   2.323  94.865  1.00  0.00    -0.343 N 
ATOM     26  H22 UNL     1       1.245   2.813  93.974  1.00  0.00     0.176 HD
ATOM     27  H21 UNL     1       0.254   2.007  95.212  1.00  0.00     0.176 HD
ENDBRANCH  23  25
ENDBRANCH  17  21
ENDBRANCH   1  17
TORSDOF 5
ENDMDL
MODEL 4
REMARK VINA RESULT: -8.066793775      1.351      1.821
REMARK  5 active torsions:
REMARK  status: ('A' for Active; 'I' for Inactive)
REMARK    1  A    between atoms: C2_2  and  O1_3 
REMARK    2  A    between atoms: C2_2  and  C3_5 
REMARK    3  A    between atoms: C2_2  and  C4_12 
REMARK       I    between atoms: C3_5  and  N1_7 
REMARK    4  A    between atoms: N1_7  and  N2_9 
REMARK       I    between atoms: C4_12  and  N3_14 
REMARK    5  A    between atoms: N3_14  and  N4_16 
REMARK       I    between atoms: N4_16  and  C5_18 
REMARK       I    between atoms: C5_18  and  N5_20 
ROOT
HETATM    1  C4  UNL     1       7.530   1.717  91.958  1.00  0.00     0.280 C 
HETATM    2  O3  UNL     1       7.887   0.602  92.469  1.00  0.00    -0.268 OA
HETATM    3  N3  UNL     1       6.678   2.602  92.674  1.00  0.00    -0.263 N 
ATOM      4  H3  UNL     1       6.394   3.492  92.264  1.00  0.00     0.190 HD
ENDROOT
BRANCH   3   5
HETATM    5  N4  UNL     1       6.238   2.237  93.942  1.00  0.00    -0.249 N 
HETATM    6  C5  UNL     1       4.971   1.647  94.165  1.00  0.00     0.337 C 
HETATM    7  O4  UNL     1       4.172   1.422  93.197  1.00  0.00    -0.245 OA
HETATM    8  N5  UNL     1       4.528   1.281  95.451  1.00  0.00    -0.330 N 
HETATM    9  C6  UNL     1       3.244   0.670  95.653  1.00  0.00     0.155 C 
HETATM   10  C9  UNL     1       5.364   1.535  96.593  1.00  0.00     0.155 C 
HETATM   11  C7  UNL     1       2.724   1.230  96.977  1.00  0.00     0.252 C 
HETATM   12  N6  UNL     1       3.555   0.712  98.034  1.00  0.00    -0.072 N 
HETATM   13  C8  UNL     1       4.936   0.520  97.659  1.00  0.00     0.252 C 
ATOM     14  H62 UNL     1       3.489   1.304  98.862  1.00  0.00     0.277 HD
ATOM     15  H61 UNL     1       3.163  -0.152  98.406  1.00  0.00     0.277 HD
ATOM     16  H4  UNL     1       6.850   2.402  94.742  1.00  0.00     0.192 HD
ENDBRANCH   3   5
BRANCH   1  17
HETATM   17  C2  UNL     1       8.063   1.990  90.597  1.00  0.00     0.218 C 
HETATM   18  C1  UNL     1       9.386   2.700  90.761  1.00  0.00     0.067 C 
BRANCH  17  19
HETATM   19  O1  UNL     1       7.151   2.731  89.844  1.00  0.00    -0.372 OA
ATOM     20  H1  UNL     1       7.293   3.667  89.920  1.00  0.00     0.211 HD
ENDBRANCH  17  19
BRANCH  17  21
HETATM   21  C3  UNL     1       8.283   0.647  89.952  1.00  0.00     0.279 C 
HETATM   22  O2  UNL     1       7.355   0.216  89.210  1.00  0.00    -0.268 OA
HETATM   23  N1  UNL     1       9.435  -0.129  90.130  1.00  0.00    -0.274 N 
ATOM     24  H1  UNL     1      10.194   0.205  90.724  1.00  0.00     0.189 HD
BRANCH  23  25
HETATM   25  N2  UNL     1       9.536  -1.387  89.474  1.00  0.00    -0.343 N 
ATOM     26  H22 UNL     1       9.052  -2.195  89.865  1.00  0.00     0.176 HD
ATOM     27  H21 UNL     1      10.092  -1.463  88.623  1.00  0.00     0.176 HD
ENDBRANCH  23  25
ENDBRANCH  17  21
ENDBRANCH   1  17
TORSDOF 5
ENDMDL
MODEL 5
REMARK VINA RESULT: -7.869955842      2.252      7.063
REMARK  5 active torsions:
REMARK  status: ('A' for Active; 'I' for Inactive)
REMARK    1  A    between atoms: C2_2  and  O1_3 
REMARK    2  A    between atoms: C2_2  and  C3_5 
REMARK    3  A    between atoms: C2_2  and  C4_12 
REMARK       I    between atoms: C3_5  and  N1_7 
REMARK    4  A    between atoms: N1_7  and  N2_9 
REMARK       I    between atoms: C4_12  and  N3_14 
REMARK    5  A    between atoms: N3_14  and  N4_16 
REMARK       I    between atoms: N4_16  and  C5_18 
REMARK       I    between atoms: C5_18  and  N5_20 
ROOT
HETATM    1  C4  UNL     1       3.640   1.673  94.134  1.00  0.00     0.280 C 
HETATM    2  O3  UNL     1       3.455   1.255  92.941  1.00  0.00    -0.268 OA
HETATM    3  N3  UNL     1       4.848   2.332  94.491  1.00  0.00    -0.263 N 
ATOM      4  H3  UNL     1       4.994   2.665  95.444  1.00  0.00     0.190 HD
ENDROOT
BRANCH   3   5
HETATM    5  N4  UNL     1       5.829   2.517  93.522  1.00  0.00    -0.249 N 
HETATM    6  C5  UNL     1       6.896   1.605  93.339  1.00  0.00     0.337 C 
HETATM    7  O4  UNL     1       7.001   0.562  94.064  1.00  0.00    -0.245 OA
HETATM    8  N5  UNL     1       7.888   1.797  92.358  1.00  0.00    -0.330 N 
HETATM    9  C6  UNL     1       8.954   0.851  92.178  1.00  0.00     0.155 C 
HETATM   10  C9  UNL     1       7.850   2.968  91.524  1.00  0.00     0.155 C 
HETATM   11  C7  UNL     1      10.188   1.683  91.827  1.00  0.00     0.252 C 
HETATM   12  N6  UNL     1       9.978   2.260  90.525  1.00  0.00    -0.072 N 
HETATM   13  C8  UNL     1       8.602   2.593  90.241  1.00  0.00     0.252 C 
ATOM     14  H62 UNL     1      10.577   3.076  90.395  1.00  0.00     0.277 HD
ATOM     15  H61 UNL     1      10.354   1.651  89.799  1.00  0.00     0.277 HD
ATOM     16  H4  UNL     1       5.779   3.340  92.922  1.00  0.00     0.192 HD
ENDBRANCH   3   5
BRANCH   1  17
HETATM   17  C2  UNL     1       2.521   1.413  95.078  1.00  0.00     0.218 C 
HETATM   18  C1  UNL     1       1.573   0.448  94.404  1.00  0.00     0.067 C 
BRANCH  17  19
HETATM   19  O1  UNL     1       1.895   2.603  95.449  1.00  0.00    -0.372 OA
ATOM     20  H1  UNL     1       2.065   3.309  94.836  1.00  0.00     0.211 HD
ENDBRANCH  17  19
BRANCH  17  21
HETATM   21  C3  UNL     1       3.134   0.761  96.289  1.00  0.00     0.279 C 
HETATM   22  O2  UNL     1       4.149   0.035  96.090  1.00  0.00    -0.268 OA
HETATM   23  N1  UNL     1       2.647   0.915  97.594  1.00  0.00    -0.274 N 
ATOM     24  H1  UNL     1       1.831   1.499  97.773  1.00  0.00     0.189 HD
BRANCH  23  25
HETATM   25  N2  UNL     1       3.304   0.250  98.666  1.00  0.00    -0.343 N 
ATOM     26  H22 UNL     1       3.372  -0.768  98.655  1.00  0.00     0.176 HD
ATOM     27  H21 UNL     1       3.696   0.800  99.429  1.00  0.00     0.176 HD
ENDBRANCH  23  25
ENDBRANCH  17  21
ENDBRANCH   1  17
TORSDOF 5
ENDMDL
