MODEL 1
REMARK VINA RESULT: -7.884487793      0.000      0.000
REMARK  6 active torsions:
REMARK  status: ('A' for Active; 'I' for Inactive)
REMARK    1  A    between atoms: C4_5  and  N2_6 
REMARK       I    between atoms: N2_6  and  C5_8 
REMARK    2  A    between atoms: N4_10  and  N5_12 
REMARK    3  A    between atoms: N5_12  and  C6_14 
REMARK    4  A    between atoms: C6_14  and  N6_16 
REMARK    5  A    between atoms: N6_16  and  N7_18 
REMARK    6  A    between atoms: N8_22  and  N9_24 
ROOT
HETATM    1  N2  UNL     1       8.719   5.841  92.199  1.00  0.00    -0.353 N 
ATOM      2  H2  UNL     1       8.369   6.626  91.650  1.00  0.00     0.163 HD
HETATM    3  C5  UNL     1       8.607   4.524  91.706  1.00  0.00     0.203 C 
HETATM    4  N3  UNL     1       9.752   3.838  91.274  1.00  0.00    -0.062 NA
HETATM    5  N4  UNL     1       7.453   3.970  91.657  1.00  0.00    -0.272 N 
ATOM      6  H4  UNL     1       6.645   4.504  91.980  1.00  0.00     0.189 HD
ENDROOT
BRANCH   1   7
HETATM    7  C4  UNL     1       9.327   6.069  93.474  1.00  0.00     0.135 C 
HETATM    8  C3  UNL     1      10.739   6.579  93.294  1.00  0.00     0.061 C 
HETATM    9  C2  UNL     1      11.255   6.996  94.652  1.00  0.00     0.274 C 
HETATM   10  N1  UNL     1      10.488   8.042  95.258  1.00  0.00     0.089 N 
HETATM   11  C1  UNL     1      11.253   9.169  95.678  1.00  0.00     0.310 C 
HETATM   12  C8  UNL     1       9.285   8.376  94.533  1.00  0.00     0.327 C 
HETATM   13  C7  UNL     1       8.584   7.078  94.257  1.00  0.00     0.054 C 
HETATM   14  N8  UNL     1       7.402   6.822  94.664  1.00  0.00    -0.311 N 
ATOM     15  H8  UNL     1       6.971   5.923  94.449  1.00  0.00     0.185 HD
BRANCH  14  16
HETATM   16  N9  UNL     1       6.701   7.777  95.404  1.00  0.00    -0.345 N 
ATOM     17  H92 UNL     1       6.741   7.742  96.422  1.00  0.00     0.176 HD
ATOM     18  H91 UNL     1       6.159   8.494  94.922  1.00  0.00     0.176 HD
ENDBRANCH  14  16
ENDBRANCH   1   7
BRANCH   5  19
HETATM   19  N5  UNL     1       7.243   2.674  91.186  1.00  0.00    -0.273 N 
ATOM     20  H5  UNL     1       6.803   2.510  90.281  1.00  0.00     0.189 HD
BRANCH  19  21
HETATM   21  C6  UNL     1       7.660   1.589  92.002  1.00  0.00     0.205 C 
HETATM   22  S1  UNL     1       7.131   1.549  93.546  1.00  0.00    -0.038 SA
BRANCH  21  23
HETATM   23  N6  UNL     1       8.502   0.574  91.506  1.00  0.00    -0.282 N 
ATOM     24  H6  UNL     1       8.273  -0.393  91.738  1.00  0.00     0.189 HD
BRANCH  23  25
HETATM   25  N7  UNL     1       9.618   0.808  90.727  1.00  0.00    -0.343 N 
ATOM     26  H72 UNL     1       9.776   1.768  90.421  1.00  0.00     0.176 HD
ATOM     27  H71 UNL     1      10.280   0.085  90.447  1.00  0.00     0.176 HD
ENDBRANCH  23  25
ENDBRANCH  21  23
ENDBRANCH  19  21
ENDBRANCH   5  19
TORSDOF 6
ENDMDL
MODEL 2
REMARK VINA RESULT: -7.501389768      3.943      5.266
REMARK  6 active torsions:
REMARK  status: ('A' for Active; 'I' for Inactive)
REMARK    1  A    between atoms: C4_5  and  N2_6 
REMARK       I    between atoms: N2_6  and  C5_8 
REMARK    2  A    between atoms: N4_10  and  N5_12 
REMARK    3  A    between atoms: N5_12  and  C6_14 
REMARK    4  A    between atoms: C6_14  and  N6_16 
REMARK    5  A    between atoms: N6_16  and  N7_18 
REMARK    6  A    between atoms: N8_22  and  N9_24 
ROOT
HETATM    1  N2  UNL     1       6.095   3.166  93.295  1.00  0.00    -0.353 N 
ATOM      2  H2  UNL     1       5.412   2.746  92.665  1.00  0.00     0.163 HD
HETATM    3  C5  UNL     1       6.362   2.575  94.548  1.00  0.00     0.203 C 
HETATM    4  N3  UNL     1       7.586   1.925  94.769  1.00  0.00    -0.062 NA
HETATM    5  N4  UNL     1       5.477   2.639  95.472  1.00  0.00    -0.272 N 
ATOM      6  H4  UNL     1       4.600   3.120  95.270  1.00  0.00     0.189 HD
ENDROOT
BRANCH   1   7
HETATM    7  C4  UNL     1       6.788   4.358  92.914  1.00  0.00     0.135 C 
HETATM    8  C3  UNL     1       7.247   5.110  94.142  1.00  0.00     0.061 C 
HETATM    9  C2  UNL     1       8.143   6.238  93.685  1.00  0.00     0.274 C 
HETATM   10  N1  UNL     1       9.309   5.794  92.985  1.00  0.00     0.089 N 
HETATM   11  C1  UNL     1      10.538   6.299  93.502  1.00  0.00     0.310 C 
HETATM   12  C8  UNL     1       9.318   4.376  92.711  1.00  0.00     0.327 C 
HETATM   13  C7  UNL     1       7.984   4.055  92.103  1.00  0.00     0.054 C 
HETATM   14  N8  UNL     1       7.852   3.544  90.941  1.00  0.00    -0.311 N 
ATOM     15  H8  UNL     1       6.922   3.345  90.573  1.00  0.00     0.185 HD
BRANCH  14  16
HETATM   16  N9  UNL     1       8.984   3.257  90.176  1.00  0.00    -0.345 N 
ATOM     17  H92 UNL     1       9.908   3.385  90.589  1.00  0.00     0.176 HD
ATOM     18  H91 UNL     1       8.877   2.926  89.217  1.00  0.00     0.176 HD
ENDBRANCH  14  16
ENDBRANCH   1   7
BRANCH   5  19
HETATM   19  N5  UNL     1       5.650   2.086  96.740  1.00  0.00    -0.273 N 
ATOM     20  H5  UNL     1       6.312   2.490  97.402  1.00  0.00     0.189 HD
BRANCH  19  21
HETATM   21  C6  UNL     1       4.880   0.945  97.084  1.00  0.00     0.205 C 
HETATM   22  S1  UNL     1       4.398  -0.042  95.876  1.00  0.00    -0.038 SA
BRANCH  21  23
HETATM   23  N6  UNL     1       4.536   0.661  98.421  1.00  0.00    -0.282 N 
ATOM     24  H6  UNL     1       5.293   0.524  99.091  1.00  0.00     0.189 HD
BRANCH  23  25
HETATM   25  N7  UNL     1       3.237   0.557  98.879  1.00  0.00    -0.343 N 
ATOM     26  H72 UNL     1       2.565   1.239  98.524  1.00  0.00     0.176 HD
ATOM     27  H71 UNL     1       2.920  -0.151  99.541  1.00  0.00     0.176 HD
ENDBRANCH  23  25
ENDBRANCH  21  23
ENDBRANCH  19  21
ENDBRANCH   5  19
TORSDOF 6
ENDMDL
MODEL 3
REMARK VINA RESULT: -7.350847188      3.719      5.302
REMARK  6 active torsions:
REMARK  status: ('A' for Active; 'I' for Inactive)
REMARK    1  A    between atoms: C4_5  and  N2_6 
REMARK       I    between atoms: N2_6  and  C5_8 
REMARK    2  A    between atoms: N4_10  and  N5_12 
REMARK    3  A    between atoms: N5_12  and  C6_14 
REMARK    4  A    between atoms: C6_14  and  N6_16 
REMARK    5  A    between atoms: N6_16  and  N7_18 
REMARK    6  A    between atoms: N8_22  and  N9_24 
ROOT
HETATM    1  N2  UNL     1       6.585   2.673  92.868  1.00  0.00    -0.353 N 
ATOM      2  H2  UNL     1       6.474   1.950  92.158  1.00  0.00     0.163 HD
HETATM    3  C5  UNL     1       6.214   2.417  94.205  1.00  0.00     0.203 C 
HETATM    4  N3  UNL     1       7.202   2.268  95.190  1.00  0.00    -0.062 NA
HETATM    5  N4  UNL     1       4.971   2.321  94.503  1.00  0.00    -0.272 N 
ATOM      6  H4  UNL     1       4.285   2.435  93.756  1.00  0.00     0.189 HD
ENDROOT
BRANCH   1   7
HETATM    7  C4  UNL     1       7.118   3.953  92.516  1.00  0.00     0.135 C 
HETATM    8  C3  UNL     1       7.289   4.806  93.753  1.00  0.00     0.061 C 
HETATM    9  C2  UNL     1       8.041   6.054  93.353  1.00  0.00     0.274 C 
HETATM   10  N1  UNL     1       9.343   5.792  92.821  1.00  0.00     0.089 N 
HETATM   11  C1  UNL     1      10.398   6.509  93.456  1.00  0.00     0.310 C 
HETATM   12  C8  UNL     1       9.617   4.388  92.619  1.00  0.00     0.327 C 
HETATM   13  C7  UNL     1       8.441   3.832  91.870  1.00  0.00     0.054 C 
HETATM   14  N8  UNL     1       8.542   3.273  90.728  1.00  0.00    -0.311 N 
ATOM     15  H8  UNL     1       7.710   2.912  90.261  1.00  0.00     0.185 HD
BRANCH  14  16
HETATM   16  N9  UNL     1       9.793   3.159  90.119  1.00  0.00    -0.345 N 
ATOM     17  H92 UNL     1      10.566   2.752  90.646  1.00  0.00     0.176 HD
ATOM     18  H91 UNL     1       9.922   3.481  89.159  1.00  0.00     0.176 HD
ENDBRANCH  14  16
ENDBRANCH   1   7
BRANCH   5  19
HETATM   19  N5  UNL     1       4.509   2.070  95.794  1.00  0.00    -0.273 N 
ATOM     20  H5  UNL     1       5.117   2.200  96.603  1.00  0.00     0.189 HD
BRANCH  19  21
HETATM   21  C6  UNL     1       3.169   1.629  95.952  1.00  0.00     0.205 C 
HETATM   22  S1  UNL     1       2.915   0.034  96.190  1.00  0.00    -0.038 SA
BRANCH  21  23
HETATM   23  N6  UNL     1       2.086   2.529  95.908  1.00  0.00    -0.282 N 
ATOM     24  H6  UNL     1       1.863   3.052  96.756  1.00  0.00     0.189 HD
BRANCH  23  25
HETATM   25  N7  UNL     1       1.307   2.746  94.789  1.00  0.00    -0.343 N 
ATOM     26  H72 UNL     1       0.342   2.416  94.825  1.00  0.00     0.176 HD
ATOM     27  H71 UNL     1       1.639   3.209  93.943  1.00  0.00     0.176 HD
ENDBRANCH  23  25
ENDBRANCH  21  23
ENDBRANCH  19  21
ENDBRANCH   5  19
TORSDOF 6
ENDMDL
MODEL 4
REMARK VINA RESULT: -7.281197137      3.469      4.297
REMARK  6 active torsions:
REMARK  status: ('A' for Active; 'I' for Inactive)
REMARK    1  A    between atoms: C4_5  and  N2_6 
REMARK       I    between atoms: N2_6  and  C5_8 
REMARK    2  A    between atoms: N4_10  and  N5_12 
REMARK    3  A    between atoms: N5_12  and  C6_14 
REMARK    4  A    between atoms: C6_14  and  N6_16 
REMARK    5  A    between atoms: N6_16  and  N7_18 
REMARK    6  A    between atoms: N8_22  and  N9_24 
ROOT
HETATM    1  N2  UNL     1       6.404   3.857  92.927  1.00  0.00    -0.353 N 
ATOM      2  H2  UNL     1       5.946   4.467  92.251  1.00  0.00     0.163 HD
HETATM    3  C5  UNL     1       5.839   2.606  93.251  1.00  0.00     0.203 C 
HETATM    4  N3  UNL     1       6.451   1.424  92.807  1.00  0.00    -0.062 NA
HETATM    5  N4  UNL     1       4.766   2.567  93.951  1.00  0.00    -0.272 N 
ATOM      6  H4  UNL     1       4.352   3.449  94.253  1.00  0.00     0.189 HD
ENDROOT
BRANCH   1   7
HETATM    7  C4  UNL     1       7.626   4.264  93.551  1.00  0.00     0.135 C 
HETATM    8  C3  UNL     1       8.689   4.513  92.505  1.00  0.00     0.061 C 
HETATM    9  C2  UNL     1       9.880   5.134  93.196  1.00  0.00     0.274 C 
HETATM   10  N1  UNL     1       9.588   6.384  93.827  1.00  0.00     0.089 N 
HETATM   11  C1  UNL     1      10.453   7.453  93.451  1.00  0.00     0.310 C 
HETATM   12  C8  UNL     1       8.185   6.725  93.820  1.00  0.00     0.327 C 
HETATM   13  C7  UNL     1       7.453   5.514  94.319  1.00  0.00     0.054 C 
HETATM   14  N8  UNL     1       6.708   5.525  95.355  1.00  0.00    -0.311 N 
ATOM     15  H8  UNL     1       6.233   4.673  95.652  1.00  0.00     0.185 HD
BRANCH  14  16
HETATM   16  N9  UNL     1       6.546   6.708  96.079  1.00  0.00    -0.345 N 
ATOM     17  H92 UNL     1       6.655   7.602  95.601  1.00  0.00     0.176 HD
ATOM     18  H91 UNL     1       6.321   6.667  97.074  1.00  0.00     0.176 HD
ENDBRANCH  14  16
ENDBRANCH   1   7
BRANCH   5  19
HETATM   19  N5  UNL     1       4.134   1.379  94.320  1.00  0.00    -0.273 N 
ATOM     20  H5  UNL     1       4.303   0.514  93.807  1.00  0.00     0.189 HD
BRANCH  19  21
HETATM   21  C6  UNL     1       3.250   1.408  95.431  1.00  0.00     0.205 C 
HETATM   22  S1  UNL     1       3.306   0.160  96.482  1.00  0.00    -0.038 SA
BRANCH  21  23
HETATM   23  N6  UNL     1       2.351   2.474  95.631  1.00  0.00    -0.282 N 
ATOM     24  H6  UNL     1       2.503   3.084  96.434  1.00  0.00     0.189 HD
BRANCH  23  25
HETATM   25  N7  UNL     1       1.275   2.742  94.806  1.00  0.00    -0.343 N 
ATOM     26  H72 UNL     1       0.405   2.247  95.005  1.00  0.00     0.176 HD
ATOM     27  H71 UNL     1       1.305   3.396  94.024  1.00  0.00     0.176 HD
ENDBRANCH  23  25
ENDBRANCH  21  23
ENDBRANCH  19  21
ENDBRANCH   5  19
TORSDOF 6
ENDMDL
MODEL 5
REMARK VINA RESULT: -7.258586366      3.696      5.296
REMARK  6 active torsions:
REMARK  status: ('A' for Active; 'I' for Inactive)
REMARK    1  A    between atoms: C4_5  and  N2_6 
REMARK       I    between atoms: N2_6  and  C5_8 
REMARK    2  A    between atoms: N4_10  and  N5_12 
REMARK    3  A    between atoms: N5_12  and  C6_14 
REMARK    4  A    between atoms: C6_14  and  N6_16 
REMARK    5  A    between atoms: N6_16  and  N7_18 
REMARK    6  A    between atoms: N8_22  and  N9_24 
ROOT
HETATM    1  N2  UNL     1       7.009   2.286  89.751  1.00  0.00    -0.353 N 
ATOM      2  H2  UNL     1       6.522   3.111  89.403  1.00  0.00     0.163 HD
HETATM    3  C5  UNL     1       6.744   1.017  89.195  1.00  0.00     0.203 C 
HETATM    4  N3  UNL     1       7.705   0.392  88.387  1.00  0.00    -0.062 NA
HETATM    5  N4  UNL     1       5.620   0.451  89.435  1.00  0.00    -0.272 N 
ATOM      6  H4  UNL     1       4.948   0.940  90.027  1.00  0.00     0.189 HD
ENDROOT
BRANCH   1   7
HETATM    7  C4  UNL     1       7.965   2.408  90.809  1.00  0.00     0.135 C 
HETATM    8  C3  UNL     1       9.093   3.324  90.389  1.00  0.00     0.061 C 
HETATM    9  C2  UNL     1       9.956   3.581  91.603  1.00  0.00     0.274 C 
HETATM   10  N1  UNL     1       9.256   4.215  92.678  1.00  0.00     0.089 N 
HETATM   11  C1  UNL     1       9.876   5.401  93.169  1.00  0.00     0.310 C 
HETATM   12  C8  UNL     1       7.835   4.336  92.456  1.00  0.00     0.327 C 
HETATM   13  C7  UNL     1       7.357   2.979  92.028  1.00  0.00     0.054 C 
HETATM   14  N8  UNL     1       6.469   2.319  92.664  1.00  0.00    -0.311 N 
ATOM     15  H8  UNL     1       6.180   1.400  92.331  1.00  0.00     0.185 HD
BRANCH  14  16
HETATM   16  N9  UNL     1       5.895   2.860  93.816  1.00  0.00    -0.345 N 
ATOM     17  H92 UNL     1       6.318   3.684  94.241  1.00  0.00     0.176 HD
ATOM     18  H91 UNL     1       5.063   2.428  94.219  1.00  0.00     0.176 HD
ENDBRANCH  14  16
ENDBRANCH   1   7
BRANCH   5  19
HETATM   19  N5  UNL     1       5.268  -0.801  88.930  1.00  0.00    -0.273 N 
ATOM     20  H5  UNL     1       5.965  -1.538  88.824  1.00  0.00     0.189 HD
BRANCH  19  21
HETATM   21  C6  UNL     1       3.914  -1.021  88.568  1.00  0.00     0.205 C 
HETATM   22  S1  UNL     1       2.779  -0.864  89.732  1.00  0.00    -0.038 SA
BRANCH  21  23
HETATM   23  N6  UNL     1       3.547  -1.363  87.251  1.00  0.00    -0.282 N 
ATOM     24  H6  UNL     1       3.807  -2.288  86.908  1.00  0.00     0.189 HD
BRANCH  23  25
HETATM   25  N7  UNL     1       2.860  -0.523  86.398  1.00  0.00    -0.343 N 
ATOM     26  H72 UNL     1       3.268   0.396  86.225  1.00  0.00     0.176 HD
ATOM     27  H71 UNL     1       1.982  -0.768  85.941  1.00  0.00     0.176 HD
ENDBRANCH  23  25
ENDBRANCH  21  23
ENDBRANCH  19  21
ENDBRANCH   5  19
TORSDOF 6
ENDMDL
