MODEL 1
REMARK VINA RESULT: -7.257730582      0.000      0.000
REMARK  15 active torsions:
REMARK  status: ('A' for Active; 'I' for Inactive)
REMARK    1  A    between atoms: N1_1  and  C1_5 
REMARK    2  A    between atoms: C1_5  and  C2_6 
REMARK    3  A    between atoms: C2_6  and  C3_7 
REMARK    4  A    between atoms: C3_7  and  C4_8 
REMARK    5  A    between atoms: C4_8  and  N2_9 
REMARK    6  A    between atoms: C5_10  and  O1_11 
REMARK    7  A    between atoms: N3_14  and  C7_15 
REMARK    8  A    between atoms: C7_15  and  C8_16 
REMARK    9  A    between atoms: C8_16  and  O2_17 
REMARK   10  A    between atoms: C8_16  and  N4_19 
REMARK   11  A    between atoms: N4_19  and  C9_21 
REMARK   12  A    between atoms: C9_21  and  C10_22 
REMARK   13  A    between atoms: C9_21  and  S1_29 
REMARK   14  A    between atoms: C10_22  and  C11_23 
REMARK   15  A    between atoms: S1_29  and  C17_32 
ROOT
HETATM    1  C8  UNL     1      48.196  31.539  36.358  1.00  0.00     0.233 C 
ENDROOT
BRANCH   1   2
HETATM    2  C7  UNL     1      49.474  30.723  36.014  1.00  0.00     0.186 C 
BRANCH   2   3
HETATM    3  N3  UNL     1      50.584  31.620  35.755  1.00  0.00    -0.301 N 
HETATM    4  C6  UNL     1      50.448  32.901  35.376  1.00  0.00     0.151 A 
HETATM    5  C5  UNL     1      51.773  33.380  35.239  1.00  0.00     0.162 A 
HETATM    6  N2  UNL     1      52.633  32.410  35.527  1.00  0.00    -0.279 N 
HETATM    7  C23 UNL     1      51.870  31.313  35.851  1.00  0.00     0.330 A 
HETATM    8  O5  UNL     1      52.306  30.177  36.189  1.00  0.00    -0.246 OA
BRANCH   5   9
HETATM    9  O1  UNL     1      52.078  34.658  34.859  1.00  0.00    -0.345 OA
ATOM     10  H1  UNL     1      51.489  35.403  34.844  1.00  0.00     0.219 HD
ENDBRANCH   5   9
BRANCH   6  11
HETATM   11  C4  UNL     1      54.050  32.331  35.553  1.00  0.00     0.136 C 
BRANCH  11  12
HETATM   12  C3  UNL     1      54.758  32.730  36.784  1.00  0.00     0.022 C 
BRANCH  12  13
HETATM   13  C2  UNL     1      55.770  33.807  36.593  1.00  0.00     0.029 C 
BRANCH  13  14
HETATM   14  C1  UNL     1      55.389  35.085  37.327  1.00  0.00     0.229 C 
BRANCH  14  15
HETATM   15  N1  UNL     1      54.365  35.790  36.581  1.00  0.00    -0.079 N 
ATOM     16  H13 UNL     1      53.833  35.166  35.975  1.00  0.00     0.274 HD
ATOM     17  H12 UNL     1      53.600  36.102  37.180  1.00  0.00     0.274 HD
ATOM     18  H11 UNL     1      54.786  36.562  36.063  1.00  0.00     0.274 HD
ENDBRANCH  14  15
ENDBRANCH  13  14
ENDBRANCH  12  13
ENDBRANCH  11  12
ENDBRANCH   6  11
ENDBRANCH   2   3
ENDBRANCH   1   2
BRANCH   1  19
HETATM   19  O2  UNL     1      47.180  30.783  35.793  1.00  0.00    -0.376 OA
ATOM     20  H2  UNL     1      46.435  31.371  35.820  1.00  0.00     0.212 HD
ENDBRANCH   1  19
BRANCH   1  21
HETATM   21  N4  UNL     1      48.200  31.670  37.752  1.00  0.00    -0.378 N 
ATOM     22  H4  UNL     1      48.446  30.851  38.308  1.00  0.00     0.157 HD
BRANCH  21  23
HETATM   23  C9  UNL     1      47.892  32.844  38.423  1.00  0.00     0.212 C 
BRANCH  23  24
HETATM   24  C10 UNL     1      48.512  33.053  39.766  1.00  0.00     0.079 C 
BRANCH  24  25
HETATM   25  C11 UNL     1      49.986  33.138  39.754  1.00  0.00    -0.055 A 
HETATM   26  C12 UNL     1      50.785  32.396  40.550  1.00  0.00     0.007 A 
HETATM   27  C13 UNL     1      52.187  32.478  40.511  1.00  0.00     0.001 A 
HETATM   28  C14 UNL     1      52.777  33.337  39.642  1.00  0.00     0.000 A 
HETATM   29  C15 UNL     1      51.995  34.122  38.803  1.00  0.00     0.001 A 
HETATM   30  C16 UNL     1      50.625  34.016  38.867  1.00  0.00     0.007 A 
ENDBRANCH  24  25
ENDBRANCH  23  24
BRANCH  23  31
HETATM   31  S1  UNL     1      46.141  33.218  38.467  1.00  0.00     0.197 S 
HETATM   32  O3  UNL     1      45.710  33.574  39.866  1.00  0.00    -0.220 OA
HETATM   33  O4  UNL     1      45.396  32.030  37.941  1.00  0.00    -0.220 OA
BRANCH  31  34
HETATM   34  C17 UNL     1      45.731  34.585  37.471  1.00  0.00     0.061 A 
HETATM   35  C18 UNL     1      45.342  35.772  38.068  1.00  0.00     0.023 A 
HETATM   36  C19 UNL     1      45.000  36.892  37.294  1.00  0.00     0.002 A 
HETATM   37  C20 UNL     1      45.052  36.811  35.900  1.00  0.00     0.000 A 
HETATM   38  C21 UNL     1      45.434  35.647  35.323  1.00  0.00     0.002 A 
HETATM   39  C22 UNL     1      45.769  34.546  36.097  1.00  0.00     0.023 A 
ENDBRANCH  31  34
ENDBRANCH  23  31
ENDBRANCH  21  23
ENDBRANCH   1  21
TORSDOF 15
ENDMDL
MODEL 2
REMARK VINA RESULT: -7.246226732      0.051      1.164
REMARK  15 active torsions:
REMARK  status: ('A' for Active; 'I' for Inactive)
REMARK    1  A    between atoms: N1_1  and  C1_5 
REMARK    2  A    between atoms: C1_5  and  C2_6 
REMARK    3  A    between atoms: C2_6  and  C3_7 
REMARK    4  A    between atoms: C3_7  and  C4_8 
REMARK    5  A    between atoms: C4_8  and  N2_9 
REMARK    6  A    between atoms: C5_10  and  O1_11 
REMARK    7  A    between atoms: N3_14  and  C7_15 
REMARK    8  A    between atoms: C7_15  and  C8_16 
REMARK    9  A    between atoms: C8_16  and  O2_17 
REMARK   10  A    between atoms: C8_16  and  N4_19 
REMARK   11  A    between atoms: N4_19  and  C9_21 
REMARK   12  A    between atoms: C9_21  and  C10_22 
REMARK   13  A    between atoms: C9_21  and  S1_29 
REMARK   14  A    between atoms: C10_22  and  C11_23 
REMARK   15  A    between atoms: S1_29  and  C17_32 
ROOT
HETATM    1  C8  UNL     1      48.227  31.542  36.350  1.00  0.00     0.233 C 
ENDROOT
BRANCH   1   2
HETATM    2  C7  UNL     1      49.512  30.727  36.028  1.00  0.00     0.186 C 
BRANCH   2   3
HETATM    3  N3  UNL     1      50.616  31.626  35.752  1.00  0.00    -0.301 N 
HETATM    4  C6  UNL     1      50.473  32.899  35.352  1.00  0.00     0.151 A 
HETATM    5  C5  UNL     1      51.795  33.383  35.202  1.00  0.00     0.162 A 
HETATM    6  N2  UNL     1      52.660  32.422  35.504  1.00  0.00    -0.279 N 
HETATM    7  C23 UNL     1      51.904  31.326  35.848  1.00  0.00     0.330 A 
HETATM    8  O5  UNL     1      52.347  30.199  36.203  1.00  0.00    -0.246 OA
BRANCH   5   9
HETATM    9  O1  UNL     1      52.092  34.655  34.800  1.00  0.00    -0.345 OA
ATOM     10  H1  UNL     1      51.506  35.404  34.800  1.00  0.00     0.219 HD
ENDBRANCH   5   9
BRANCH   6  11
HETATM   11  C4  UNL     1      54.078  32.351  35.527  1.00  0.00     0.136 C 
BRANCH  11  12
HETATM   12  C3  UNL     1      54.787  32.757  36.754  1.00  0.00     0.022 C 
BRANCH  12  13
HETATM   13  C2  UNL     1      55.792  33.838  36.558  1.00  0.00     0.029 C 
BRANCH  13  14
HETATM   14  C1  UNL     1      55.407  35.117  37.289  1.00  0.00     0.229 C 
BRANCH  14  15
HETATM   15  N1  UNL     1      54.318  35.771  36.589  1.00  0.00    -0.079 N 
ATOM     16  H13 UNL     1      54.073  35.288  35.725  1.00  0.00     0.274 HD
ATOM     17  H12 UNL     1      53.429  35.662  37.076  1.00  0.00     0.274 HD
ATOM     18  H11 UNL     1      54.552  36.751  36.429  1.00  0.00     0.274 HD
ENDBRANCH  14  15
ENDBRANCH  13  14
ENDBRANCH  12  13
ENDBRANCH  11  12
ENDBRANCH   6  11
ENDBRANCH   2   3
ENDBRANCH   1   2
BRANCH   1  19
HETATM   19  O2  UNL     1      47.222  30.786  35.766  1.00  0.00    -0.376 OA
ATOM     20  H2  UNL     1      46.755  30.434  36.514  1.00  0.00     0.212 HD
ENDBRANCH   1  19
BRANCH   1  21
HETATM   21  N4  UNL     1      48.205  31.671  37.744  1.00  0.00    -0.378 N 
ATOM     22  H4  UNL     1      48.424  30.847  38.304  1.00  0.00     0.157 HD
BRANCH  21  23
HETATM   23  C9  UNL     1      47.906  32.850  38.410  1.00  0.00     0.212 C 
BRANCH  23  24
HETATM   24  C10 UNL     1      48.558  33.077  39.736  1.00  0.00     0.079 C 
BRANCH  24  25
HETATM   25  C11 UNL     1      50.029  33.182  39.685  1.00  0.00    -0.055 A 
HETATM   26  C12 UNL     1      50.692  34.030  38.870  1.00  0.00     0.007 A 
HETATM   27  C13 UNL     1      52.094  34.128  38.848  1.00  0.00     0.001 A 
HETATM   28  C14 UNL     1      52.826  33.341  39.677  1.00  0.00     0.000 A 
HETATM   29  C15 UNL     1      52.188  32.452  40.534  1.00  0.00     0.001 A 
HETATM   30  C16 UNL     1      50.814  32.383  40.529  1.00  0.00     0.007 A 
ENDBRANCH  24  25
ENDBRANCH  23  24
BRANCH  23  31
HETATM   31  S1  UNL     1      46.155  33.214  38.493  1.00  0.00     0.197 S 
HETATM   32  O3  UNL     1      45.747  33.537  39.907  1.00  0.00    -0.220 OA
HETATM   33  O4  UNL     1      45.406  32.035  37.955  1.00  0.00    -0.220 OA
BRANCH  31  34
HETATM   34  C17 UNL     1      45.720  34.601  37.535  1.00  0.00     0.061 A 
HETATM   35  C18 UNL     1      45.755  34.515  36.154  1.00  0.00     0.023 A 
HETATM   36  C19 UNL     1      45.414  35.616  35.353  1.00  0.00     0.002 A 
HETATM   37  C20 UNL     1      45.036  36.818  35.954  1.00  0.00     0.000 A 
HETATM   38  C21 UNL     1      45.004  36.895  37.307  1.00  0.00     0.002 A 
HETATM   39  C22 UNL     1      45.343  35.801  38.089  1.00  0.00     0.023 A 
ENDBRANCH  31  34
ENDBRANCH  23  31
ENDBRANCH  21  23
ENDBRANCH   1  21
TORSDOF 15
ENDMDL
MODEL 3
REMARK VINA RESULT: -7.110552035      2.630      6.194
REMARK  15 active torsions:
REMARK  status: ('A' for Active; 'I' for Inactive)
REMARK    1  A    between atoms: N1_1  and  C1_5 
REMARK    2  A    between atoms: C1_5  and  C2_6 
REMARK    3  A    between atoms: C2_6  and  C3_7 
REMARK    4  A    between atoms: C3_7  and  C4_8 
REMARK    5  A    between atoms: C4_8  and  N2_9 
REMARK    6  A    between atoms: C5_10  and  O1_11 
REMARK    7  A    between atoms: N3_14  and  C7_15 
REMARK    8  A    between atoms: C7_15  and  C8_16 
REMARK    9  A    between atoms: C8_16  and  O2_17 
REMARK   10  A    between atoms: C8_16  and  N4_19 
REMARK   11  A    between atoms: N4_19  and  C9_21 
REMARK   12  A    between atoms: C9_21  and  C10_22 
REMARK   13  A    between atoms: C9_21  and  S1_29 
REMARK   14  A    between atoms: C10_22  and  C11_23 
REMARK   15  A    between atoms: S1_29  and  C17_32 
ROOT
HETATM    1  C8  UNL     1      49.607  30.751  38.976  1.00  0.00     0.233 C 
ENDROOT
BRANCH   1   2
HETATM    2  C7  UNL     1      49.292  31.406  37.601  1.00  0.00     0.186 C 
BRANCH   2   3
HETATM    3  N3  UNL     1      48.086  32.207  37.694  1.00  0.00    -0.301 N 
HETATM    4  C6  UNL     1      47.520  32.588  38.849  1.00  0.00     0.151 A 
HETATM    5  C5  UNL     1      46.382  33.338  38.465  1.00  0.00     0.162 A 
HETATM    6  N2  UNL     1      46.301  33.383  37.140  1.00  0.00    -0.279 N 
HETATM    7  C23 UNL     1      47.380  32.670  36.672  1.00  0.00     0.330 A 
HETATM    8  O5  UNL     1      47.671  32.471  35.460  1.00  0.00    -0.246 OA
BRANCH   5   9
HETATM    9  O1  UNL     1      45.518  33.911  39.358  1.00  0.00    -0.345 OA
ATOM     10  H1  UNL     1      45.529  33.813  40.303  1.00  0.00     0.219 HD
ENDBRANCH   5   9
BRANCH   6  11
HETATM   11  C4  UNL     1      45.388  33.980  36.233  1.00  0.00     0.136 C 
BRANCH  11  12
HETATM   12  C3  UNL     1      45.715  35.302  35.666  1.00  0.00     0.022 C 
BRANCH  12  13
HETATM   13  C2  UNL     1      46.059  36.340  36.677  1.00  0.00     0.029 C 
BRANCH  13  14
HETATM   14  C1  UNL     1      44.826  36.864  37.400  1.00  0.00     0.229 C 
BRANCH  14  15
HETATM   15  N1  UNL     1      45.037  36.802  38.833  1.00  0.00    -0.079 N 
ATOM     16  H13 UNL     1      45.787  37.422  39.138  1.00  0.00     0.274 HD
ATOM     17  H12 UNL     1      44.271  37.231  39.352  1.00  0.00     0.274 HD
ATOM     18  H11 UNL     1      45.198  35.835  39.116  1.00  0.00     0.274 HD
ENDBRANCH  14  15
ENDBRANCH  13  14
ENDBRANCH  12  13
ENDBRANCH  11  12
ENDBRANCH   6  11
ENDBRANCH   2   3
ENDBRANCH   1   2
BRANCH   1  19
HETATM   19  O2  UNL     1      49.428  29.400  38.727  1.00  0.00    -0.376 OA
ATOM     20  H2  UNL     1      50.302  29.107  38.494  1.00  0.00     0.212 HD
ENDBRANCH   1  19
BRANCH   1  21
HETATM   21  N4  UNL     1      50.898  31.179  39.307  1.00  0.00    -0.378 N 
ATOM     22  H4  UNL     1      51.290  30.872  40.197  1.00  0.00     0.157 HD
BRANCH  21  23
HETATM   23  C9  UNL     1      51.678  31.993  38.499  1.00  0.00     0.212 C 
BRANCH  23  24
HETATM   24  C10 UNL     1      53.062  31.527  38.180  1.00  0.00     0.079 C 
BRANCH  24  25
HETATM   25  C11 UNL     1      53.580  31.992  36.879  1.00  0.00    -0.055 A 
HETATM   26  C12 UNL     1      52.966  31.755  35.700  1.00  0.00     0.007 A 
HETATM   27  C13 UNL     1      53.466  32.221  34.473  1.00  0.00     0.001 A 
HETATM   28  C14 UNL     1      54.616  32.943  34.457  1.00  0.00     0.000 A 
HETATM   29  C15 UNL     1      55.283  33.212  35.645  1.00  0.00     0.001 A 
HETATM   30  C16 UNL     1      54.765  32.740  36.829  1.00  0.00     0.007 A 
ENDBRANCH  24  25
ENDBRANCH  23  24
BRANCH  23  31
HETATM   31  S1  UNL     1      51.686  33.714  38.995  1.00  0.00     0.197 S 
HETATM   32  O3  UNL     1      53.047  34.112  39.506  1.00  0.00    -0.220 OA
HETATM   33  O4  UNL     1      50.625  33.907  40.034  1.00  0.00    -0.220 OA
BRANCH  31  34
HETATM   34  C17 UNL     1      51.334  34.787  37.670  1.00  0.00     0.061 A 
HETATM   35  C18 UNL     1      50.021  35.131  37.402  1.00  0.00     0.023 A 
HETATM   36  C19 UNL     1      49.702  35.991  36.339  1.00  0.00     0.002 A 
HETATM   37  C20 UNL     1      50.723  36.508  35.538  1.00  0.00     0.000 A 
HETATM   38  C21 UNL     1      52.006  36.166  35.807  1.00  0.00     0.002 A 
HETATM   39  C22 UNL     1      52.310  35.316  36.859  1.00  0.00     0.023 A 
ENDBRANCH  31  34
ENDBRANCH  23  31
ENDBRANCH  21  23
ENDBRANCH   1  21
TORSDOF 15
ENDMDL
MODEL 4
REMARK VINA RESULT: -7.014849671      2.219      3.152
REMARK  15 active torsions:
REMARK  status: ('A' for Active; 'I' for Inactive)
REMARK    1  A    between atoms: N1_1  and  C1_5 
REMARK    2  A    between atoms: C1_5  and  C2_6 
REMARK    3  A    between atoms: C2_6  and  C3_7 
REMARK    4  A    between atoms: C3_7  and  C4_8 
REMARK    5  A    between atoms: C4_8  and  N2_9 
REMARK    6  A    between atoms: C5_10  and  O1_11 
REMARK    7  A    between atoms: N3_14  and  C7_15 
REMARK    8  A    between atoms: C7_15  and  C8_16 
REMARK    9  A    between atoms: C8_16  and  O2_17 
REMARK   10  A    between atoms: C8_16  and  N4_19 
REMARK   11  A    between atoms: N4_19  and  C9_21 
REMARK   12  A    between atoms: C9_21  and  C10_22 
REMARK   13  A    between atoms: C9_21  and  S1_29 
REMARK   14  A    between atoms: C10_22  and  C11_23 
REMARK   15  A    between atoms: S1_29  and  C17_32 
ROOT
HETATM    1  C8  UNL     1      49.860  30.956  39.311  1.00  0.00     0.233 C 
ENDROOT
BRANCH   1   2
HETATM    2  C7  UNL     1      51.211  31.294  40.003  1.00  0.00     0.186 C 
BRANCH   2   3
HETATM    3  N3  UNL     1      52.107  31.937  39.060  1.00  0.00    -0.301 N 
HETATM    4  C6  UNL     1      52.550  31.367  37.929  1.00  0.00     0.151 A 
HETATM    5  C5  UNL     1      53.387  32.341  37.335  1.00  0.00     0.162 A 
HETATM    6  N2  UNL     1      53.423  33.427  38.099  1.00  0.00    -0.279 N 
HETATM    7  C23 UNL     1      52.613  33.157  39.177  1.00  0.00     0.330 A 
HETATM    8  O5  UNL     1      52.373  33.935  40.142  1.00  0.00    -0.246 OA
BRANCH   5   9
HETATM    9  O1  UNL     1      54.047  32.151  36.153  1.00  0.00    -0.345 OA
ATOM     10  H1  UNL     1      54.701  31.488  35.966  1.00  0.00     0.219 HD
ENDBRANCH   5   9
BRANCH   6  11
HETATM   11  C4  UNL     1      54.085  34.678  37.996  1.00  0.00     0.136 C 
BRANCH  11  12
HETATM   12  C3  UNL     1      53.793  35.540  36.835  1.00  0.00     0.022 C 
BRANCH  12  13
HETATM   13  C2  UNL     1      54.895  35.629  35.839  1.00  0.00     0.029 C 
BRANCH  13  14
HETATM   14  C1  UNL     1      56.213  35.107  36.396  1.00  0.00     0.229 C 
BRANCH  14  15
HETATM   15  N1  UNL     1      56.661  33.974  35.610  1.00  0.00    -0.079 N 
ATOM     16  H13 UNL     1      56.507  33.088  36.091  1.00  0.00     0.274 HD
ATOM     17  H12 UNL     1      56.063  33.808  34.800  1.00  0.00     0.274 HD
ATOM     18  H11 UNL     1      57.638  34.104  35.345  1.00  0.00     0.274 HD
ENDBRANCH  14  15
ENDBRANCH  13  14
ENDBRANCH  12  13
ENDBRANCH  11  12
ENDBRANCH   6  11
ENDBRANCH   2   3
ENDBRANCH   1   2
BRANCH   1  19
HETATM   19  O2  UNL     1      49.511  29.742  39.882  1.00  0.00    -0.376 OA
ATOM     20  H2  UNL     1      49.604  29.908  40.813  1.00  0.00     0.212 HD
ENDBRANCH   1  19
BRANCH   1  21
HETATM   21  N4  UNL     1      49.025  32.050  39.566  1.00  0.00    -0.378 N 
ATOM     22  H4  UNL     1      48.708  32.196  40.525  1.00  0.00     0.157 HD
BRANCH  21  23
HETATM   23  C9  UNL     1      48.602  32.947  38.598  1.00  0.00     0.212 C 
BRANCH  23  24
HETATM   24  C10 UNL     1      49.159  34.333  38.651  1.00  0.00     0.079 C 
BRANCH  24  25
HETATM   25  C11 UNL     1      49.667  34.839  37.361  1.00  0.00    -0.055 A 
HETATM   26  C12 UNL     1      50.214  34.052  36.411  1.00  0.00     0.007 A 
HETATM   27  C13 UNL     1      50.677  34.551  35.182  1.00  0.00     0.001 A 
HETATM   28  C14 UNL     1      50.576  35.880  34.925  1.00  0.00     0.000 A 
HETATM   29  C15 UNL     1      50.020  36.730  35.873  1.00  0.00     0.001 A 
HETATM   30  C16 UNL     1      49.577  36.208  37.067  1.00  0.00     0.007 A 
ENDBRANCH  24  25
ENDBRANCH  23  24
BRANCH  23  31
HETATM   31  S1  UNL     1      46.827  32.986  38.368  1.00  0.00     0.197 S 
HETATM   32  O3  UNL     1      46.121  33.074  39.697  1.00  0.00    -0.220 OA
HETATM   33  O4  UNL     1      46.426  31.760  37.607  1.00  0.00    -0.220 OA
BRANCH  31  34
HETATM   34  C17 UNL     1      46.307  34.372  37.452  1.00  0.00     0.061 A 
HETATM   35  C18 UNL     1      45.727  35.445  38.107  1.00  0.00     0.023 A 
HETATM   36  C19 UNL     1      45.294  36.576  37.399  1.00  0.00     0.002 A 
HETATM   37  C20 UNL     1      45.447  36.623  36.011  1.00  0.00     0.000 A 
HETATM   38  C21 UNL     1      46.016  35.570  35.377  1.00  0.00     0.002 A 
HETATM   39  C22 UNL     1      46.440  34.457  36.087  1.00  0.00     0.023 A 
ENDBRANCH  31  34
ENDBRANCH  23  31
ENDBRANCH  21  23
ENDBRANCH   1  21
TORSDOF 15
ENDMDL
MODEL 5
REMARK VINA RESULT: -6.978082909      2.924      6.440
REMARK  15 active torsions:
REMARK  status: ('A' for Active; 'I' for Inactive)
REMARK    1  A    between atoms: N1_1  and  C1_5 
REMARK    2  A    between atoms: C1_5  and  C2_6 
REMARK    3  A    between atoms: C2_6  and  C3_7 
REMARK    4  A    between atoms: C3_7  and  C4_8 
REMARK    5  A    between atoms: C4_8  and  N2_9 
REMARK    6  A    between atoms: C5_10  and  O1_11 
REMARK    7  A    between atoms: N3_14  and  C7_15 
REMARK    8  A    between atoms: C7_15  and  C8_16 
REMARK    9  A    between atoms: C8_16  and  O2_17 
REMARK   10  A    between atoms: C8_16  and  N4_19 
REMARK   11  A    between atoms: N4_19  and  C9_21 
REMARK   12  A    between atoms: C9_21  and  C10_22 
REMARK   13  A    between atoms: C9_21  and  S1_29 
REMARK   14  A    between atoms: C10_22  and  C11_23 
REMARK   15  A    between atoms: S1_29  and  C17_32 
ROOT
HETATM    1  C8  UNL     1      49.537  29.978  35.093  1.00  0.00     0.233 C 
ENDROOT
BRANCH   1   2
HETATM    2  C7  UNL     1      48.345  30.273  36.047  1.00  0.00     0.186 C 
BRANCH   2   3
HETATM    3  N3  UNL     1      48.836  30.696  37.344  1.00  0.00    -0.301 N 
HETATM    4  C6  UNL     1      49.554  29.920  38.171  1.00  0.00     0.151 A 
HETATM    5  C5  UNL     1      49.807  30.732  39.302  1.00  0.00     0.162 A 
HETATM    6  N2  UNL     1      49.255  31.927  39.129  1.00  0.00    -0.279 N 
HETATM    7  C23 UNL     1      48.651  31.888  37.894  1.00  0.00     0.330 A 
HETATM    8  O5  UNL     1      48.011  32.830  37.349  1.00  0.00    -0.246 OA
BRANCH   5   9
HETATM    9  O1  UNL     1      50.517  30.309  40.392  1.00  0.00    -0.345 OA
ATOM     10  H1  UNL     1      51.405  29.971  40.397  1.00  0.00     0.219 HD
ENDBRANCH   5   9
BRANCH   6  11
HETATM   11  C4  UNL     1      49.194  33.104  39.920  1.00  0.00     0.136 C 
BRANCH  11  12
HETATM   12  C3  UNL     1      50.127  34.206  39.622  1.00  0.00     0.022 C 
BRANCH  12  13
HETATM   13  C2  UNL     1      51.386  33.784  38.948  1.00  0.00     0.029 C 
BRANCH  13  14
HETATM   14  C1  UNL     1      52.568  33.762  39.908  1.00  0.00     0.229 C 
BRANCH  14  15
HETATM   15  N1  UNL     1      52.576  32.513  40.645  1.00  0.00    -0.079 N 
ATOM     16  H13 UNL     1      51.736  31.960  40.472  1.00  0.00     0.274 HD
ATOM     17  H12 UNL     1      53.263  31.856  40.278  1.00  0.00     0.274 HD
ATOM     18  H11 UNL     1      52.715  32.700  41.638  1.00  0.00     0.274 HD
ENDBRANCH  14  15
ENDBRANCH  13  14
ENDBRANCH  12  13
ENDBRANCH  11  12
ENDBRANCH   6  11
ENDBRANCH   2   3
ENDBRANCH   1   2
BRANCH   1  19
HETATM   19  O2  UNL     1      49.027  29.007  34.245  1.00  0.00    -0.376 OA
ATOM     20  H2  UNL     1      48.761  29.506  33.482  1.00  0.00     0.212 HD
ENDBRANCH   1  19
BRANCH   1  21
HETATM   21  N4  UNL     1      49.876  31.213  34.526  1.00  0.00    -0.378 N 
ATOM     22  H4  UNL     1      49.301  31.560  33.759  1.00  0.00     0.157 HD
BRANCH  21  23
HETATM   23  C9  UNL     1      50.944  31.992  34.943  1.00  0.00     0.212 C 
BRANCH  23  24
HETATM   24  C10 UNL     1      51.172  33.287  34.232  1.00  0.00     0.079 C 
BRANCH  24  25
HETATM   25  C11 UNL     1      50.929  34.488  35.055  1.00  0.00    -0.055 A 
HETATM   26  C12 UNL     1      49.701  34.899  35.436  1.00  0.00     0.007 A 
HETATM   27  C13 UNL     1      49.491  36.036  36.234  1.00  0.00     0.001 A 
HETATM   28  C14 UNL     1      50.561  36.763  36.647  1.00  0.00     0.000 A 
HETATM   29  C15 UNL     1      51.845  36.379  36.279  1.00  0.00     0.001 A 
HETATM   30  C16 UNL     1      52.014  35.260  35.497  1.00  0.00     0.007 A 
ENDBRANCH  24  25
ENDBRANCH  23  24
BRANCH  23  31
HETATM   31  S1  UNL     1      52.479  31.087  35.120  1.00  0.00     0.197 S 
HETATM   32  O3  UNL     1      52.814  30.356  33.845  1.00  0.00    -0.220 OA
HETATM   33  O4  UNL     1      52.338  30.148  36.278  1.00  0.00    -0.220 OA
BRANCH  31  34
HETATM   34  C17 UNL     1      53.832  32.133  35.446  1.00  0.00     0.061 A 
HETATM   35  C18 UNL     1      54.138  32.464  36.754  1.00  0.00     0.023 A 
HETATM   36  C19 UNL     1      55.220  33.308  37.052  1.00  0.00     0.002 A 
HETATM   37  C20 UNL     1      55.999  33.825  36.014  1.00  0.00     0.000 A 
HETATM   38  C21 UNL     1      55.692  33.497  34.736  1.00  0.00     0.002 A 
HETATM   39  C22 UNL     1      54.622  32.662  34.453  1.00  0.00     0.023 A 
ENDBRANCH  31  34
ENDBRANCH  23  31
ENDBRANCH  21  23
ENDBRANCH   1  21
TORSDOF 15
ENDMDL
