MODEL 1
REMARK VINA RESULT: -8.133691104      0.000      0.000
REMARK  12 active torsions:
REMARK  status: ('A' for Active; 'I' for Inactive)
REMARK    1  A    between atoms: C5_5  and  N1_6 
REMARK    2  A    between atoms: N1_6  and  C6_8 
REMARK    3  A    between atoms: C6_8  and  C7_9 
REMARK    4  A    between atoms: C7_9  and  C8_10 
REMARK    5  A    between atoms: C8_10  and  N2_11 
REMARK    6  A    between atoms: C13_20  and  O2_21 
REMARK    7  A    between atoms: O2_21  and  C14_22 
REMARK    8  A    between atoms: C14_22  and  C15_23 
REMARK    9  A    between atoms: C15_23  and  N4_24 
REMARK   10  A    between atoms: N4_24  and  C16_27 
REMARK   11  A    between atoms: C16_27  and  C17_28 
REMARK   12  A    between atoms: C20_32  and  O3_33 
ROOT
HETATM    1  N2  UNL     1      15.560  19.024  21.333  1.00  0.00    -0.226 N 
ATOM      2  H2  UNL     1      15.427  19.048  20.322  1.00  0.00     0.177 HD
HETATM    3  C9  UNL     1      16.755  19.134  21.805  1.00  0.00     0.681 A 
HETATM    4  N3  UNL     1      17.803  19.278  20.932  1.00  0.00    -0.155 N 
ATOM      5  H3  UNL     1      17.595  19.287  19.933  1.00  0.00     0.187 HD
HETATM    6  C10 UNL     1      19.073  19.406  21.306  1.00  0.00     0.272 A 
HETATM    7  O1  UNL     1      20.015  19.537  20.474  1.00  0.00    -0.267 OA
HETATM    8  C11 UNL     1      19.394  19.398  22.641  1.00  0.00     0.065 A 
HETATM    9  C12 UNL     1      20.678  19.535  23.128  1.00  0.00     0.057 A 
HETATM   10  C13 UNL     1      20.980  19.535  24.472  1.00  0.00     0.078 A 
HETATM   11  C18 UNL     1      19.893  19.387  25.346  1.00  0.00     0.007 A 
HETATM   12  C19 UNL     1      20.187  19.386  26.793  1.00  0.00     0.054 C 
HETATM   13  C20 UNL     1      18.607  19.248  24.905  1.00  0.00     0.102 A 
HETATM   14  C21 UNL     1      18.351  19.254  23.528  1.00  0.00     0.098 A 
HETATM   15  N5  UNL     1      17.077  19.128  23.105  1.00  0.00    -0.188 N 
ATOM     16  H5  UNL     1      16.335  19.024  23.798  1.00  0.00     0.184 HD
ENDROOT
BRANCH   1  17
HETATM   17  C8  UNL     1      14.420  18.871  22.171  1.00  0.00     0.139 C 
BRANCH  17  18
HETATM   18  C7  UNL     1      13.115  18.795  21.392  1.00  0.00     0.040 C 
BRANCH  18  19
HETATM   19  C6  UNL     1      12.592  20.193  21.190  1.00  0.00     0.123 C 
BRANCH  19  20
HETATM   20  N1  UNL     1      11.850  20.600  22.332  1.00  0.00    -0.376 N 
ATOM     21  H1  UNL     1      11.257  19.892  22.763  1.00  0.00     0.161 HD
BRANCH  20  22
HETATM   22  C5  UNL     1      11.843  21.765  22.881  1.00  0.00     0.100 A 
HETATM   23  C4  UNL     1      12.624  22.788  22.368  1.00  0.00     0.049 A 
HETATM   24  C3  UNL     1      12.663  24.060  22.932  1.00  0.00     0.012 A 
HETATM   25  C2  UNL     1      11.902  24.336  24.049  1.00  0.00    -0.046 A 
HETATM   26  C1  UNL     1      11.884  25.666  24.728  1.00  0.00     0.049 C 
HETATM   27  C22 UNL     1      11.132  23.303  24.544  1.00  0.00     0.096 A 
HETATM   28  N6  UNL     1      11.115  22.063  23.966  1.00  0.00    -0.352 N 
ATOM     29  H6  UNL     1      10.526  21.339  24.377  1.00  0.00     0.166 HD
ENDBRANCH  20  22
ENDBRANCH  19  20
ENDBRANCH  18  19
ENDBRANCH  17  18
ENDBRANCH   1  17
BRANCH  13  30
HETATM   30  O3  UNL     1      17.528  19.099  25.803  1.00  0.00    -0.358 OA
ATOM     31  H3  UNL     1      16.695  19.534  25.659  1.00  0.00     0.217 HD
ENDBRANCH  13  30
BRANCH  10  32
HETATM   32  O2  UNL     1      22.248  19.671  24.988  1.00  0.00    -0.349 OA
BRANCH  32  33
HETATM   33  C14 UNL     1      23.358  19.764  24.104  1.00  0.00     0.203 C 
BRANCH  33  34
HETATM   34  C15 UNL     1      24.366  18.672  24.474  1.00  0.00     0.259 C 
BRANCH  34  35
HETATM   35  N4  UNL     1      24.964  18.267  23.222  1.00  0.00    -0.072 N 
ATOM     36  H42 UNL     1      24.248  18.134  22.508  1.00  0.00     0.277 HD
ATOM     37  H41 UNL     1      25.482  19.040  22.804  1.00  0.00     0.277 HD
BRANCH  35  38
HETATM   38  C16 UNL     1      25.803  17.088  23.329  1.00  0.00     0.243 C 
BRANCH  38  39
HETATM   39  C17 UNL     1      25.300  16.038  22.356  1.00  0.00     0.113 C 
HETATM   40  S1  UNL     1      23.852  15.184  23.022  1.00  0.00    -0.096 SA
ENDBRANCH  38  39
ENDBRANCH  35  38
ENDBRANCH  34  35
ENDBRANCH  33  34
ENDBRANCH  32  33
ENDBRANCH  10  32
TORSDOF 12
ENDMDL
MODEL 2
REMARK VINA RESULT: -8.079254688      1.787      2.183
REMARK  12 active torsions:
REMARK  status: ('A' for Active; 'I' for Inactive)
REMARK    1  A    between atoms: C5_5  and  N1_6 
REMARK    2  A    between atoms: N1_6  and  C6_8 
REMARK    3  A    between atoms: C6_8  and  C7_9 
REMARK    4  A    between atoms: C7_9  and  C8_10 
REMARK    5  A    between atoms: C8_10  and  N2_11 
REMARK    6  A    between atoms: C13_20  and  O2_21 
REMARK    7  A    between atoms: O2_21  and  C14_22 
REMARK    8  A    between atoms: C14_22  and  C15_23 
REMARK    9  A    between atoms: C15_23  and  N4_24 
REMARK   10  A    between atoms: N4_24  and  C16_27 
REMARK   11  A    between atoms: C16_27  and  C17_28 
REMARK   12  A    between atoms: C20_32  and  O3_33 
ROOT
HETATM    1  N2  UNL     1      15.882  22.043  19.352  1.00  0.00    -0.226 N 
ATOM      2  H2  UNL     1      15.985  22.462  18.428  1.00  0.00     0.177 HD
HETATM    3  C9  UNL     1      16.921  21.540  19.926  1.00  0.00     0.681 A 
HETATM    4  N3  UNL     1      18.127  21.586  19.273  1.00  0.00    -0.155 N 
ATOM      5  H3  UNL     1      18.154  22.014  18.348  1.00  0.00     0.187 HD
HETATM    6  C10 UNL     1      19.263  21.105  19.772  1.00  0.00     0.272 A 
HETATM    7  O1  UNL     1      20.357  21.163  19.142  1.00  0.00    -0.267 OA
HETATM    8  C11 UNL     1      19.268  20.519  21.013  1.00  0.00     0.065 A 
HETATM    9  C12 UNL     1      20.395  20.002  21.619  1.00  0.00     0.057 A 
HETATM   10  C13 UNL     1      20.384  19.428  22.871  1.00  0.00     0.078 A 
HETATM   11  C18 UNL     1      19.140  19.393  23.520  1.00  0.00     0.007 A 
HETATM   12  C19 UNL     1      19.099  18.784  24.864  1.00  0.00     0.054 C 
HETATM   13  C20 UNL     1      18.000  19.893  22.955  1.00  0.00     0.102 A 
HETATM   14  C21 UNL     1      18.064  20.468  21.678  1.00  0.00     0.098 A 
HETATM   15  N5  UNL     1      16.936  20.968  21.137  1.00  0.00    -0.188 N 
ATOM     16  H5  UNL     1      16.065  20.909  21.666  1.00  0.00     0.184 HD
ENDROOT
BRANCH   1  17
HETATM   17  C8  UNL     1      14.596  22.036  19.961  1.00  0.00     0.139 C 
BRANCH  17  18
HETATM   18  C7  UNL     1      13.940  20.662  19.953  1.00  0.00     0.040 C 
BRANCH  18  19
HETATM   19  C6  UNL     1      13.444  20.358  21.343  1.00  0.00     0.123 C 
BRANCH  19  20
HETATM   20  N1  UNL     1      12.269  21.112  21.611  1.00  0.00    -0.376 N 
ATOM     21  H1  UNL     1      11.416  20.804  21.145  1.00  0.00     0.161 HD
BRANCH  20  22
HETATM   22  C5  UNL     1      12.163  22.140  22.379  1.00  0.00     0.100 A 
HETATM   23  C4  UNL     1      11.261  22.141  23.430  1.00  0.00     0.049 A 
HETATM   24  C3  UNL     1      11.097  23.232  24.280  1.00  0.00     0.012 A 
HETATM   25  C2  UNL     1      11.853  24.369  24.086  1.00  0.00    -0.046 A 
HETATM   26  C1  UNL     1      11.744  25.589  24.940  1.00  0.00     0.049 C 
HETATM   27  C22 UNL     1      12.746  24.347  23.033  1.00  0.00     0.096 A 
HETATM   28  N6  UNL     1      12.883  23.259  22.216  1.00  0.00    -0.352 N 
ATOM     29  H6  UNL     1      13.560  23.300  21.453  1.00  0.00     0.166 HD
ENDBRANCH  20  22
ENDBRANCH  19  20
ENDBRANCH  18  19
ENDBRANCH  17  18
ENDBRANCH   1  17
BRANCH  13  30
HETATM   30  O3  UNL     1      16.759  19.846  23.625  1.00  0.00    -0.358 OA
ATOM     31  H3  UNL     1      15.974  19.523  23.199  1.00  0.00     0.217 HD
ENDBRANCH  13  30
BRANCH  10  32
HETATM   32  O2  UNL     1      21.490  18.906  23.501  1.00  0.00    -0.349 OA
BRANCH  32  33
HETATM   33  C14 UNL     1      22.555  19.769  23.877  1.00  0.00     0.203 C 
BRANCH  33  34
HETATM   34  C15 UNL     1      23.215  19.204  25.139  1.00  0.00     0.259 C 
BRANCH  34  35
HETATM   35  N4  UNL     1      24.616  19.076  24.809  1.00  0.00    -0.072 N 
ATOM     36  H42 UNL     1      24.833  19.590  23.956  1.00  0.00     0.277 HD
ATOM     37  H41 UNL     1      25.190  19.596  25.474  1.00  0.00     0.277 HD
BRANCH  35  38
HETATM   38  C16 UNL     1      25.070  17.702  24.707  1.00  0.00     0.243 C 
BRANCH  38  39
HETATM   39  C17 UNL     1      25.372  17.392  23.252  1.00  0.00     0.113 C 
HETATM   40  S1  UNL     1      26.844  16.354  23.106  1.00  0.00    -0.096 SA
ENDBRANCH  38  39
ENDBRANCH  35  38
ENDBRANCH  34  35
ENDBRANCH  33  34
ENDBRANCH  32  33
ENDBRANCH  10  32
TORSDOF 12
ENDMDL
MODEL 3
REMARK VINA RESULT: -7.987462427      0.984      1.004
REMARK  12 active torsions:
REMARK  status: ('A' for Active; 'I' for Inactive)
REMARK    1  A    between atoms: C5_5  and  N1_6 
REMARK    2  A    between atoms: N1_6  and  C6_8 
REMARK    3  A    between atoms: C6_8  and  C7_9 
REMARK    4  A    between atoms: C7_9  and  C8_10 
REMARK    5  A    between atoms: C8_10  and  N2_11 
REMARK    6  A    between atoms: C13_20  and  O2_21 
REMARK    7  A    between atoms: O2_21  and  C14_22 
REMARK    8  A    between atoms: C14_22  and  C15_23 
REMARK    9  A    between atoms: C15_23  and  N4_24 
REMARK   10  A    between atoms: N4_24  and  C16_27 
REMARK   11  A    between atoms: C16_27  and  C17_28 
REMARK   12  A    between atoms: C20_32  and  O3_33 
ROOT
HETATM    1  N2  UNL     1      15.602  18.513  21.425  1.00  0.00    -0.226 N 
ATOM      2  H2  UNL     1      15.476  18.468  20.414  1.00  0.00     0.177 HD
HETATM    3  C9  UNL     1      16.782  18.734  21.896  1.00  0.00     0.681 A 
HETATM    4  N3  UNL     1      17.824  18.900  21.020  1.00  0.00    -0.155 N 
ATOM      5  H3  UNL     1      17.626  18.836  20.021  1.00  0.00     0.187 HD
HETATM    6  C10 UNL     1      19.079  19.139  21.392  1.00  0.00     0.272 A 
HETATM    7  O1  UNL     1      20.017  19.287  20.558  1.00  0.00    -0.267 OA
HETATM    8  C11 UNL     1      19.388  19.232  22.727  1.00  0.00     0.065 A 
HETATM    9  C12 UNL     1      20.655  19.486  23.211  1.00  0.00     0.057 A 
HETATM   10  C13 UNL     1      20.945  19.587  24.554  1.00  0.00     0.078 A 
HETATM   11  C18 UNL     1      19.863  19.413  25.430  1.00  0.00     0.007 A 
HETATM   12  C19 UNL     1      20.144  19.517  26.876  1.00  0.00     0.054 C 
HETATM   13  C20 UNL     1      18.593  19.159  24.992  1.00  0.00     0.102 A 
HETATM   14  C21 UNL     1      18.350  19.066  23.615  1.00  0.00     0.098 A 
HETATM   15  N5  UNL     1      17.092  18.826  23.195  1.00  0.00    -0.188 N 
ATOM     16  H5  UNL     1      16.353  18.710  23.889  1.00  0.00     0.184 HD
ENDROOT
BRANCH   1  17
HETATM   17  C8  UNL     1      14.468  18.329  22.265  1.00  0.00     0.139 C 
BRANCH  17  18
HETATM   18  C7  UNL     1      13.154  18.667  21.575  1.00  0.00     0.040 C 
BRANCH  18  19
HETATM   19  C6  UNL     1      13.123  20.148  21.298  1.00  0.00     0.123 C 
BRANCH  19  20
HETATM   20  N1  UNL     1      12.003  20.736  21.945  1.00  0.00    -0.376 N 
ATOM     21  H1  UNL     1      11.127  20.215  21.899  1.00  0.00     0.161 HD
BRANCH  20  22
HETATM   22  C5  UNL     1      11.970  21.854  22.583  1.00  0.00     0.100 A 
HETATM   23  C4  UNL     1      12.766  22.914  22.183  1.00  0.00     0.049 A 
HETATM   24  C3  UNL     1      12.779  24.138  22.846  1.00  0.00     0.012 A 
HETATM   25  C2  UNL     1      11.974  24.325  23.950  1.00  0.00    -0.046 A 
HETATM   26  C1  UNL     1      11.925  25.598  24.730  1.00  0.00     0.049 C 
HETATM   27  C22 UNL     1      11.189  23.256  24.333  1.00  0.00     0.096 A 
HETATM   28  N6  UNL     1      11.200  22.066  23.660  1.00  0.00    -0.352 N 
ATOM     29  H6  UNL     1      10.598  21.311  23.989  1.00  0.00     0.166 HD
ENDBRANCH  20  22
ENDBRANCH  19  20
ENDBRANCH  18  19
ENDBRANCH  17  18
ENDBRANCH   1  17
BRANCH  13  30
HETATM   30  O3  UNL     1      17.520  18.986  25.892  1.00  0.00    -0.358 OA
ATOM     31  H3  UNL     1      17.278  19.662  26.515  1.00  0.00     0.217 HD
ENDBRANCH  13  30
BRANCH  10  32
HETATM   32  O2  UNL     1      22.196  19.841  25.067  1.00  0.00    -0.349 OA
BRANCH  32  33
HETATM   33  C14 UNL     1      23.310  19.923  24.187  1.00  0.00     0.203 C 
BRANCH  33  34
HETATM   34  C15 UNL     1      24.304  18.818  24.562  1.00  0.00     0.259 C 
BRANCH  34  35
HETATM   35  N4  UNL     1      24.127  17.792  23.559  1.00  0.00    -0.072 N 
ATOM     36  H42 UNL     1      23.409  18.066  22.889  1.00  0.00     0.277 HD
ATOM     37  H41 UNL     1      24.936  17.752  22.939  1.00  0.00     0.277 HD
BRANCH  35  38
HETATM   38  C16 UNL     1      23.839  16.481  24.110  1.00  0.00     0.243 C 
BRANCH  38  39
HETATM   39  C17 UNL     1      22.344  16.229  24.019  1.00  0.00     0.113 C 
HETATM   40  S1  UNL     1      21.634  15.967  25.660  1.00  0.00    -0.096 SA
ENDBRANCH  38  39
ENDBRANCH  35  38
ENDBRANCH  34  35
ENDBRANCH  33  34
ENDBRANCH  32  33
ENDBRANCH  10  32
TORSDOF 12
ENDMDL
MODEL 4
REMARK VINA RESULT: -7.884037259      1.125      1.221
REMARK  12 active torsions:
REMARK  status: ('A' for Active; 'I' for Inactive)
REMARK    1  A    between atoms: C5_5  and  N1_6 
REMARK    2  A    between atoms: N1_6  and  C6_8 
REMARK    3  A    between atoms: C6_8  and  C7_9 
REMARK    4  A    between atoms: C7_9  and  C8_10 
REMARK    5  A    between atoms: C8_10  and  N2_11 
REMARK    6  A    between atoms: C13_20  and  O2_21 
REMARK    7  A    between atoms: O2_21  and  C14_22 
REMARK    8  A    between atoms: C14_22  and  C15_23 
REMARK    9  A    between atoms: C15_23  and  N4_24 
REMARK   10  A    between atoms: N4_24  and  C16_27 
REMARK   11  A    between atoms: C16_27  and  C17_28 
REMARK   12  A    between atoms: C20_32  and  O3_33 
ROOT
HETATM    1  N2  UNL     1      14.998  19.202  21.356  1.00  0.00    -0.226 N 
ATOM      2  H2  UNL     1      14.821  19.744  20.510  1.00  0.00     0.177 HD
HETATM    3  C9  UNL     1      16.183  19.214  21.865  1.00  0.00     0.681 A 
HETATM    4  N3  UNL     1      17.161  19.953  21.250  1.00  0.00    -0.155 N 
ATOM      5  H3  UNL     1      16.913  20.465  20.402  1.00  0.00     0.187 HD
HETATM    6  C10 UNL     1      18.414  20.044  21.689  1.00  0.00     0.272 A 
HETATM    7  O1  UNL     1      19.292  20.734  21.097  1.00  0.00    -0.267 OA
HETATM    8  C11 UNL     1      18.788  19.370  22.825  1.00  0.00     0.065 A 
HETATM    9  C12 UNL     1      20.057  19.409  23.364  1.00  0.00     0.057 A 
HETATM   10  C13 UNL     1      20.411  18.734  24.512  1.00  0.00     0.078 A 
HETATM   11  C18 UNL     1      19.394  17.985  25.124  1.00  0.00     0.007 A 
HETATM   12  C19 UNL     1      19.746  17.253  26.357  1.00  0.00     0.054 C 
HETATM   13  C20 UNL     1      18.125  17.919  24.622  1.00  0.00     0.102 A 
HETATM   14  C21 UNL     1      17.814  18.624  23.451  1.00  0.00     0.098 A 
HETATM   15  N5  UNL     1      16.556  18.560  22.972  1.00  0.00    -0.188 N 
ATOM     16  H5  UNL     1      15.866  17.996  23.469  1.00  0.00     0.184 HD
ENDROOT
BRANCH   1  17
HETATM   17  C8  UNL     1      13.928  18.462  21.931  1.00  0.00     0.139 C 
BRANCH  17  18
HETATM   18  C7  UNL     1      12.578  18.781  21.305  1.00  0.00     0.040 C 
BRANCH  18  19
HETATM   19  C6  UNL     1      12.405  20.277  21.270  1.00  0.00     0.123 C 
BRANCH  19  20
HETATM   20  N1  UNL     1      11.742  20.713  22.449  1.00  0.00    -0.376 N 
ATOM     21  H1  UNL     1      11.171  20.020  22.931  1.00  0.00     0.161 HD
BRANCH  20  22
HETATM   22  C5  UNL     1      11.782  21.888  22.975  1.00  0.00     0.100 A 
HETATM   23  C4  UNL     1      12.613  22.864  22.452  1.00  0.00     0.049 A 
HETATM   24  C3  UNL     1      12.703  24.144  22.991  1.00  0.00     0.012 A 
HETATM   25  C2  UNL     1      11.944  24.476  24.093  1.00  0.00    -0.046 A 
HETATM   26  C1  UNL     1      11.978  25.819  24.745  1.00  0.00     0.049 C 
HETATM   27  C22 UNL     1      11.123  23.490  24.600  1.00  0.00     0.096 A 
HETATM   28  N6  UNL     1      11.056  22.240  24.046  1.00  0.00    -0.352 N 
ATOM     29  H6  UNL     1      10.431  21.551  24.464  1.00  0.00     0.166 HD
ENDBRANCH  20  22
ENDBRANCH  19  20
ENDBRANCH  18  19
ENDBRANCH  17  18
ENDBRANCH   1  17
BRANCH  13  30
HETATM   30  O3  UNL     1      17.118  17.159  25.253  1.00  0.00    -0.358 OA
ATOM     31  H3  UNL     1      16.983  17.191  26.193  1.00  0.00     0.217 HD
ENDBRANCH  13  30
BRANCH  10  32
HETATM   32  O2  UNL     1      21.667  18.755  25.075  1.00  0.00    -0.349 OA
BRANCH  32  33
HETATM   33  C14 UNL     1      22.405  19.970  25.096  1.00  0.00     0.203 C 
BRANCH  33  34
HETATM   34  C15 UNL     1      23.560  19.854  24.097  1.00  0.00     0.259 C 
BRANCH  34  35
HETATM   35  N4  UNL     1      24.695  19.416  24.878  1.00  0.00    -0.072 N 
ATOM     36  H42 UNL     1      25.533  19.934  24.616  1.00  0.00     0.277 HD
ATOM     37  H41 UNL     1      24.601  19.719  25.848  1.00  0.00     0.277 HD
BRANCH  35  38
HETATM   38  C16 UNL     1      24.935  17.986  24.810  1.00  0.00     0.243 C 
BRANCH  38  39
HETATM   39  C17 UNL     1      25.253  17.611  23.374  1.00  0.00     0.113 C 
HETATM   40  S1  UNL     1      26.497  16.301  23.311  1.00  0.00    -0.096 SA
ENDBRANCH  38  39
ENDBRANCH  35  38
ENDBRANCH  34  35
ENDBRANCH  33  34
ENDBRANCH  32  33
ENDBRANCH  10  32
TORSDOF 12
ENDMDL
MODEL 5
REMARK VINA RESULT: -7.787102944      1.141      1.496
REMARK  12 active torsions:
REMARK  status: ('A' for Active; 'I' for Inactive)
REMARK    1  A    between atoms: C5_5  and  N1_6 
REMARK    2  A    between atoms: N1_6  and  C6_8 
REMARK    3  A    between atoms: C6_8  and  C7_9 
REMARK    4  A    between atoms: C7_9  and  C8_10 
REMARK    5  A    between atoms: C8_10  and  N2_11 
REMARK    6  A    between atoms: C13_20  and  O2_21 
REMARK    7  A    between atoms: O2_21  and  C14_22 
REMARK    8  A    between atoms: C14_22  and  C15_23 
REMARK    9  A    between atoms: C15_23  and  N4_24 
REMARK   10  A    between atoms: N4_24  and  C16_27 
REMARK   11  A    between atoms: C16_27  and  C17_28 
REMARK   12  A    between atoms: C20_32  and  O3_33 
ROOT
HETATM    1  N2  UNL     1      15.882  17.412  21.667  1.00  0.00    -0.226 N 
ATOM      2  H2  UNL     1      15.771  17.289  20.660  1.00  0.00     0.177 HD
HETATM    3  C9  UNL     1      16.996  17.879  22.116  1.00  0.00     0.681 A 
HETATM    4  N3  UNL     1      17.992  18.192  21.226  1.00  0.00    -0.155 N 
ATOM      5  H3  UNL     1      17.813  18.037  20.234  1.00  0.00     0.187 HD
HETATM    6  C10 UNL     1      19.177  18.685  21.577  1.00  0.00     0.272 A 
HETATM    7  O1  UNL     1      20.073  18.962  20.730  1.00  0.00    -0.267 OA
HETATM    8  C11 UNL     1      19.458  18.907  22.902  1.00  0.00     0.065 A 
HETATM    9  C12 UNL     1      20.651  19.424  23.363  1.00  0.00     0.057 A 
HETATM   10  C13 UNL     1      20.911  19.651  24.697  1.00  0.00     0.078 A 
HETATM   11  C18 UNL     1      19.878  19.323  25.589  1.00  0.00     0.007 A 
HETATM   12  C19 UNL     1      20.129  19.558  27.025  1.00  0.00     0.054 C 
HETATM   13  C20 UNL     1      18.682  18.809  25.174  1.00  0.00     0.102 A 
HETATM   14  C21 UNL     1      18.466  18.596  23.805  1.00  0.00     0.098 A 
HETATM   15  N5  UNL     1      17.279  18.099  23.407  1.00  0.00    -0.188 N 
ATOM     16  H5  UNL     1      16.572  17.883  24.111  1.00  0.00     0.184 HD
ENDROOT
BRANCH   1  17
HETATM   17  C8  UNL     1      14.800  17.063  22.522  1.00  0.00     0.139 C 
BRANCH  17  18
HETATM   18  C7  UNL     1      13.560  16.614  21.762  1.00  0.00     0.040 C 
BRANCH  18  19
HETATM   19  C6  UNL     1      12.659  17.805  21.565  1.00  0.00     0.123 C 
BRANCH  19  20
HETATM   20  N1  UNL     1      12.831  18.723  22.637  1.00  0.00    -0.376 N 
ATOM     21  H1  UNL     1      12.986  18.318  23.559  1.00  0.00     0.161 HD
BRANCH  20  22
HETATM   22  C5  UNL     1      12.811  20.008  22.572  1.00  0.00     0.100 A 
HETATM   23  C4  UNL     1      13.842  20.696  21.954  1.00  0.00     0.049 A 
HETATM   24  C3  UNL     1      13.875  22.085  21.869  1.00  0.00     0.012 A 
HETATM   25  C2  UNL     1      12.850  22.828  22.416  1.00  0.00    -0.046 A 
HETATM   26  C1  UNL     1      12.801  24.320  22.381  1.00  0.00     0.049 C 
HETATM   27  C22 UNL     1      11.833  22.124  23.028  1.00  0.00     0.096 A 
HETATM   28  N6  UNL     1      11.829  20.758  23.094  1.00  0.00    -0.352 N 
ATOM     29  H6  UNL     1      11.050  20.291  23.559  1.00  0.00     0.166 HD
ENDBRANCH  20  22
ENDBRANCH  19  20
ENDBRANCH  18  19
ENDBRANCH  17  18
ENDBRANCH   1  17
BRANCH  13  30
HETATM   30  O3  UNL     1      17.657  18.485  26.088  1.00  0.00    -0.358 OA
ATOM     31  H3  UNL     1      16.953  19.093  26.285  1.00  0.00     0.217 HD
ENDBRANCH  13  30
BRANCH  10  32
HETATM   32  O2  UNL     1      22.089  20.166  25.187  1.00  0.00    -0.349 OA
BRANCH  32  33
HETATM   33  C14 UNL     1      23.248  20.171  24.363  1.00  0.00     0.203 C 
BRANCH  33  34
HETATM   34  C15 UNL     1      24.045  18.892  24.640  1.00  0.00     0.259 C 
BRANCH  34  35
HETATM   35  N4  UNL     1      24.652  18.543  23.376  1.00  0.00    -0.072 N 
ATOM     36  H42 UNL     1      23.938  18.366  22.671  1.00  0.00     0.277 HD
ATOM     37  H41 UNL     1      25.108  19.355  22.960  1.00  0.00     0.277 HD
BRANCH  35  38
HETATM   38  C16 UNL     1      25.575  17.426  23.460  1.00  0.00     0.243 C 
BRANCH  38  39
HETATM   39  C17 UNL     1      24.778  16.136  23.531  1.00  0.00     0.113 C 
HETATM   40  S1  UNL     1      24.829  15.260  21.951  1.00  0.00    -0.096 SA
ENDBRANCH  38  39
ENDBRANCH  35  38
ENDBRANCH  34  35
ENDBRANCH  33  34
ENDBRANCH  32  33
ENDBRANCH  10  32
TORSDOF 12
ENDMDL
