MODEL 1
REMARK VINA RESULT: -8.190179564      0.000      0.000
REMARK  15 active torsions:
REMARK  status: ('A' for Active; 'I' for Inactive)
REMARK    1  A    between atoms: C2_2  and  O1_3 
REMARK    2  A    between atoms: C2_2  and  C3_5 
REMARK    3  A    between atoms: C3_5  and  C4_6 
REMARK    4  A    between atoms: C4_6  and  C5_7 
REMARK    5  A    between atoms: C4_6  and  C25_37 
REMARK    6  A    between atoms: C6_8  and  C7_9 
REMARK    7  A    between atoms: C7_9  and  O2_10 
REMARK    8  A    between atoms: C7_9  and  C8_12 
REMARK    9  A    between atoms: C10_15  and  C11_16 
REMARK   10  A    between atoms: C11_16  and  C12_17 
REMARK   11  A    between atoms: C13_18  and  C14_19 
REMARK   12  A    between atoms: C14_19  and  C15_20 
REMARK   13  A    between atoms: C16_23  and  O4_24 
REMARK   14  A    between atoms: C23_33  and  O6_35 
REMARK   15  A    between atoms: C25_37  and  O7_38 
ROOT
HETATM    1  C8  UNL     1      17.052  19.002  22.405  1.00  0.00     0.188 C 
HETATM    2  O3  UNL     1      16.451  19.314  21.178  1.00  0.00    -0.373 OA
HETATM    3  C9  UNL     1      15.132  19.635  21.281  1.00  0.00     0.137 C 
HETATM    4  C10 UNL     1      14.464  19.638  19.921  1.00  0.00     0.041 C 
HETATM    5  C18 UNL     1      13.047  19.353  20.268  1.00  0.00    -0.023 C 
HETATM    6  C19 UNL     1      12.944  18.881  21.504  1.00  0.00    -0.023 C 
HETATM    7  C20 UNL     1      14.289  18.790  22.144  1.00  0.00     0.037 C 
HETATM    8  C21 UNL     1      14.687  17.394  22.358  1.00  0.00     0.014 C 
HETATM    9  C22 UNL     1      15.953  16.945  21.715  1.00  0.00     0.041 C 
HETATM   10  C23 UNL     1      17.199  17.509  22.405  1.00  0.00     0.083 C 
HETATM   11  C24 UNL     1      18.359  17.152  21.490  1.00  0.00     0.049 C 
ENDROOT
BRANCH   1  12
HETATM   12  C7  UNL     1      18.374  19.728  22.428  1.00  0.00     0.172 C 
BRANCH  12  13
HETATM   13  C6  UNL     1      18.997  19.732  23.774  1.00  0.00     0.004 C 
HETATM   14  C5  UNL     1      20.267  19.367  23.964  1.00  0.00    -0.021 C 
BRANCH  14  15
HETATM   15  C4  UNL     1      20.936  19.350  25.254  1.00  0.00     0.034 C 
BRANCH  15  16
HETATM   16  C3  UNL     1      22.076  20.312  25.361  1.00  0.00     0.042 C 
BRANCH  16  17
HETATM   17  C2  UNL     1      23.279  20.026  24.532  1.00  0.00     0.114 C 
HETATM   18  C1  UNL     1      23.802  18.603  24.821  1.00  0.00     0.039 C 
BRANCH  17  19
HETATM   19  O1  UNL     1      24.392  20.834  24.856  1.00  0.00    -0.396 OA
ATOM     20  H1  UNL     1      24.069  21.347  25.587  1.00  0.00     0.210 HD
ENDBRANCH  17  19
ENDBRANCH  16  17
ENDBRANCH  15  16
BRANCH  15  21
HETATM   21  C25 UNL     1      19.979  19.499  26.425  1.00  0.00     0.172 C 
BRANCH  21  22
HETATM   22  O7  UNL     1      20.469  20.470  27.296  1.00  0.00    -0.400 OA
ATOM     23  H7  UNL     1      20.936  20.045  28.006  1.00  0.00     0.209 HD
ENDBRANCH  21  22
ENDBRANCH  15  21
ENDBRANCH  14  15
ENDBRANCH  12  13
BRANCH  12  24
HETATM   24  O2  UNL     1      18.164  21.043  22.021  1.00  0.00    -0.389 OA
ATOM     25  H2  UNL     1      17.709  21.040  21.187  1.00  0.00     0.210 HD
ENDBRANCH  12  24
ENDBRANCH   1  12
BRANCH  10  26
HETATM   26  O6  UNL     1      17.405  16.955  23.636  1.00  0.00    -0.388 OA
ATOM     27  H6  UNL     1      17.043  16.084  23.745  1.00  0.00     0.210 HD
ENDBRANCH  10  26
BRANCH   4  28
HETATM   28  C11 UNL     1      14.589  21.022  19.274  1.00  0.00     0.038 C 
BRANCH  28  29
HETATM   29  C12 UNL     1      14.501  22.059  20.320  1.00  0.00    -0.029 C 
HETATM   30  C13 UNL     1      13.408  22.805  20.413  1.00  0.00    -0.023 C 
BRANCH  30  31
HETATM   31  C14 UNL     1      13.299  23.857  21.461  1.00  0.00     0.110 C 
BRANCH  31  32
HETATM   32  C15 UNL     1      12.485  23.278  22.599  1.00  0.00     0.119 C 
HETATM   33  N1  UNL     1      11.996  22.107  22.638  1.00  0.00    -0.346 N 
HETATM   34  C16 UNL     1      11.280  21.879  23.858  1.00  0.00     0.243 C 
ATOM     35  H1  UNL     1      12.099  21.416  21.895  1.00  0.00     0.164 HD
HETATM   36  C17 UNL     1      11.083  23.281  24.385  1.00  0.00     0.230 C 
HETATM   37  O5  UNL     1      12.167  23.958  23.757  1.00  0.00    -0.335 OA
BRANCH  34  38
HETATM   38  O4  UNL     1      10.022  21.311  23.641  1.00  0.00    -0.375 OA
ATOM     39  H4  UNL     1       9.325  21.956  23.655  1.00  0.00     0.212 HD
ENDBRANCH  34  38
ENDBRANCH  31  32
ENDBRANCH  30  31
ENDBRANCH  28  29
ENDBRANCH   4  28
TORSDOF 15
ENDMDL
MODEL 2
REMARK VINA RESULT: -8.147505938      2.716      8.837
REMARK  15 active torsions:
REMARK  status: ('A' for Active; 'I' for Inactive)
REMARK    1  A    between atoms: C2_2  and  O1_3 
REMARK    2  A    between atoms: C2_2  and  C3_5 
REMARK    3  A    between atoms: C3_5  and  C4_6 
REMARK    4  A    between atoms: C4_6  and  C5_7 
REMARK    5  A    between atoms: C4_6  and  C25_37 
REMARK    6  A    between atoms: C6_8  and  C7_9 
REMARK    7  A    between atoms: C7_9  and  O2_10 
REMARK    8  A    between atoms: C7_9  and  C8_12 
REMARK    9  A    between atoms: C10_15  and  C11_16 
REMARK   10  A    between atoms: C11_16  and  C12_17 
REMARK   11  A    between atoms: C13_18  and  C14_19 
REMARK   12  A    between atoms: C14_19  and  C15_20 
REMARK   13  A    between atoms: C16_23  and  O4_24 
REMARK   14  A    between atoms: C23_33  and  O6_35 
REMARK   15  A    between atoms: C25_37  and  O7_38 
ROOT
HETATM    1  C8  UNL     1      15.268  20.727  20.724  1.00  0.00     0.188 C 
HETATM    2  O3  UNL     1      16.265  19.784  21.005  1.00  0.00    -0.373 OA
HETATM    3  C9  UNL     1      17.468  20.338  21.323  1.00  0.00     0.137 C 
HETATM    4  C10 UNL     1      18.571  19.299  21.292  1.00  0.00     0.041 C 
HETATM    5  C18 UNL     1      19.772  20.127  21.011  1.00  0.00    -0.023 C 
HETATM    6  C19 UNL     1      19.429  21.330  20.567  1.00  0.00    -0.023 C 
HETATM    7  C20 UNL     1      17.944  21.459  20.496  1.00  0.00     0.037 C 
HETATM    8  C21 UNL     1      17.481  21.548  19.106  1.00  0.00     0.014 C 
HETATM    9  C22 UNL     1      16.516  20.510  18.647  1.00  0.00     0.041 C 
HETATM   10  C23 UNL     1      15.114  20.706  19.232  1.00  0.00     0.083 C 
HETATM   11  C24 UNL     1      14.345  19.450  18.857  1.00  0.00     0.049 C 
ENDROOT
BRANCH   1  12
HETATM   12  C7  UNL     1      14.031  20.270  21.454  1.00  0.00     0.172 C 
BRANCH  12  13
HETATM   13  C6  UNL     1      13.063  21.370  21.677  1.00  0.00     0.004 C 
HETATM   14  C5  UNL     1      13.443  22.650  21.706  1.00  0.00    -0.021 C 
BRANCH  14  15
HETATM   15  C4  UNL     1      12.546  23.773  21.919  1.00  0.00     0.034 C 
BRANCH  15  16
HETATM   16  C3  UNL     1      12.773  24.497  23.208  1.00  0.00     0.042 C 
BRANCH  16  17
HETATM   17  C2  UNL     1      11.615  24.592  24.139  1.00  0.00     0.114 C 
HETATM   18  C1  UNL     1      11.765  25.824  25.057  1.00  0.00     0.039 C 
BRANCH  17  19
HETATM   19  O1  UNL     1      11.547  23.526  25.064  1.00  0.00    -0.396 OA
ATOM     20  H1  UNL     1      11.544  22.762  24.499  1.00  0.00     0.210 HD
ENDBRANCH  17  19
ENDBRANCH  16  17
ENDBRANCH  15  16
BRANCH  15  21
HETATM   21  C25 UNL     1      12.509  24.738  20.746  1.00  0.00     0.172 C 
BRANCH  21  22
HETATM   22  O7  UNL     1      12.906  24.069  19.590  1.00  0.00    -0.400 OA
ATOM     23  H7  UNL     1      13.009  24.698  18.885  1.00  0.00     0.209 HD
ENDBRANCH  21  22
ENDBRANCH  15  21
ENDBRANCH  14  15
ENDBRANCH  12  13
BRANCH  12  24
HETATM   24  O2  UNL     1      14.413  19.745  22.686  1.00  0.00    -0.389 OA
ATOM     25  H2  UNL     1      15.355  19.823  22.777  1.00  0.00     0.210 HD
ENDBRANCH  12  24
ENDBRANCH   1  12
BRANCH  10  26
HETATM   26  O6  UNL     1      14.482  21.798  18.707  1.00  0.00    -0.388 OA
ATOM     27  H6  UNL     1      13.979  21.626  17.920  1.00  0.00     0.210 HD
ENDBRANCH  10  26
BRANCH   4  28
HETATM   28  C11 UNL     1      18.697  18.621  22.662  1.00  0.00     0.038 C 
BRANCH  28  29
HETATM   29  C12 UNL     1      19.647  19.381  23.497  1.00  0.00    -0.029 C 
HETATM   30  C13 UNL     1      19.387  19.560  24.785  1.00  0.00    -0.023 C 
BRANCH  30  31
HETATM   31  C14 UNL     1      20.332  20.324  25.646  1.00  0.00     0.110 C 
BRANCH  31  32
HETATM   32  C15 UNL     1      21.709  19.725  25.448  1.00  0.00     0.119 C 
HETATM   33  N1  UNL     1      22.668  20.268  24.818  1.00  0.00    -0.346 N 
HETATM   34  C16 UNL     1      23.832  19.433  24.817  1.00  0.00     0.243 C 
ATOM     35  H1  UNL     1      22.616  21.183  24.370  1.00  0.00     0.164 HD
HETATM   36  C17 UNL     1      23.270  18.092  25.224  1.00  0.00     0.230 C 
HETATM   37  O5  UNL     1      22.103  18.495  25.932  1.00  0.00    -0.335 OA
BRANCH  34  38
HETATM   38  O4  UNL     1      24.396  19.306  23.545  1.00  0.00    -0.375 OA
ATOM     39  H4  UNL     1      25.178  18.767  23.547  1.00  0.00     0.212 HD
ENDBRANCH  34  38
ENDBRANCH  31  32
ENDBRANCH  30  31
ENDBRANCH  28  29
ENDBRANCH   4  28
TORSDOF 15
ENDMDL
MODEL 3
REMARK VINA RESULT: -8.125333249      2.555      8.455
REMARK  15 active torsions:
REMARK  status: ('A' for Active; 'I' for Inactive)
REMARK    1  A    between atoms: C2_2  and  O1_3 
REMARK    2  A    between atoms: C2_2  and  C3_5 
REMARK    3  A    between atoms: C3_5  and  C4_6 
REMARK    4  A    between atoms: C4_6  and  C5_7 
REMARK    5  A    between atoms: C4_6  and  C25_37 
REMARK    6  A    between atoms: C6_8  and  C7_9 
REMARK    7  A    between atoms: C7_9  and  O2_10 
REMARK    8  A    between atoms: C7_9  and  C8_12 
REMARK    9  A    between atoms: C10_15  and  C11_16 
REMARK   10  A    between atoms: C11_16  and  C12_17 
REMARK   11  A    between atoms: C13_18  and  C14_19 
REMARK   12  A    between atoms: C14_19  and  C15_20 
REMARK   13  A    between atoms: C16_23  and  O4_24 
REMARK   14  A    between atoms: C23_33  and  O6_35 
REMARK   15  A    between atoms: C25_37  and  O7_38 
ROOT
HETATM    1  C8  UNL     1      15.984  20.908  21.258  1.00  0.00     0.188 C 
HETATM    2  O3  UNL     1      16.538  19.627  21.130  1.00  0.00    -0.373 OA
HETATM    3  C9  UNL     1      17.741  19.487  21.752  1.00  0.00     0.137 C 
HETATM    4  C10 UNL     1      18.437  18.213  21.312  1.00  0.00     0.041 C 
HETATM    5  C18 UNL     1      19.867  18.547  21.533  1.00  0.00    -0.023 C 
HETATM    6  C19 UNL     1      20.035  19.855  21.684  1.00  0.00    -0.023 C 
HETATM    7  C20 UNL     1      18.728  20.566  21.581  1.00  0.00     0.037 C 
HETATM    8  C21 UNL     1      18.661  21.389  20.368  1.00  0.00     0.014 C 
HETATM    9  C22 UNL     1      17.557  21.095  19.412  1.00  0.00     0.041 C 
HETATM   10  C23 UNL     1      16.191  21.562  19.924  1.00  0.00     0.083 C 
HETATM   11  C24 UNL     1      15.179  20.977  18.953  1.00  0.00     0.049 C 
ENDROOT
BRANCH   1  12
HETATM   12  C7  UNL     1      14.530  20.710  21.603  1.00  0.00     0.172 C 
BRANCH  12  13
HETATM   13  C6  UNL     1      13.884  21.958  22.079  1.00  0.00     0.004 C 
HETATM   14  C5  UNL     1      12.852  22.508  21.435  1.00  0.00    -0.021 C 
BRANCH  14  15
HETATM   15  C4  UNL     1      12.175  23.725  21.849  1.00  0.00     0.034 C 
BRANCH  15  16
HETATM   16  C3  UNL     1      12.625  24.249  23.176  1.00  0.00     0.042 C 
BRANCH  16  17
HETATM   17  C2  UNL     1      11.565  24.533  24.182  1.00  0.00     0.114 C 
HETATM   18  C1  UNL     1      11.882  25.839  24.941  1.00  0.00     0.039 C 
BRANCH  17  19
HETATM   19  O1  UNL     1      11.504  23.579  25.223  1.00  0.00    -0.396 OA
ATOM     20  H1  UNL     1      10.618  23.684  25.548  1.00  0.00     0.210 HD
ENDBRANCH  17  19
ENDBRANCH  16  17
ENDBRANCH  15  16
BRANCH  15  21
HETATM   21  C25 UNL     1      12.204  24.814  20.790  1.00  0.00     0.172 C 
BRANCH  21  22
HETATM   22  O7  UNL     1      12.844  24.329  19.651  1.00  0.00    -0.400 OA
ATOM     23  H7  UNL     1      12.240  24.357  18.918  1.00  0.00     0.209 HD
ENDBRANCH  21  22
ENDBRANCH  15  21
ENDBRANCH  14  15
ENDBRANCH  12  13
BRANCH  12  24
HETATM   24  O2  UNL     1      14.438  19.743  22.600  1.00  0.00    -0.389 OA
ATOM     25  H2  UNL     1      13.581  19.337  22.559  1.00  0.00     0.210 HD
ENDBRANCH  12  24
ENDBRANCH   1  12
BRANCH  10  26
HETATM   26  O6  UNL     1      16.078  22.924  19.932  1.00  0.00    -0.388 OA
ATOM     27  H6  UNL     1      16.677  23.369  20.520  1.00  0.00     0.210 HD
ENDBRANCH  10  26
BRANCH   4  28
HETATM   28  C11 UNL     1      18.014  17.043  22.207  1.00  0.00     0.038 C 
BRANCH  28  29
HETATM   29  C12 UNL     1      17.941  17.503  23.608  1.00  0.00    -0.029 C 
HETATM   30  C13 UNL     1      18.705  16.927  24.526  1.00  0.00    -0.023 C 
BRANCH  30  31
HETATM   31  C14 UNL     1      18.647  17.375  25.945  1.00  0.00     0.110 C 
BRANCH  31  32
HETATM   32  C15 UNL     1      19.793  18.340  26.161  1.00  0.00     0.119 C 
HETATM   33  N1  UNL     1      19.753  19.389  26.876  1.00  0.00    -0.346 N 
HETATM   34  C16 UNL     1      21.010  20.077  26.866  1.00  0.00     0.243 C 
ATOM     35  H1  UNL     1      18.931  19.701  27.392  1.00  0.00     0.164 HD
HETATM   36  C17 UNL     1      21.707  19.461  25.676  1.00  0.00     0.230 C 
HETATM   37  O5  UNL     1      21.046  18.202  25.601  1.00  0.00    -0.335 OA
BRANCH  34  38
HETATM   38  O4  UNL     1      20.865  21.447  26.629  1.00  0.00    -0.375 OA
ATOM     39  H4  UNL     1      20.316  21.871  27.277  1.00  0.00     0.212 HD
ENDBRANCH  34  38
ENDBRANCH  31  32
ENDBRANCH  30  31
ENDBRANCH  28  29
ENDBRANCH   4  28
TORSDOF 15
ENDMDL
MODEL 4
REMARK VINA RESULT: -8.092512707      3.176      7.597
REMARK  15 active torsions:
REMARK  status: ('A' for Active; 'I' for Inactive)
REMARK    1  A    between atoms: C2_2  and  O1_3 
REMARK    2  A    between atoms: C2_2  and  C3_5 
REMARK    3  A    between atoms: C3_5  and  C4_6 
REMARK    4  A    between atoms: C4_6  and  C5_7 
REMARK    5  A    between atoms: C4_6  and  C25_37 
REMARK    6  A    between atoms: C6_8  and  C7_9 
REMARK    7  A    between atoms: C7_9  and  O2_10 
REMARK    8  A    between atoms: C7_9  and  C8_12 
REMARK    9  A    between atoms: C10_15  and  C11_16 
REMARK   10  A    between atoms: C11_16  and  C12_17 
REMARK   11  A    between atoms: C13_18  and  C14_19 
REMARK   12  A    between atoms: C14_19  and  C15_20 
REMARK   13  A    between atoms: C16_23  and  O4_24 
REMARK   14  A    between atoms: C23_33  and  O6_35 
REMARK   15  A    between atoms: C25_37  and  O7_38 
ROOT
HETATM    1  C8  UNL     1      16.149  20.568  20.342  1.00  0.00     0.188 C 
HETATM    2  O3  UNL     1      17.002  19.456  20.304  1.00  0.00    -0.373 OA
HETATM    3  C9  UNL     1      17.540  19.138  21.514  1.00  0.00     0.137 C 
HETATM    4  C10 UNL     1      18.688  18.160  21.360  1.00  0.00     0.041 C 
HETATM    5  C18 UNL     1      19.502  18.441  22.570  1.00  0.00    -0.023 C 
HETATM    6  C19 UNL     1      19.155  19.598  23.122  1.00  0.00    -0.023 C 
HETATM    7  C20 UNL     1      18.056  20.241  22.343  1.00  0.00     0.037 C 
HETATM    8  C21 UNL     1      18.518  21.461  21.673  1.00  0.00     0.014 C 
HETATM    9  C22 UNL     1      18.386  21.511  20.191  1.00  0.00     0.041 C 
HETATM   10  C23 UNL     1      16.935  21.690  19.732  1.00  0.00     0.083 C 
HETATM   11  C24 UNL     1      16.963  21.481  18.228  1.00  0.00     0.049 C 
ENDROOT
BRANCH   1  12
HETATM   12  C7  UNL     1      14.929  20.194  19.540  1.00  0.00     0.172 C 
BRANCH  12  13
HETATM   13  C6  UNL     1      13.691  20.820  20.063  1.00  0.00     0.004 C 
HETATM   14  C5  UNL     1      13.718  21.715  21.054  1.00  0.00    -0.021 C 
BRANCH  14  15
HETATM   15  C4  UNL     1      12.543  22.365  21.611  1.00  0.00     0.034 C 
BRANCH  15  16
HETATM   16  C3  UNL     1      12.207  21.928  23.001  1.00  0.00     0.042 C 
BRANCH  16  17
HETATM   17  C2  UNL     1      10.897  22.372  23.549  1.00  0.00     0.114 C 
HETATM   18  C1  UNL     1      11.108  23.232  24.813  1.00  0.00     0.039 C 
BRANCH  17  19
HETATM   19  O1  UNL     1      10.096  21.311  24.028  1.00  0.00    -0.396 OA
ATOM     20  H1  UNL     1      10.744  20.670  24.298  1.00  0.00     0.210 HD
ENDBRANCH  17  19
ENDBRANCH  16  17
ENDBRANCH  15  16
BRANCH  15  21
HETATM   21  C25 UNL     1      12.595  23.881  21.509  1.00  0.00     0.172 C 
BRANCH  21  22
HETATM   22  O7  UNL     1      13.884  24.272  21.154  1.00  0.00    -0.400 OA
ATOM     23  H7  UNL     1      13.987  25.201  21.327  1.00  0.00     0.209 HD
ENDBRANCH  21  22
ENDBRANCH  15  21
ENDBRANCH  14  15
ENDBRANCH  12  13
BRANCH  12  24
HETATM   24  O2  UNL     1      14.785  18.810  19.570  1.00  0.00    -0.389 OA
ATOM     25  H2  UNL     1      14.001  18.569  19.089  1.00  0.00     0.210 HD
ENDBRANCH  12  24
ENDBRANCH   1  12
BRANCH  10  26
HETATM   26  O6  UNL     1      16.455  22.940  20.008  1.00  0.00    -0.388 OA
ATOM     27  H6  UNL     1      17.123  23.604  20.130  1.00  0.00     0.210 HD
ENDBRANCH  10  26
BRANCH   4  28
HETATM   28  C11 UNL     1      18.163  16.720  21.390  1.00  0.00     0.038 C 
BRANCH  28  29
HETATM   29  C12 UNL     1      16.870  16.687  22.100  1.00  0.00    -0.029 C 
HETATM   30  C13 UNL     1      15.912  15.872  21.679  1.00  0.00    -0.023 C 
BRANCH  30  31
HETATM   31  C14 UNL     1      14.600  15.823  22.382  1.00  0.00     0.110 C 
BRANCH  31  32
HETATM   32  C15 UNL     1      13.527  16.127  21.358  1.00  0.00     0.119 C 
HETATM   33  N1  UNL     1      13.617  15.920  20.108  1.00  0.00    -0.346 N 
HETATM   34  C16 UNL     1      12.423  16.321  19.425  1.00  0.00     0.243 C 
ATOM     35  H1  UNL     1      14.434  15.518  19.650  1.00  0.00     0.164 HD
HETATM   36  C17 UNL     1      11.739  17.193  20.451  1.00  0.00     0.230 C 
HETATM   37  O5  UNL     1      12.297  16.676  21.655  1.00  0.00    -0.335 OA
BRANCH  34  38
HETATM   38  O4  UNL     1      12.692  17.100  18.296  1.00  0.00    -0.375 OA
ATOM     39  H4  UNL     1      12.356  17.985  18.378  1.00  0.00     0.212 HD
ENDBRANCH  34  38
ENDBRANCH  31  32
ENDBRANCH  30  31
ENDBRANCH  28  29
ENDBRANCH   4  28
TORSDOF 15
ENDMDL
MODEL 5
REMARK VINA RESULT: -8.065173170      3.448      7.633
REMARK  15 active torsions:
REMARK  status: ('A' for Active; 'I' for Inactive)
REMARK    1  A    between atoms: C2_2  and  O1_3 
REMARK    2  A    between atoms: C2_2  and  C3_5 
REMARK    3  A    between atoms: C3_5  and  C4_6 
REMARK    4  A    between atoms: C4_6  and  C5_7 
REMARK    5  A    between atoms: C4_6  and  C25_37 
REMARK    6  A    between atoms: C6_8  and  C7_9 
REMARK    7  A    between atoms: C7_9  and  O2_10 
REMARK    8  A    between atoms: C7_9  and  C8_12 
REMARK    9  A    between atoms: C10_15  and  C11_16 
REMARK   10  A    between atoms: C11_16  and  C12_17 
REMARK   11  A    between atoms: C13_18  and  C14_19 
REMARK   12  A    between atoms: C14_19  and  C15_20 
REMARK   13  A    between atoms: C16_23  and  O4_24 
REMARK   14  A    between atoms: C23_33  and  O6_35 
REMARK   15  A    between atoms: C25_37  and  O7_38 
ROOT
HETATM    1  C8  UNL     1      15.572  20.893  20.543  1.00  0.00     0.188 C 
HETATM    2  O3  UNL     1      16.217  19.657  20.398  1.00  0.00    -0.373 OA
HETATM    3  C9  UNL     1      16.861  19.242  21.523  1.00  0.00     0.137 C 
HETATM    4  C10 UNL     1      17.799  18.090  21.220  1.00  0.00     0.041 C 
HETATM    5  C18 UNL     1      18.812  18.220  22.299  1.00  0.00    -0.023 C 
HETATM    6  C19 UNL     1      18.741  19.411  22.880  1.00  0.00    -0.023 C 
HETATM    7  C20 UNL     1      17.664  20.235  22.257  1.00  0.00     0.037 C 
HETATM    8  C21 UNL     1      18.221  21.370  21.513  1.00  0.00     0.014 C 
HETATM    9  C22 UNL     1      17.889  21.458  20.064  1.00  0.00     0.041 C 
HETATM   10  C23 UNL     1      16.437  21.878  19.814  1.00  0.00     0.083 C 
HETATM   11  C24 UNL     1      16.216  21.684  18.323  1.00  0.00     0.049 C 
ENDROOT
BRANCH   1  12
HETATM   12  C7  UNL     1      14.205  20.734  19.927  1.00  0.00     0.172 C 
BRANCH  12  13
HETATM   13  C6  UNL     1      13.113  21.043  20.880  1.00  0.00     0.004 C 
HETATM   14  C5  UNL     1      13.280  21.897  21.893  1.00  0.00    -0.021 C 
BRANCH  14  15
HETATM   15  C4  UNL     1      12.252  22.243  22.860  1.00  0.00     0.034 C 
BRANCH  15  16
HETATM   16  C3  UNL     1      11.891  23.694  22.871  1.00  0.00     0.042 C 
BRANCH  16  17
HETATM   17  C2  UNL     1      11.473  24.274  24.176  1.00  0.00     0.114 C 
HETATM   18  C1  UNL     1      12.290  25.546  24.484  1.00  0.00     0.039 C 
BRANCH  17  19
HETATM   19  O1  UNL     1      11.766  23.444  25.282  1.00  0.00    -0.396 OA
ATOM     20  H1  UNL     1      12.657  23.695  25.497  1.00  0.00     0.210 HD
ENDBRANCH  17  19
ENDBRANCH  16  17
ENDBRANCH  15  16
BRANCH  15  21
HETATM   21  C25 UNL     1      11.013  21.369  22.752  1.00  0.00     0.172 C 
BRANCH  21  22
HETATM   22  O7  UNL     1      10.349  21.363  23.977  1.00  0.00    -0.400 OA
ATOM     23  H7  UNL     1      10.002  20.493  24.139  1.00  0.00     0.209 HD
ENDBRANCH  21  22
ENDBRANCH  15  21
ENDBRANCH  14  15
ENDBRANCH  12  13
BRANCH  12  24
HETATM   24  O2  UNL     1      14.067  19.420  19.488  1.00  0.00    -0.389 OA
ATOM     25  H2  UNL     1      14.161  19.398  18.543  1.00  0.00     0.210 HD
ENDBRANCH  12  24
ENDBRANCH   1  12
BRANCH  10  26
HETATM   26  O6  UNL     1      16.213  23.186  20.139  1.00  0.00    -0.388 OA
ATOM     27  H6  UNL     1      16.773  23.526  20.827  1.00  0.00     0.210 HD
ENDBRANCH  10  26
BRANCH   4  28
HETATM   28  C11 UNL     1      17.054  16.756  21.343  1.00  0.00     0.038 C 
BRANCH  28  29
HETATM   29  C12 UNL     1      16.435  16.422  20.045  1.00  0.00    -0.029 C 
HETATM   30  C13 UNL     1      15.133  16.176  19.985  1.00  0.00    -0.023 C 
BRANCH  30  31
HETATM   31  C14 UNL     1      14.488  15.838  18.687  1.00  0.00     0.110 C 
BRANCH  31  32
HETATM   32  C15 UNL     1      13.019  16.184  18.808  1.00  0.00     0.119 C 
HETATM   33  N1  UNL     1      12.106  15.831  17.999  1.00  0.00    -0.346 N 
HETATM   34  C16 UNL     1      10.826  16.327  18.406  1.00  0.00     0.243 C 
ATOM     35  H1  UNL     1      12.265  15.265  17.165  1.00  0.00     0.164 HD
HETATM   36  C17 UNL     1      11.196  17.397  19.406  1.00  0.00     0.230 C 
HETATM   37  O5  UNL     1      12.476  16.938  19.827  1.00  0.00    -0.335 OA
BRANCH  34  38
HETATM   38  O4  UNL     1      10.129  16.931  17.356  1.00  0.00    -0.375 OA
ATOM     39  H4  UNL     1       9.262  17.220  17.614  1.00  0.00     0.212 HD
ENDBRANCH  34  38
ENDBRANCH  31  32
ENDBRANCH  30  31
ENDBRANCH  28  29
ENDBRANCH   4  28
TORSDOF 15
ENDMDL
