MODEL 1
REMARK VINA RESULT: -7.089233378      0.000      0.000
REMARK  7 active torsions:
REMARK  status: ('A' for Active; 'I' for Inactive)
REMARK    1  A    between atoms: N2_3  and  N3_4 
REMARK    2  A    between atoms: N2_3  and  C3_15 
REMARK       I    between atoms: N3_4  and  C2_6 
REMARK       I    between atoms: C2_6  and  N4_7 
REMARK       I    between atoms: C2_6  and  N5_11 
REMARK    3  A    between atoms: C4_18  and  N7_19 
REMARK       I    between atoms: N7_19  and  C5_21 
REMARK    4  A    between atoms: N9_24  and  C6_25 
REMARK    5  A    between atoms: N11_29  and  C8_30 
REMARK    6  A    between atoms: C8_30  and  C9_31 
REMARK    7  A    between atoms: C14_43  and  O4_44 
ROOT
HETATM    1  N1  UNL     1      40.078  -1.837  12.792  1.00  0.00    -0.170 NA
HETATM    2  C1  UNL     1      39.143  -1.217  12.492  1.00  0.00     0.206 C 
HETATM    3  N2  UNL     1      37.987  -0.468  12.129  1.00  0.00    -0.171 N 
ENDROOT
BRANCH   3   4
HETATM    4  N3  UNL     1      37.067  -1.136  11.362  1.00  0.00    -0.266 N 
HETATM    5  C2  UNL     1      36.547  -2.354  11.872  1.00  0.00     0.495 C 
HETATM    6  N4  UNL     1      35.612  -2.865  10.855  1.00  0.00    -0.032 N 
HETATM    7  N5  UNL     1      35.787  -2.233  13.097  1.00  0.00    -0.032 N 
ATOM      8  H43 UNL     1      34.890  -2.194  10.597  1.00  0.00     0.279 HD
ATOM      9  H42 UNL     1      36.033  -2.961   9.930  1.00  0.00     0.279 HD
ATOM     10  H41 UNL     1      35.239  -3.741  11.222  1.00  0.00     0.279 HD
ATOM     11  H53 UNL     1      36.343  -1.762  13.811  1.00  0.00     0.279 HD
ATOM     12  H52 UNL     1      35.036  -1.553  12.978  1.00  0.00     0.279 HD
ATOM     13  H51 UNL     1      35.413  -3.108  13.463  1.00  0.00     0.279 HD
ATOM     14  H3  UNL     1      36.768  -0.770  10.458  1.00  0.00     0.185 HD
ENDBRANCH   3   4
BRANCH   3  15
HETATM   15  C3  UNL     1      37.896   0.871  12.596  1.00  0.00     0.192 A 
HETATM   16  N6  UNL     1      39.023   1.584  12.774  1.00  0.00    -0.170 N 
HETATM   17  C4  UNL     1      38.976   2.871  13.219  1.00  0.00     0.698 A 
ATOM     18  H6  UNL     1      39.926   1.155  12.573  1.00  0.00     0.186 HD
HETATM   19  N9  UNL     1      37.792   3.430  13.480  1.00  0.00    -0.105 N 
HETATM   20  C13 UNL     1      36.633   2.737  13.311  1.00  0.00     0.304 A 
HETATM   21  O3  UNL     1      35.532   3.311  13.573  1.00  0.00    -0.264 OA
HETATM   22  C14 UNL     1      36.665   1.432  12.860  1.00  0.00     0.183 A 
BRANCH  17  23
HETATM   23  N7  UNL     1      40.148   3.635  13.415  1.00  0.00    -0.143 N 
HETATM   24  C5  UNL     1      40.989   3.879  12.293  1.00  0.00     0.347 C 
HETATM   25  N8  UNL     1      42.193   4.650  12.454  1.00  0.00    -0.039 NA
HETATM   26  O1  UNL     1      40.712   3.436  11.145  1.00  0.00    -0.250 OA
ATOM     27  H7  UNL     1      40.386   4.001  14.337  1.00  0.00     0.188 HD
ENDBRANCH  17  23
BRANCH  19  28
HETATM   28  C6  UNL     1      37.727   4.767  13.941  1.00  0.00     0.094 A 
HETATM   29  C7  UNL     1      37.707   5.915  13.176  1.00  0.00     0.139 A 
HETATM   30  N10 UNL     1      37.634   6.986  13.985  1.00  0.00    -0.308 N 
HETATM   31  N11 UNL     1      37.604   6.588  15.243  1.00  0.00    -0.299 N 
ATOM     32  H10 UNL     1      37.606   7.958  13.674  1.00  0.00     0.186 HD
HETATM   33  C12 UNL     1      37.660   5.223  15.251  1.00  0.00     0.142 A 
BRANCH  31  34
HETATM   34  C8  UNL     1      37.519   7.441  16.395  1.00  0.00     0.175 C 
BRANCH  34  35
HETATM   35  C9  UNL     1      36.962   6.800  17.631  1.00  0.00     0.129 C 
HETATM   36  C10 UNL     1      37.787   7.131  18.835  1.00  0.00     0.205 C 
HETATM   37  O2  UNL     1      37.320   8.437  19.206  1.00  0.00    -0.320 OA
HETATM   38  C11 UNL     1      36.060   8.658  18.653  1.00  0.00     0.213 C 
HETATM   39  N12 UNL     1      35.348   9.750  18.785  1.00  0.00    -0.365 N 
HETATM   40  N13 UNL     1      35.722   7.485  17.938  1.00  0.00    -0.348 N 
ATOM     41 2H12 UNL     1      35.592  10.596  19.300  1.00  0.00     0.159 HD
ATOM     42 1H12 UNL     1      34.426   9.912  18.381  1.00  0.00     0.159 HD
ATOM     43  H13 UNL     1      34.782   7.179  17.686  1.00  0.00     0.163 HD
ENDBRANCH  34  35
ENDBRANCH  31  34
ENDBRANCH  19  28
BRANCH  22  44
HETATM   44  O4  UNL     1      35.474   0.727  12.689  1.00  0.00    -0.353 OA
ATOM     45  H4  UNL     1      35.417  -0.046  12.141  1.00  0.00     0.218 HD
ENDBRANCH  22  44
ENDBRANCH   3  15
TORSDOF 7
ENDMDL
MODEL 2
REMARK VINA RESULT: -7.080727610      3.930      8.231
REMARK  7 active torsions:
REMARK  status: ('A' for Active; 'I' for Inactive)
REMARK    1  A    between atoms: N2_3  and  N3_4 
REMARK    2  A    between atoms: N2_3  and  C3_15 
REMARK       I    between atoms: N3_4  and  C2_6 
REMARK       I    between atoms: C2_6  and  N4_7 
REMARK       I    between atoms: C2_6  and  N5_11 
REMARK    3  A    between atoms: C4_18  and  N7_19 
REMARK       I    between atoms: N7_19  and  C5_21 
REMARK    4  A    between atoms: N9_24  and  C6_25 
REMARK    5  A    between atoms: N11_29  and  C8_30 
REMARK    6  A    between atoms: C8_30  and  C9_31 
REMARK    7  A    between atoms: C14_43  and  O4_44 
ROOT
HETATM    1  N1  UNL     1      41.518   7.554  10.584  1.00  0.00    -0.170 NA
HETATM    2  C1  UNL     1      41.016   6.561  10.250  1.00  0.00     0.206 C 
HETATM    3  N2  UNL     1      40.411   5.342   9.828  1.00  0.00    -0.171 N 
ENDROOT
BRANCH   3   4
HETATM    4  N3  UNL     1      40.047   5.290   8.507  1.00  0.00    -0.266 N 
HETATM    5  C2  UNL     1      41.059   5.518   7.538  1.00  0.00     0.495 C 
HETATM    6  N4  UNL     1      40.403   5.427   6.222  1.00  0.00    -0.032 N 
HETATM    7  N5  UNL     1      42.128   4.543   7.525  1.00  0.00    -0.032 N 
ATOM      8  H43 UNL     1      39.898   4.552   6.082  1.00  0.00     0.279 HD
ATOM      9  H42 UNL     1      39.602   6.052   6.125  1.00  0.00     0.279 HD
ATOM     10  H41 UNL     1      41.130   5.590   5.526  1.00  0.00     0.279 HD
ATOM     11  H53 UNL     1      42.543   4.464   8.454  1.00  0.00     0.279 HD
ATOM     12  H52 UNL     1      41.745   3.604   7.420  1.00  0.00     0.279 HD
ATOM     13  H51 UNL     1      42.855   4.706   6.829  1.00  0.00     0.279 HD
ATOM     14  H3  UNL     1      39.085   5.095   8.231  1.00  0.00     0.185 HD
ENDBRANCH   3   4
BRANCH   3  15
HETATM   15  C3  UNL     1      40.253   4.315  10.797  1.00  0.00     0.192 A 
HETATM   16  N6  UNL     1      39.207   4.360  11.640  1.00  0.00    -0.170 N 
HETATM   17  C4  UNL     1      39.022   3.393  12.582  1.00  0.00     0.698 A 
ATOM     18  H6  UNL     1      38.541   5.130  11.574  1.00  0.00     0.186 HD
HETATM   19  N9  UNL     1      39.895   2.386  12.666  1.00  0.00    -0.105 N 
HETATM   20  C13 UNL     1      40.964   2.310  11.828  1.00  0.00     0.304 A 
HETATM   21  O3  UNL     1      41.767   1.334  11.946  1.00  0.00    -0.264 OA
HETATM   22  C14 UNL     1      41.164   3.283  10.869  1.00  0.00     0.183 A 
BRANCH  17  23
HETATM   23  N7  UNL     1      37.931   3.425  13.479  1.00  0.00    -0.143 N 
HETATM   24  C5  UNL     1      36.614   3.414  12.939  1.00  0.00     0.347 C 
HETATM   25  N8  UNL     1      35.478   3.449  13.820  1.00  0.00    -0.039 NA
HETATM   26  O1  UNL     1      36.405   3.375  11.695  1.00  0.00    -0.250 OA
ATOM     27  H7  UNL     1      38.082   3.455  14.487  1.00  0.00     0.188 HD
ENDBRANCH  17  23
BRANCH  19  28
HETATM   28  C6  UNL     1      39.715   1.373  13.637  1.00  0.00     0.094 A 
HETATM   29  C7  UNL     1      40.142   1.387  14.950  1.00  0.00     0.139 A 
HETATM   30  N10 UNL     1      39.772   0.243  15.550  1.00  0.00    -0.308 N 
HETATM   31  N11 UNL     1      39.122  -0.517  14.688  1.00  0.00    -0.299 N 
ATOM     32  H10 UNL     1      39.964  -0.001  16.522  1.00  0.00     0.186 HD
HETATM   33  C12 UNL     1      39.070   0.151  13.497  1.00  0.00     0.142 A 
BRANCH  31  34
HETATM   34  C8  UNL     1      38.565  -1.813  14.960  1.00  0.00     0.175 C 
BRANCH  34  35
HETATM   35  C9  UNL     1      38.645  -2.797  13.831  1.00  0.00     0.129 C 
HETATM   36  C10 UNL     1      38.617  -4.206  14.335  1.00  0.00     0.205 C 
HETATM   37  O2  UNL     1      37.220  -4.450  14.555  1.00  0.00    -0.320 OA
HETATM   38  C11 UNL     1      36.464  -3.541  13.818  1.00  0.00     0.213 C 
HETATM   39  N12 UNL     1      35.155  -3.477  13.794  1.00  0.00    -0.365 N 
HETATM   40  N13 UNL     1      37.384  -2.724  13.120  1.00  0.00    -0.348 N 
ATOM     41 2H12 UNL     1      34.492  -4.066  14.297  1.00  0.00     0.159 HD
ATOM     42 1H12 UNL     1      34.602  -2.811  13.254  1.00  0.00     0.159 HD
ATOM     43  H13 UNL     1      37.196  -2.185  12.274  1.00  0.00     0.163 HD
ENDBRANCH  34  35
ENDBRANCH  31  34
ENDBRANCH  19  28
BRANCH  22  44
HETATM   44  O4  UNL     1      42.263   3.199  10.013  1.00  0.00    -0.353 OA
ATOM     45  H4  UNL     1      42.607   3.957   9.555  1.00  0.00     0.218 HD
ENDBRANCH  22  44
ENDBRANCH   3  15
TORSDOF 7
ENDMDL
MODEL 3
REMARK VINA RESULT: -6.864949409      3.200      5.621
REMARK  7 active torsions:
REMARK  status: ('A' for Active; 'I' for Inactive)
REMARK    1  A    between atoms: N2_3  and  N3_4 
REMARK    2  A    between atoms: N2_3  and  C3_15 
REMARK       I    between atoms: N3_4  and  C2_6 
REMARK       I    between atoms: C2_6  and  N4_7 
REMARK       I    between atoms: C2_6  and  N5_11 
REMARK    3  A    between atoms: C4_18  and  N7_19 
REMARK       I    between atoms: N7_19  and  C5_21 
REMARK    4  A    between atoms: N9_24  and  C6_25 
REMARK    5  A    between atoms: N11_29  and  C8_30 
REMARK    6  A    between atoms: C8_30  and  C9_31 
REMARK    7  A    between atoms: C14_43  and  O4_44 
ROOT
HETATM    1  N1  UNL     1      42.296   3.097   9.909  1.00  0.00    -0.170 NA
HETATM    2  C1  UNL     1      41.416   3.852   9.972  1.00  0.00     0.206 C 
HETATM    3  N2  UNL     1      40.328   4.769  10.038  1.00  0.00    -0.171 N 
ENDROOT
BRANCH   3   4
HETATM    4  N3  UNL     1      39.908   5.274   8.835  1.00  0.00    -0.266 N 
HETATM    5  C2  UNL     1      40.255   6.617   8.530  1.00  0.00     0.495 C 
HETATM    6  N4  UNL     1      39.670   6.908   7.209  1.00  0.00    -0.032 N 
HETATM    7  N5  UNL     1      41.673   6.874   8.411  1.00  0.00    -0.032 N 
ATOM      8  H43 UNL     1      39.952   6.244   6.488  1.00  0.00     0.279 HD
ATOM      9  H42 UNL     1      38.667   6.728   7.162  1.00  0.00     0.279 HD
ATOM     10  H41 UNL     1      39.919   7.872   6.991  1.00  0.00     0.279 HD
ATOM     11  H53 UNL     1      42.158   6.569   9.256  1.00  0.00     0.279 HD
ATOM     12  H52 UNL     1      42.088   6.240   7.728  1.00  0.00     0.279 HD
ATOM     13  H51 UNL     1      41.922   7.839   8.192  1.00  0.00     0.279 HD
ATOM     14  H3  UNL     1      39.367   4.706   8.182  1.00  0.00     0.185 HD
ENDBRANCH   3   4
BRANCH   3  15
HETATM   15  C3  UNL     1      39.789   5.060  11.320  1.00  0.00     0.192 A 
HETATM   16  N6  UNL     1      38.930   4.193  11.885  1.00  0.00    -0.170 N 
HETATM   17  C4  UNL     1      38.393   4.438  13.114  1.00  0.00     0.698 A 
ATOM     18  H6  UNL     1      38.676   3.340  11.388  1.00  0.00     0.186 HD
HETATM   19  N9  UNL     1      38.728   5.555  13.764  1.00  0.00    -0.105 N 
HETATM   20  C13 UNL     1      39.594   6.453  13.220  1.00  0.00     0.304 A 
HETATM   21  O3  UNL     1      39.882   7.501  13.875  1.00  0.00    -0.264 OA
HETATM   22  C14 UNL     1      40.146   6.218  11.976  1.00  0.00     0.183 A 
BRANCH  17  23
HETATM   23  N7  UNL     1      37.487   3.541  13.723  1.00  0.00    -0.143 N 
HETATM   24  C5  UNL     1      36.354   3.116  12.974  1.00  0.00     0.347 C 
HETATM   25  N8  UNL     1      35.407   2.205  13.561  1.00  0.00    -0.039 NA
HETATM   26  O1  UNL     1      36.147   3.516  11.795  1.00  0.00    -0.250 OA
ATOM     27  H7  UNL     1      37.640   3.208  14.675  1.00  0.00     0.188 HD
ENDBRANCH  17  23
BRANCH  19  28
HETATM   28  C6  UNL     1      38.180   5.822  15.041  1.00  0.00     0.094 A 
HETATM   29  C7  UNL     1      37.002   6.483  15.325  1.00  0.00     0.139 A 
HETATM   30  N10 UNL     1      36.828   6.527  16.657  1.00  0.00    -0.308 N 
HETATM   31  N11 UNL     1      37.839   5.925  17.255  1.00  0.00    -0.299 N 
ATOM     32  H10 UNL     1      36.036   6.960  17.133  1.00  0.00     0.186 HD
HETATM   33  C12 UNL     1      38.693   5.478  16.285  1.00  0.00     0.142 A 
BRANCH  31  34
HETATM   34  C8  UNL     1      38.005   5.764  18.672  1.00  0.00     0.175 C 
BRANCH  34  35
HETATM   35  C9  UNL     1      37.434   4.501  19.246  1.00  0.00     0.129 C 
HETATM   36  C10 UNL     1      38.366   3.887  20.243  1.00  0.00     0.205 C 
HETATM   37  O2  UNL     1      38.113   4.640  21.439  1.00  0.00    -0.320 OA
HETATM   38  C11 UNL     1      36.868   5.259  21.348  1.00  0.00     0.213 C 
HETATM   39  N12 UNL     1      36.329   6.030  22.261  1.00  0.00    -0.365 N 
HETATM   40  N13 UNL     1      36.325   4.890  20.095  1.00  0.00    -0.348 N 
ATOM     41 2H12 UNL     1      36.721   6.296  23.164  1.00  0.00     0.159 HD
ATOM     42 1H12 UNL     1      35.418   6.483  22.194  1.00  0.00     0.159 HD
ATOM     43  H13 UNL     1      35.337   4.896  19.838  1.00  0.00     0.163 HD
ENDBRANCH  34  35
ENDBRANCH  31  34
ENDBRANCH  19  28
BRANCH  22  44
HETATM   44  O4  UNL     1      41.033   7.142  11.425  1.00  0.00    -0.353 OA
ATOM     45  H4  UNL     1      41.467   7.804  11.950  1.00  0.00     0.218 HD
ENDBRANCH  22  44
ENDBRANCH   3  15
TORSDOF 7
ENDMDL
MODEL 4
REMARK VINA RESULT: -6.817197213      2.072      2.431
REMARK  7 active torsions:
REMARK  status: ('A' for Active; 'I' for Inactive)
REMARK    1  A    between atoms: N2_3  and  N3_4 
REMARK    2  A    between atoms: N2_3  and  C3_15 
REMARK       I    between atoms: N3_4  and  C2_6 
REMARK       I    between atoms: C2_6  and  N4_7 
REMARK       I    between atoms: C2_6  and  N5_11 
REMARK    3  A    between atoms: C4_18  and  N7_19 
REMARK       I    between atoms: N7_19  and  C5_21 
REMARK    4  A    between atoms: N9_24  and  C6_25 
REMARK    5  A    between atoms: N11_29  and  C8_30 
REMARK    6  A    between atoms: C8_30  and  C9_31 
REMARK    7  A    between atoms: C14_43  and  O4_44 
ROOT
HETATM    1  N1  UNL     1      40.318  -1.144  12.269  1.00  0.00    -0.170 NA
HETATM    2  C1  UNL     1      39.274  -0.648  12.148  1.00  0.00     0.206 C 
HETATM    3  N2  UNL     1      37.987  -0.055  12.006  1.00  0.00    -0.171 N 
ENDROOT
BRANCH   3   4
HETATM    4  N3  UNL     1      37.068  -0.799  11.312  1.00  0.00    -0.266 N 
HETATM    5  C2  UNL     1      36.720  -2.071  11.839  1.00  0.00     0.495 C 
HETATM    6  N4  UNL     1      35.746  -2.656  10.901  1.00  0.00    -0.032 N 
HETATM    7  N5  UNL     1      36.072  -2.043  13.132  1.00  0.00    -0.032 N 
ATOM      8  H43 UNL     1      34.940  -2.055  10.728  1.00  0.00     0.279 HD
ATOM      9  H42 UNL     1      36.083  -2.695   9.939  1.00  0.00     0.279 HD
ATOM     10  H41 UNL     1      35.496  -3.570  11.280  1.00  0.00     0.279 HD
ATOM     11  H53 UNL     1      36.645  -1.530  13.802  1.00  0.00     0.279 HD
ATOM     12  H52 UNL     1      35.251  -1.439  13.100  1.00  0.00     0.279 HD
ATOM     13  H51 UNL     1      35.822  -2.957  13.510  1.00  0.00     0.279 HD
ATOM     14  H3  UNL     1      36.650  -0.451  10.449  1.00  0.00     0.185 HD
ENDBRANCH   3   4
BRANCH   3  15
HETATM   15  C3  UNL     1      37.783   1.223  12.592  1.00  0.00     0.192 A 
HETATM   16  N6  UNL     1      38.844   2.006  12.851  1.00  0.00    -0.170 N 
HETATM   17  C4  UNL     1      38.687   3.238  13.411  1.00  0.00     0.698 A 
ATOM     18  H6  UNL     1      39.782   1.673  12.624  1.00  0.00     0.186 HD
HETATM   19  N9  UNL     1      37.460   3.672  13.706  1.00  0.00    -0.105 N 
HETATM   20  C13 UNL     1      36.364   2.904  13.457  1.00  0.00     0.304 A 
HETATM   21  O3  UNL     1      35.217   3.359  13.754  1.00  0.00    -0.264 OA
HETATM   22  C14 UNL     1      36.507   1.654  12.889  1.00  0.00     0.183 A 
BRANCH  17  23
HETATM   23  N7  UNL     1      39.791   4.074  13.694  1.00  0.00    -0.143 N 
HETATM   24  C5  UNL     1      40.595   4.519  12.607  1.00  0.00     0.347 C 
HETATM   25  N8  UNL     1      41.729   5.369  12.855  1.00  0.00    -0.039 NA
HETATM   26  O1  UNL     1      40.346   4.188  11.415  1.00  0.00    -0.250 OA
ATOM     27  H7  UNL     1      40.006   4.352  14.652  1.00  0.00     0.188 HD
ENDBRANCH  17  23
BRANCH  19  28
HETATM   28  C6  UNL     1      37.280   4.950  14.286  1.00  0.00     0.094 A 
HETATM   29  C7  UNL     1      37.112   5.245  15.624  1.00  0.00     0.139 A 
HETATM   30  N10 UNL     1      36.981   6.574  15.772  1.00  0.00    -0.308 N 
HETATM   31  N11 UNL     1      37.057   7.160  14.592  1.00  0.00    -0.299 N 
ATOM     32  H10 UNL     1      36.844   7.057  16.661  1.00  0.00     0.186 HD
HETATM   33  C12 UNL     1      37.241   6.185  13.652  1.00  0.00     0.142 A 
BRANCH  31  34
HETATM   34  C8  UNL     1      36.968   8.572  14.344  1.00  0.00     0.175 C 
BRANCH  34  35
HETATM   35  C9  UNL     1      37.685   9.443  15.332  1.00  0.00     0.129 C 
HETATM   36  C10 UNL     1      39.002   9.906  14.793  1.00  0.00     0.205 C 
HETATM   37  O2  UNL     1      38.645  11.014  13.954  1.00  0.00    -0.320 OA
HETATM   38  C11 UNL     1      37.389  11.492  14.319  1.00  0.00     0.213 C 
HETATM   39  N12 UNL     1      36.757  12.491  13.753  1.00  0.00    -0.365 N 
HETATM   40  N13 UNL     1      36.952  10.692  15.400  1.00  0.00    -0.348 N 
ATOM     41 2H12 UNL     1      37.072  13.068  12.973  1.00  0.00     0.159 HD
ATOM     42 1H12 UNL     1      35.837  12.841  14.020  1.00  0.00     0.159 HD
ATOM     43  H13 UNL     1      36.251  10.946  16.098  1.00  0.00     0.163 HD
ENDBRANCH  34  35
ENDBRANCH  31  34
ENDBRANCH  19  28
BRANCH  22  44
HETATM   44  O4  UNL     1      35.380   0.872  12.636  1.00  0.00    -0.353 OA
ATOM     45  H4  UNL     1      34.617   0.885  13.202  1.00  0.00     0.218 HD
ENDBRANCH  22  44
ENDBRANCH   3  15
TORSDOF 7
ENDMDL
MODEL 5
REMARK VINA RESULT: -6.807389572      1.941      2.123
REMARK  7 active torsions:
REMARK  status: ('A' for Active; 'I' for Inactive)
REMARK    1  A    between atoms: N2_3  and  N3_4 
REMARK    2  A    between atoms: N2_3  and  C3_15 
REMARK       I    between atoms: N3_4  and  C2_6 
REMARK       I    between atoms: C2_6  and  N4_7 
REMARK       I    between atoms: C2_6  and  N5_11 
REMARK    3  A    between atoms: C4_18  and  N7_19 
REMARK       I    between atoms: N7_19  and  C5_21 
REMARK    4  A    between atoms: N9_24  and  C6_25 
REMARK    5  A    between atoms: N11_29  and  C8_30 
REMARK    6  A    between atoms: C8_30  and  C9_31 
REMARK    7  A    between atoms: C14_43  and  O4_44 
ROOT
HETATM    1  N1  UNL     1      39.576  -3.066  14.065  1.00  0.00    -0.170 NA
HETATM    2  C1  UNL     1      38.829  -2.432  13.442  1.00  0.00     0.206 C 
HETATM    3  N2  UNL     1      37.899  -1.662  12.685  1.00  0.00    -0.171 N 
ENDROOT
BRANCH   3   4
HETATM    4  N3  UNL     1      36.947  -2.381  12.011  1.00  0.00    -0.266 N 
HETATM    5  C2  UNL     1      36.238  -3.374  12.738  1.00  0.00     0.495 C 
HETATM    6  N4  UNL     1      35.306  -4.000  11.784  1.00  0.00    -0.032 N 
HETATM    7  N5  UNL     1      35.428  -2.876  13.828  1.00  0.00    -0.032 N 
ATOM      8  H43 UNL     1      34.697  -3.330  11.314  1.00  0.00     0.279 HD
ATOM      9  H42 UNL     1      35.765  -4.362  10.947  1.00  0.00     0.279 HD
ATOM     10  H41 UNL     1      34.797  -4.713  12.305  1.00  0.00     0.279 HD
ATOM     11  H53 UNL     1      35.998  -2.316  14.462  1.00  0.00     0.279 HD
ATOM     12  H52 UNL     1      34.784  -2.161  13.489  1.00  0.00     0.279 HD
ATOM     13  H51 UNL     1      34.918  -3.589  14.349  1.00  0.00     0.279 HD
ATOM     14  H3  UNL     1      36.755  -2.210  11.024  1.00  0.00     0.185 HD
ENDBRANCH   3   4
BRANCH   3  15
HETATM   15  C3  UNL     1      38.043  -0.248  12.709  1.00  0.00     0.192 A 
HETATM   16  N6  UNL     1      39.275   0.289  12.719  1.00  0.00    -0.170 N 
HETATM   17  C4  UNL     1      39.452   1.640  12.741  1.00  0.00     0.698 A 
ATOM     18  H6  UNL     1      40.091  -0.324  12.711  1.00  0.00     0.186 HD
HETATM   19  N9  UNL     1      38.384   2.440  12.750  1.00  0.00    -0.105 N 
HETATM   20  C13 UNL     1      37.122   1.929  12.740  1.00  0.00     0.304 A 
HETATM   21  O3  UNL     1      36.137   2.729  12.750  1.00  0.00    -0.264 OA
HETATM   22  C14 UNL     1      36.928   0.562  12.718  1.00  0.00     0.183 A 
BRANCH  17  23
HETATM   23  N7  UNL     1      40.739   2.222  12.755  1.00  0.00    -0.143 N 
HETATM   24  C5  UNL     1      41.673   1.819  11.760  1.00  0.00     0.347 C 
HETATM   25  N8  UNL     1      42.995   2.388  11.744  1.00  0.00    -0.039 NA
HETATM   26  O1  UNL     1      41.379   0.967  10.877  1.00  0.00    -0.250 OA
ATOM     27  H7  UNL     1      40.993   2.914  13.461  1.00  0.00     0.188 HD
ENDBRANCH  17  23
BRANCH  19  28
HETATM   28  C6  UNL     1      38.551   3.845  12.770  1.00  0.00     0.094 A 
HETATM   29  C7  UNL     1      38.851   4.667  11.703  1.00  0.00     0.139 A 
HETATM   30  N10 UNL     1      38.919   5.940  12.128  1.00  0.00    -0.308 N 
HETATM   31  N11 UNL     1      38.676   5.985  13.425  1.00  0.00    -0.299 N 
ATOM     32  H10 UNL     1      39.126   6.747  11.540  1.00  0.00     0.186 HD
HETATM   33  C12 UNL     1      38.445   4.708  13.853  1.00  0.00     0.142 A 
BRANCH  31  34
HETATM   34  C8  UNL     1      38.652   7.170  14.237  1.00  0.00     0.175 C 
BRANCH  34  35
HETATM   35  C9  UNL     1      37.880   7.057  15.517  1.00  0.00     0.129 C 
HETATM   36  C10 UNL     1      38.065   8.270  16.373  1.00  0.00     0.205 C 
HETATM   37  O2  UNL     1      37.144   9.216  15.809  1.00  0.00    -0.320 OA
HETATM   38  C11 UNL     1      36.175   8.541  15.069  1.00  0.00     0.213 C 
HETATM   39  N12 UNL     1      35.187   9.100  14.413  1.00  0.00    -0.365 N 
HETATM   40  N13 UNL     1      36.476   7.163  15.173  1.00  0.00    -0.348 N 
ATOM     41 2H12 UNL     1      34.971  10.093  14.338  1.00  0.00     0.159 HD
ATOM     42 1H12 UNL     1      34.478   8.606  13.871  1.00  0.00     0.159 HD
ATOM     43  H13 UNL     1      35.826   6.389  15.032  1.00  0.00     0.163 HD
ENDBRANCH  34  35
ENDBRANCH  31  34
ENDBRANCH  19  28
BRANCH  22  44
HETATM   44  O4  UNL     1      35.632   0.046  12.708  1.00  0.00    -0.353 OA
ATOM     45  H4  UNL     1      34.873   0.584  12.515  1.00  0.00     0.218 HD
ENDBRANCH  22  44
ENDBRANCH   3  15
TORSDOF 7
ENDMDL
