MODEL 1
REMARK VINA RESULT: -6.216118060      0.000      0.000
REMARK  10 active torsions:
REMARK  status: ('A' for Active; 'I' for Inactive)
REMARK    1  A    between atoms: O1_2  and  C2_3 
REMARK    2  A    between atoms: C2_3  and  C3_5 
REMARK    3  A    between atoms: N1_7  and  C4_8 
REMARK    4  A    between atoms: N4_13  and  C5_14 
REMARK    5  A    between atoms: C5_14  and  C7_25 
REMARK    6  A    between atoms: N5_15  and  N6_17 
REMARK    7  A    between atoms: N6_17  and  C6_19 
REMARK    8  A    between atoms: N7_20  and  N8_22 
REMARK    9  A    between atoms: C8_26  and  O3_27 
REMARK   10  A    between atoms: C11_37  and  O6_38 
ROOT
HETATM    1  C5  UNL     1      38.730   2.709  13.323  1.00  0.00     0.166 C 
HETATM    2  N5  UNL     1      38.324   3.526  14.236  1.00  0.00    -0.282 N 
ATOM      3  H5  UNL     1      37.591   3.197  14.864  1.00  0.00     0.188 HD
ENDROOT
BRANCH   1   4
HETATM    4  N4  UNL     1      39.736   3.104  12.433  1.00  0.00    -0.197 N 
HETATM    5  N3  UNL     1      40.979   2.650  12.352  1.00  0.00    -0.231 N 
HETATM    6  N2  UNL     1      41.668   3.256  11.409  1.00  0.00    -0.266 N 
ATOM      7  H3  UNL     1      41.357   1.917  12.951  1.00  0.00     0.209 HD
HETATM    8  C4  UNL     1      40.874   4.157  10.818  1.00  0.00     0.189 A 
ATOM      9  H2  UNL     1      42.642   3.070  11.169  1.00  0.00     0.190 HD
HETATM   10  C11 UNL     1      39.661   4.063  11.459  1.00  0.00     0.212 A 
BRANCH   8  11
HETATM   11  N1  UNL     1      41.166   5.068   9.731  1.00  0.00    -0.246 N 
HETATM   12  S1  UNL     1      40.762   6.641   9.360  1.00  0.00     0.005 SA
HETATM   13  C3  UNL     1      41.712   6.262   8.035  1.00  0.00     0.139 A 
HETATM   14  C12 UNL     1      41.869   5.025   8.593  1.00  0.00     0.155 A 
HETATM   15  N11 UNL     1      42.623   3.918   8.077  1.00  0.00    -0.080 NA
BRANCH  13  16
HETATM   16  C2  UNL     1      42.174   6.961   6.809  1.00  0.00     0.304 C 
HETATM   17  O2  UNL     1      41.348   7.427   5.987  1.00  0.00    -0.259 OA
BRANCH  16  18
HETATM   18  O1  UNL     1      43.518   7.114   6.541  1.00  0.00    -0.322 OA
HETATM   19  C1  UNL     1      44.467   7.540   7.499  1.00  0.00     0.213 C 
ENDBRANCH  16  18
ENDBRANCH  13  16
ENDBRANCH   8  11
BRANCH  10  20
HETATM   20  O6  UNL     1      38.497   4.773  11.236  1.00  0.00    -0.342 OA
ATOM     21  H6  UNL     1      37.855   5.087  11.862  1.00  0.00     0.219 HD
ENDBRANCH  10  20
ENDBRANCH   1   4
BRANCH   1  22
HETATM   22  C7  UNL     1      38.124   1.400  13.255  1.00  0.00     0.130 A 
HETATM   23  C8  UNL     1      38.750   0.246  13.672  1.00  0.00     0.164 A 
HETATM   24  N9  UNL     1      38.158  -0.984  13.598  1.00  0.00    -0.288 N 
HETATM   25  C9  UNL     1      36.917  -1.034  13.094  1.00  0.00     0.329 A 
ATOM     26  H9  UNL     1      38.640  -1.826  13.911  1.00  0.00     0.172 HD
HETATM   27  O4  UNL     1      36.354  -2.155  13.017  1.00  0.00    -0.247 OA
HETATM   28  N10 UNL     1      36.248   0.040  12.671  1.00  0.00    -0.275 N 
HETATM   29  C10 UNL     1      36.828   1.240  12.743  1.00  0.00     0.267 A 
ATOM     30  H10 UNL     1      35.304  -0.056  12.296  1.00  0.00     0.173 HD
HETATM   31  O5  UNL     1      36.248   2.290  12.361  1.00  0.00    -0.267 OA
BRANCH  23  32
HETATM   32  O3  UNL     1      40.044   0.285  14.198  1.00  0.00    -0.345 OA
ATOM     33  H3  UNL     1      40.230   0.771  14.992  1.00  0.00     0.219 HD
ENDBRANCH  23  32
ENDBRANCH   1  22
BRANCH   2  34
HETATM   34  N6  UNL     1      38.797   4.803  14.433  1.00  0.00    -0.293 N 
ATOM     35  H6  UNL     1      39.802   4.918  14.560  1.00  0.00     0.187 HD
BRANCH  34  36
HETATM   36  C6  UNL     1      37.995   5.975  14.475  1.00  0.00     0.213 C 
HETATM   37  N7  UNL     1      36.879   6.006  13.832  1.00  0.00    -0.301 N 
ATOM     38  H7  UNL     1      36.577   5.190  13.299  1.00  0.00     0.187 HD
BRANCH  37  39
HETATM   39  N8  UNL     1      36.091   7.136  13.863  1.00  0.00    -0.344 N 
ATOM     40  H82 UNL     1      35.469   7.281  14.659  1.00  0.00     0.176 HD
ATOM     41  H81 UNL     1      36.133   7.812  13.101  1.00  0.00     0.176 HD
ENDBRANCH  37  39
ENDBRANCH  34  36
ENDBRANCH   2  34
TORSDOF 10
ENDMDL
MODEL 2
REMARK VINA RESULT: -6.193362090      2.121      3.595
REMARK  10 active torsions:
REMARK  status: ('A' for Active; 'I' for Inactive)
REMARK    1  A    between atoms: O1_2  and  C2_3 
REMARK    2  A    between atoms: C2_3  and  C3_5 
REMARK    3  A    between atoms: N1_7  and  C4_8 
REMARK    4  A    between atoms: N4_13  and  C5_14 
REMARK    5  A    between atoms: C5_14  and  C7_25 
REMARK    6  A    between atoms: N5_15  and  N6_17 
REMARK    7  A    between atoms: N6_17  and  C6_19 
REMARK    8  A    between atoms: N7_20  and  N8_22 
REMARK    9  A    between atoms: C8_26  and  O3_27 
REMARK   10  A    between atoms: C11_37  and  O6_38 
ROOT
HETATM    1  C5  UNL     1      38.400   1.279  13.308  1.00  0.00     0.166 C 
HETATM    2  N5  UNL     1      38.875   0.933  14.457  1.00  0.00    -0.282 N 
ATOM      3  H5  UNL     1      38.551   0.048  14.849  1.00  0.00     0.188 HD
ENDROOT
BRANCH   1   4
HETATM    4  N4  UNL     1      38.809   2.481  12.719  1.00  0.00    -0.197 N 
HETATM    5  N3  UNL     1      38.129   3.615  12.619  1.00  0.00    -0.231 N 
HETATM    6  N2  UNL     1      38.807   4.547  11.986  1.00  0.00    -0.266 N 
ATOM      7  H3  UNL     1      37.189   3.748  12.991  1.00  0.00     0.209 HD
HETATM    8  C4  UNL     1      39.996   4.041  11.637  1.00  0.00     0.189 A 
ATOM      9  H2  UNL     1      38.482   5.495  11.794  1.00  0.00     0.190 HD
HETATM   10  C11 UNL     1      39.999   2.745  12.096  1.00  0.00     0.212 A 
BRANCH   8  11
HETATM   11  N1  UNL     1      41.090   4.669  10.927  1.00  0.00    -0.246 N 
HETATM   12  S1  UNL     1      41.785   6.183  10.913  1.00  0.00     0.005 SA
HETATM   13  C3  UNL     1      42.741   5.413   9.776  1.00  0.00     0.139 A 
HETATM   14  C12 UNL     1      41.983   4.298  10.001  1.00  0.00     0.155 A 
HETATM   15  N11 UNL     1      42.113   3.009   9.382  1.00  0.00    -0.080 NA
BRANCH  13  16
HETATM   16  C2  UNL     1      43.893   5.781   8.914  1.00  0.00     0.304 C 
HETATM   17  O2  UNL     1      44.999   5.203   9.042  1.00  0.00    -0.259 OA
BRANCH  16  18
HETATM   18  O1  UNL     1      43.777   6.765   7.954  1.00  0.00    -0.322 OA
HETATM   19  C1  UNL     1      42.638   6.932   7.134  1.00  0.00     0.213 C 
ENDBRANCH  16  18
ENDBRANCH  13  16
ENDBRANCH   8  11
BRANCH  10  20
HETATM   20  O6  UNL     1      40.987   1.785  11.997  1.00  0.00    -0.342 OA
ATOM     21  H6  UNL     1      41.097   0.981  12.491  1.00  0.00     0.219 HD
ENDBRANCH  10  20
ENDBRANCH   1   4
BRANCH   1  22
HETATM   22  C7  UNL     1      37.453   0.399  12.663  1.00  0.00     0.130 A 
HETATM   23  C8  UNL     1      36.088   0.568  12.728  1.00  0.00     0.164 A 
HETATM   24  N9  UNL     1      35.208  -0.277  12.110  1.00  0.00    -0.288 N 
HETATM   25  C9  UNL     1      35.729  -1.302  11.421  1.00  0.00     0.329 A 
ATOM     26  H9  UNL     1      34.201  -0.134  12.171  1.00  0.00     0.172 HD
HETATM   27  O4  UNL     1      34.938  -2.091  10.845  1.00  0.00    -0.247 OA
HETATM   28  N10 UNL     1      37.039  -1.529  11.314  1.00  0.00    -0.275 N 
HETATM   29  C10 UNL     1      37.896  -0.704  11.918  1.00  0.00     0.267 A 
ATOM     30  H10 UNL     1      37.382  -2.326  10.776  1.00  0.00     0.173 HD
HETATM   31  O5  UNL     1      39.143  -0.865  11.853  1.00  0.00    -0.267 OA
BRANCH  23  32
HETATM   32  O3  UNL     1      35.532   1.632  13.443  1.00  0.00    -0.345 OA
ATOM     33  H3  UNL     1      34.601   1.815  13.396  1.00  0.00     0.219 HD
ENDBRANCH  23  32
ENDBRANCH   1  22
BRANCH   2  34
HETATM   34  N6  UNL     1      39.780   1.656  15.198  1.00  0.00    -0.293 N 
ATOM     35  H6  UNL     1      39.469   2.550  15.577  1.00  0.00     0.187 HD
BRANCH  34  36
HETATM   36  C6  UNL     1      41.115   1.257  15.477  1.00  0.00     0.213 C 
HETATM   37  N7  UNL     1      41.770   0.572  14.603  1.00  0.00    -0.301 N 
ATOM     38  H7  UNL     1      41.328   0.322  13.719  1.00  0.00     0.187 HD
BRANCH  37  39
HETATM   39  N8  UNL     1      43.065   0.178  14.860  1.00  0.00    -0.344 N 
ATOM     40  H82 UNL     1      43.225  -0.605  15.493  1.00  0.00     0.176 HD
ATOM     41  H81 UNL     1      43.846   0.665  14.420  1.00  0.00     0.176 HD
ENDBRANCH  37  39
ENDBRANCH  34  36
ENDBRANCH   2  34
TORSDOF 10
ENDMDL
MODEL 3
REMARK VINA RESULT: -6.192654842      1.932      2.587
REMARK  10 active torsions:
REMARK  status: ('A' for Active; 'I' for Inactive)
REMARK    1  A    between atoms: O1_2  and  C2_3 
REMARK    2  A    between atoms: C2_3  and  C3_5 
REMARK    3  A    between atoms: N1_7  and  C4_8 
REMARK    4  A    between atoms: N4_13  and  C5_14 
REMARK    5  A    between atoms: C5_14  and  C7_25 
REMARK    6  A    between atoms: N5_15  and  N6_17 
REMARK    7  A    between atoms: N6_17  and  C6_19 
REMARK    8  A    between atoms: N7_20  and  N8_22 
REMARK    9  A    between atoms: C8_26  and  O3_27 
REMARK   10  A    between atoms: C11_37  and  O6_38 
ROOT
HETATM    1  C5  UNL     1      38.488   1.890  13.256  1.00  0.00     0.166 C 
HETATM    2  N5  UNL     1      38.894   1.744  14.473  1.00  0.00    -0.282 N 
ATOM      3  H5  UNL     1      38.592   0.906  14.969  1.00  0.00     0.188 HD
ENDROOT
BRANCH   1   4
HETATM    4  N4  UNL     1      38.871   3.020  12.524  1.00  0.00    -0.197 N 
HETATM    5  N3  UNL     1      38.141   4.084  12.223  1.00  0.00    -0.231 N 
HETATM    6  N2  UNL     1      38.810   4.958  11.501  1.00  0.00    -0.266 N 
ATOM      7  H3  UNL     1      37.173   4.211  12.516  1.00  0.00     0.209 HD
HETATM    8  C4  UNL     1      40.045   4.481  11.299  1.00  0.00     0.189 A 
ATOM      9  H2  UNL     1      38.450   5.846  11.155  1.00  0.00     0.190 HD
HETATM   10  C11 UNL     1      40.085   3.265  11.940  1.00  0.00     0.212 A 
BRANCH   8  11
HETATM   11  N1  UNL     1      41.149   5.067  10.570  1.00  0.00    -0.246 N 
HETATM   12  S1  UNL     1      41.854   6.575  10.491  1.00  0.00     0.005 SA
HETATM   13  C3  UNL     1      42.815   5.746   9.401  1.00  0.00     0.139 A 
HETATM   14  C12 UNL     1      42.048   4.648   9.671  1.00  0.00     0.155 A 
HETATM   15  N11 UNL     1      42.175   3.330   9.115  1.00  0.00    -0.080 NA
BRANCH  13  16
HETATM   16  C2  UNL     1      43.977   6.065   8.533  1.00  0.00     0.304 C 
HETATM   17  O2  UNL     1      45.064   5.452   8.665  1.00  0.00    -0.259 OA
BRANCH  16  18
HETATM   18  O1  UNL     1      43.893   7.043   7.563  1.00  0.00    -0.322 OA
HETATM   19  C1  UNL     1      42.741   7.272   6.776  1.00  0.00     0.213 C 
ENDBRANCH  16  18
ENDBRANCH  13  16
ENDBRANCH   8  11
BRANCH  10  20
HETATM   20  O6  UNL     1      41.126   2.362  12.038  1.00  0.00    -0.342 OA
ATOM     21  H6  UNL     1      41.611   2.085  12.806  1.00  0.00     0.219 HD
ENDBRANCH  10  20
ENDBRANCH   1   4
BRANCH   1  22
HETATM   22  C7  UNL     1      37.642   0.866  12.688  1.00  0.00     0.130 A 
HETATM   23  C8  UNL     1      36.271   0.850  12.816  1.00  0.00     0.164 A 
HETATM   24  N9  UNL     1      35.489  -0.129  12.271  1.00  0.00    -0.288 N 
HETATM   25  C9  UNL     1      36.113  -1.099  11.589  1.00  0.00     0.329 A 
ATOM     26  H9  UNL     1      34.475  -0.122  12.379  1.00  0.00     0.172 HD
HETATM   27  O4  UNL     1      35.413  -2.009  11.078  1.00  0.00    -0.247 OA
HETATM   28  N10 UNL     1      37.436  -1.150  11.422  1.00  0.00    -0.275 N 
HETATM   29  C10 UNL     1      38.198  -0.194  11.956  1.00  0.00     0.267 A 
ATOM     30  H10 UNL     1      37.859  -1.912  10.892  1.00  0.00     0.173 HD
HETATM   31  O5  UNL     1      39.451  -0.186  11.833  1.00  0.00    -0.267 OA
BRANCH  23  32
HETATM   32  O3  UNL     1      35.608   1.855  13.526  1.00  0.00    -0.345 OA
ATOM     33  H3  UNL     1      35.452   2.706  13.132  1.00  0.00     0.219 HD
ENDBRANCH  23  32
ENDBRANCH   1  22
BRANCH   2  34
HETATM   34  N6  UNL     1      39.700   2.625  15.157  1.00  0.00    -0.293 N 
ATOM     35  H6  UNL     1      40.699   2.603  14.952  1.00  0.00     0.187 HD
BRANCH  34  36
HETATM   36  C6  UNL     1      39.252   3.561  16.127  1.00  0.00     0.213 C 
HETATM   37  N7  UNL     1      38.481   4.530  15.767  1.00  0.00    -0.301 N 
ATOM     38  H7  UNL     1      38.198   4.618  14.792  1.00  0.00     0.187 HD
BRANCH  37  39
HETATM   39  N8  UNL     1      38.039   5.446  16.697  1.00  0.00    -0.344 N 
ATOM     40  H82 UNL     1      38.198   5.259  17.687  1.00  0.00     0.176 HD
ATOM     41  H81 UNL     1      37.561   6.295  16.394  1.00  0.00     0.176 HD
ENDBRANCH  37  39
ENDBRANCH  34  36
ENDBRANCH   2  34
TORSDOF 10
ENDMDL
MODEL 4
REMARK VINA RESULT: -6.148024529      4.334      5.955
REMARK  10 active torsions:
REMARK  status: ('A' for Active; 'I' for Inactive)
REMARK    1  A    between atoms: O1_2  and  C2_3 
REMARK    2  A    between atoms: C2_3  and  C3_5 
REMARK    3  A    between atoms: N1_7  and  C4_8 
REMARK    4  A    between atoms: N4_13  and  C5_14 
REMARK    5  A    between atoms: C5_14  and  C7_25 
REMARK    6  A    between atoms: N5_15  and  N6_17 
REMARK    7  A    between atoms: N6_17  and  C6_19 
REMARK    8  A    between atoms: N7_20  and  N8_22 
REMARK    9  A    between atoms: C8_26  and  O3_27 
REMARK   10  A    between atoms: C11_37  and  O6_38 
ROOT
HETATM    1  C5  UNL     1      38.586   1.742  13.370  1.00  0.00     0.166 C 
HETATM    2  N5  UNL     1      39.400   1.244  14.239  1.00  0.00    -0.282 N 
ATOM      3  H5  UNL     1      39.350   0.238  14.403  1.00  0.00     0.188 HD
ENDROOT
BRANCH   1   4
HETATM    4  N4  UNL     1      38.610   3.116  13.101  1.00  0.00    -0.197 N 
HETATM    5  N3  UNL     1      39.008   3.724  11.993  1.00  0.00    -0.231 N 
HETATM    6  N2  UNL     1      38.916   5.033  12.083  1.00  0.00    -0.266 N 
ATOM      7  H3  UNL     1      39.348   3.234  11.165  1.00  0.00     0.209 HD
HETATM    8  C4  UNL     1      38.435   5.339  13.295  1.00  0.00     0.189 A 
ATOM      9  H2  UNL     1      39.167   5.701  11.355  1.00  0.00     0.190 HD
HETATM   10  C11 UNL     1      38.243   4.137  13.935  1.00  0.00     0.212 A 
BRANCH   8  11
HETATM   11  N1  UNL     1      38.155   6.637  13.873  1.00  0.00    -0.246 N 
HETATM   12  S1  UNL     1      39.035   7.782  14.704  1.00  0.00     0.005 SA
HETATM   13  C3  UNL     1      37.541   8.535  14.661  1.00  0.00     0.139 A 
HETATM   14  C12 UNL     1      37.090   7.441  13.978  1.00  0.00     0.155 A 
HETATM   15  N11 UNL     1      35.765   7.201  13.479  1.00  0.00    -0.080 NA
BRANCH  13  16
HETATM   16  C2  UNL     1      36.969   9.816  15.147  1.00  0.00     0.304 C 
HETATM   17  O2  UNL     1      36.737  10.758  14.351  1.00  0.00    -0.259 OA
BRANCH  16  18
HETATM   18  O1  UNL     1      36.681  10.005  16.483  1.00  0.00    -0.322 OA
HETATM   19  C1  UNL     1      35.988   9.063  17.277  1.00  0.00     0.213 C 
ENDBRANCH  16  18
ENDBRANCH  13  16
ENDBRANCH   8  11
BRANCH  10  20
HETATM   20  O6  UNL     1      37.765   3.891  15.207  1.00  0.00    -0.342 OA
ATOM     21  H6  UNL     1      36.942   3.500  15.475  1.00  0.00     0.219 HD
ENDBRANCH  10  20
ENDBRANCH   1   4
BRANCH   1  22
HETATM   22  C7  UNL     1      37.670   0.850  12.697  1.00  0.00     0.130 A 
HETATM   23  C8  UNL     1      36.301   0.926  12.822  1.00  0.00     0.164 A 
HETATM   24  N9  UNL     1      35.452   0.071  12.177  1.00  0.00    -0.288 N 
HETATM   25  C9  UNL     1      36.007  -0.867  11.397  1.00  0.00     0.329 A 
ATOM     26  H9  UNL     1      34.440   0.144  12.284  1.00  0.00     0.172 HD
HETATM   27  O4  UNL     1      35.244  -1.663  10.794  1.00  0.00    -0.247 OA
HETATM   28  N10 UNL     1      37.323  -1.002  11.227  1.00  0.00    -0.275 N 
HETATM   29  C10 UNL     1      38.151  -0.167  11.858  1.00  0.00     0.267 A 
ATOM     30  H10 UNL     1      37.693  -1.735  10.621  1.00  0.00     0.173 HD
HETATM   31  O5  UNL     1      39.402  -0.242  11.738  1.00  0.00    -0.267 OA
BRANCH  23  32
HETATM   32  O3  UNL     1      35.710   1.899  13.632  1.00  0.00    -0.345 OA
ATOM     33  H3  UNL     1      34.872   1.739  14.051  1.00  0.00     0.219 HD
ENDBRANCH  23  32
ENDBRANCH   1  22
BRANCH   2  34
HETATM   34  N6  UNL     1      40.330   1.954  14.963  1.00  0.00    -0.293 N 
ATOM     35  H6  UNL     1      40.988   2.532  14.442  1.00  0.00     0.187 HD
BRANCH  34  36
HETATM   36  C6  UNL     1      40.445   1.947  16.379  1.00  0.00     0.213 C 
HETATM   37  N7  UNL     1      39.630   2.650  17.087  1.00  0.00    -0.301 N 
ATOM     38  H7  UNL     1      38.908   3.207  16.629  1.00  0.00     0.187 HD
BRANCH  37  39
HETATM   39  N8  UNL     1      39.730   2.653  18.462  1.00  0.00    -0.344 N 
ATOM     40  H82 UNL     1      39.226   3.364  18.991  1.00  0.00     0.176 HD
ATOM     41  H81 UNL     1      40.299   1.951  18.936  1.00  0.00     0.176 HD
ENDBRANCH  37  39
ENDBRANCH  34  36
ENDBRANCH   2  34
TORSDOF 10
ENDMDL
MODEL 5
REMARK VINA RESULT: -6.137141979      2.239      3.493
REMARK  10 active torsions:
REMARK  status: ('A' for Active; 'I' for Inactive)
REMARK    1  A    between atoms: O1_2  and  C2_3 
REMARK    2  A    between atoms: C2_3  and  C3_5 
REMARK    3  A    between atoms: N1_7  and  C4_8 
REMARK    4  A    between atoms: N4_13  and  C5_14 
REMARK    5  A    between atoms: C5_14  and  C7_25 
REMARK    6  A    between atoms: N5_15  and  N6_17 
REMARK    7  A    between atoms: N6_17  and  C6_19 
REMARK    8  A    between atoms: N7_20  and  N8_22 
REMARK    9  A    between atoms: C8_26  and  O3_27 
REMARK   10  A    between atoms: C11_37  and  O6_38 
ROOT
HETATM    1  C5  UNL     1      38.418   1.328  13.299  1.00  0.00     0.166 C 
HETATM    2  N5  UNL     1      38.897   0.993  14.449  1.00  0.00    -0.282 N 
ATOM      3  H5  UNL     1      38.575   0.113  14.851  1.00  0.00     0.188 HD
ENDROOT
BRANCH   1   4
HETATM    4  N4  UNL     1      38.825   2.525  12.697  1.00  0.00    -0.197 N 
HETATM    5  N3  UNL     1      38.138   3.652  12.573  1.00  0.00    -0.231 N 
HETATM    6  N2  UNL     1      38.816   4.580  11.933  1.00  0.00    -0.266 N 
ATOM      7  H3  UNL     1      37.193   3.784  12.932  1.00  0.00     0.209 HD
HETATM    8  C4  UNL     1      40.013   4.077  11.605  1.00  0.00     0.189 A 
ATOM      9  H2  UNL     1      38.487   5.522  11.723  1.00  0.00     0.190 HD
HETATM   10  C11 UNL     1      40.020   2.788  12.083  1.00  0.00     0.212 A 
BRANCH   8  11
HETATM   11  N1  UNL     1      41.111   4.702  10.898  1.00  0.00    -0.246 N 
HETATM   12  S1  UNL     1      41.813   6.213  10.891  1.00  0.00     0.005 SA
HETATM   13  C3  UNL     1      42.765   5.442   9.751  1.00  0.00     0.139 A 
HETATM   14  C12 UNL     1      42.001   4.331   9.970  1.00  0.00     0.155 A 
HETATM   15  N11 UNL     1      42.124   3.044   9.345  1.00  0.00    -0.080 NA
BRANCH  13  16
HETATM   16  C2  UNL     1      43.919   5.808   8.891  1.00  0.00     0.304 C 
HETATM   17  O2  UNL     1      45.026   5.233   9.024  1.00  0.00    -0.259 OA
BRANCH  16  18
HETATM   18  O1  UNL     1      43.805   6.788   7.926  1.00  0.00    -0.322 OA
HETATM   19  C1  UNL     1      42.643   6.993   7.148  1.00  0.00     0.213 C 
ENDBRANCH  16  18
ENDBRANCH  13  16
ENDBRANCH   8  11
BRANCH  10  20
HETATM   20  O6  UNL     1      41.016   1.833  12.009  1.00  0.00    -0.342 OA
ATOM     21  H6  UNL     1      41.410   1.320  12.705  1.00  0.00     0.219 HD
ENDBRANCH  10  20
ENDBRANCH   1   4
BRANCH   1  22
HETATM   22  C7  UNL     1      37.467   0.443  12.667  1.00  0.00     0.130 A 
HETATM   23  C8  UNL     1      36.102   0.605  12.748  1.00  0.00     0.164 A 
HETATM   24  N9  UNL     1      35.220  -0.245  12.142  1.00  0.00    -0.288 N 
HETATM   25  C9  UNL     1      35.737  -1.268  11.448  1.00  0.00     0.329 A 
ATOM     26  H9  UNL     1      34.212  -0.107  12.216  1.00  0.00     0.172 HD
HETATM   27  O4  UNL     1      34.943  -2.061  10.883  1.00  0.00    -0.247 OA
HETATM   28  N10 UNL     1      37.047  -1.489  11.324  1.00  0.00    -0.275 N 
HETATM   29  C10 UNL     1      37.907  -0.658  11.917  1.00  0.00     0.267 A 
ATOM     30  H10 UNL     1      37.387  -2.284  10.783  1.00  0.00     0.173 HD
HETATM   31  O5  UNL     1      39.154  -0.813  11.837  1.00  0.00    -0.267 OA
BRANCH  23  32
HETATM   32  O3  UNL     1      35.550   1.667  13.470  1.00  0.00    -0.345 OA
ATOM     33  H3  UNL     1      36.080   2.419  13.709  1.00  0.00     0.219 HD
ENDBRANCH  23  32
ENDBRANCH   1  22
BRANCH   2  34
HETATM   34  N6  UNL     1      39.807   1.723  15.180  1.00  0.00    -0.293 N 
ATOM     35  H6  UNL     1      40.339   2.438  14.686  1.00  0.00     0.187 HD
BRANCH  34  36
HETATM   36  C6  UNL     1      40.063   1.558  16.567  1.00  0.00     0.213 C 
HETATM   37  N7  UNL     1      40.021   0.379  17.086  1.00  0.00    -0.301 N 
ATOM     38  H7  UNL     1      39.806  -0.426  16.500  1.00  0.00     0.187 HD
BRANCH  37  39
HETATM   39  N8  UNL     1      40.268   0.205  18.431  1.00  0.00    -0.344 N 
ATOM     40  H82 UNL     1      40.297   1.025  19.037  1.00  0.00     0.176 HD
ATOM     41  H81 UNL     1      40.418  -0.731  18.808  1.00  0.00     0.176 HD
ENDBRANCH  37  39
ENDBRANCH  34  36
ENDBRANCH   2  34
TORSDOF 10
ENDMDL
