MODEL 1
REMARK VINA RESULT: -6.520483872      0.000      0.000
REMARK  10 active torsions:
REMARK  status: ('A' for Active; 'I' for Inactive)
REMARK    1  A    between atoms: C2_2  and  N1_3 
REMARK    2  A    between atoms: C2_2  and  O1_7 
REMARK    3  A    between atoms: O1_7  and  C3_8 
REMARK    4  A    between atoms: C3_8  and  C4_10 
REMARK    5  A    between atoms: C5_15  and  N4_16 
REMARK    6  A    between atoms: N5_21  and  N6_22 
REMARK       I    between atoms: N6_22  and  C6_24 
REMARK    7  A    between atoms: C6_24  and  C7_26 
REMARK    8  A    between atoms: C7_26  and  S2_27 
REMARK    9  A    between atoms: S2_27  and  C8_28 
REMARK   10  A    between atoms: N8_33  and  N9_34 
ROOT
HETATM    1  C4  UNL     1      37.077  -0.025  11.402  1.00  0.00     0.328 C 
HETATM    2  N2  UNL     1      38.291  -0.705  11.070  1.00  0.00    -0.304 N 
ATOM      3  H2  UNL     1      38.315  -1.352  10.281  1.00  0.00     0.183 HD
HETATM    4  N3  UNL     1      39.396  -0.493  11.793  1.00  0.00    -0.298 N 
ATOM      5  H3  UNL     1      40.220  -0.088  11.351  1.00  0.00     0.183 HD
HETATM    6  C5  UNL     1      39.429  -0.829  13.170  1.00  0.00     0.381 C 
HETATM    7  S1  UNL     1      37.888  -0.172  13.922  1.00  0.00     0.023 SA
HETATM    8  N5  UNL     1      37.087   0.699  12.598  1.00  0.00    -0.224 N 
ENDROOT
BRANCH   8   9
HETATM    9  N6  UNL     1      37.319   2.027  12.639  1.00  0.00    -0.259 N 
HETATM   10  C6  UNL     1      36.471   3.114  12.993  1.00  0.00     0.246 C 
HETATM   11  O3  UNL     1      35.299   2.861  13.333  1.00  0.00    -0.271 OA
ATOM     12  H6  UNL     1      38.265   2.299  12.371  1.00  0.00     0.191 HD
BRANCH  10  13
HETATM   13  C7  UNL     1      37.045   4.462  12.928  1.00  0.00     0.186 C 
BRANCH  13  14
HETATM   14  S2  UNL     1      38.803   4.537  13.040  1.00  0.00    -0.083 SA
BRANCH  14  15
HETATM   15  C8  UNL     1      39.593   4.885  11.493  1.00  0.00     0.167 A 
HETATM   16  N7  UNL     1      38.973   5.632  10.511  1.00  0.00    -0.320 N 
HETATM   17  C9  UNL     1      39.776   5.683   9.449  1.00  0.00     0.131 A 
ATOM     18  H7  UNL     1      38.054   6.070  10.587  1.00  0.00     0.169 HD
HETATM   19  C10 UNL     1      40.895   4.965   9.775  1.00  0.00     0.097 A 
HETATM   20  N11 UNL     1      39.734   6.274   8.156  1.00  0.00    -0.359 N 
HETATM   21  N8  UNL     1      40.779   4.477  11.028  1.00  0.00    -0.239 N 
HETATM   22  C11 UNL     1      41.969   4.846   8.786  1.00  0.00     0.179 C 
HETATM   23  N10 UNL     1      41.532   4.851   7.426  1.00  0.00    -0.401 N 
HETATM   24  C12 UNL     1      40.581   5.855   7.076  1.00  0.00     0.240 C 
ATOM     25  H10 UNL     1      41.880   4.176   6.744  1.00  0.00     0.155 HD
ATOM     26  H11 UNL     1      39.071   7.031   7.988  1.00  0.00     0.162 HD
BRANCH  21  27
HETATM   27  N9  UNL     1      41.732   3.649  11.675  1.00  0.00    -0.336 N 
ATOM     28  H92 UNL     1      41.580   2.677  11.947  1.00  0.00     0.177 HD
ATOM     29  H91 UNL     1      42.670   3.899  11.989  1.00  0.00     0.177 HD
ENDBRANCH  21  27
ENDBRANCH  14  15
ENDBRANCH  13  14
ENDBRANCH  10  13
ENDBRANCH   8   9
BRANCH   1  30
HETATM   30  C3  UNL     1      36.042  -1.127  11.566  1.00  0.00     0.307 C 
HETATM   31  O2  UNL     1      34.833  -0.926  11.673  1.00  0.00    -0.261 OA
BRANCH  30  32
HETATM   32  O1  UNL     1      36.543  -2.427  11.595  1.00  0.00    -0.285 OA
BRANCH  32  33
HETATM   33  C2  UNL     1      35.974  -3.434  12.412  1.00  0.00     0.323 C 
HETATM   34  C1  UNL     1      36.964  -4.531  12.694  1.00  0.00     0.071 C 
BRANCH  33  35
HETATM   35  N1  UNL     1      35.544  -2.818  13.688  1.00  0.00    -0.053 N 
ATOM     36  H13 UNL     1      35.793  -3.390  14.495  1.00  0.00     0.277 HD
ATOM     37  H12 UNL     1      36.092  -1.991  13.922  1.00  0.00     0.277 HD
ATOM     38  H11 UNL     1      34.543  -2.621  13.650  1.00  0.00     0.277 HD
ENDBRANCH  33  35
ENDBRANCH  32  33
ENDBRANCH  30  32
ENDBRANCH   1  30
BRANCH   6  39
HETATM   39  N4  UNL     1      39.625  -2.202  13.500  1.00  0.00    -0.046 N 
ATOM     40  H43 UNL     1      39.115  -2.786  12.838  1.00  0.00     0.277 HD
ATOM     41  H42 UNL     1      40.585  -2.469  13.285  1.00  0.00     0.277 HD
ATOM     42  H41 UNL     1      39.397  -2.488  14.452  1.00  0.00     0.277 HD
ENDBRANCH   6  39
TORSDOF 10
ENDMDL
MODEL 2
REMARK VINA RESULT: -6.505029742      3.830      5.559
REMARK  10 active torsions:
REMARK  status: ('A' for Active; 'I' for Inactive)
REMARK    1  A    between atoms: C2_2  and  N1_3 
REMARK    2  A    between atoms: C2_2  and  O1_7 
REMARK    3  A    between atoms: O1_7  and  C3_8 
REMARK    4  A    between atoms: C3_8  and  C4_10 
REMARK    5  A    between atoms: C5_15  and  N4_16 
REMARK    6  A    between atoms: N5_21  and  N6_22 
REMARK       I    between atoms: N6_22  and  C6_24 
REMARK    7  A    between atoms: C6_24  and  C7_26 
REMARK    8  A    between atoms: C7_26  and  S2_27 
REMARK    9  A    between atoms: S2_27  and  C8_28 
REMARK   10  A    between atoms: N8_33  and  N9_34 
ROOT
HETATM    1  C4  UNL     1      37.053   0.057  11.461  1.00  0.00     0.328 C 
HETATM    2  N2  UNL     1      38.264  -0.594  11.066  1.00  0.00    -0.304 N 
ATOM      3  H2  UNL     1      38.275  -1.196  10.243  1.00  0.00     0.183 HD
HETATM    4  N3  UNL     1      39.383  -0.412  11.776  1.00  0.00    -0.298 N 
ATOM      5  H3  UNL     1      40.194   0.024  11.339  1.00  0.00     0.183 HD
HETATM    6  C5  UNL     1      39.449  -0.822  13.131  1.00  0.00     0.381 C 
HETATM    7  S1  UNL     1      37.919  -0.220  13.950  1.00  0.00     0.023 SA
HETATM    8  N5  UNL     1      37.083   0.715  12.693  1.00  0.00    -0.224 N 
ENDROOT
BRANCH   8   9
HETATM    9  N6  UNL     1      37.307   2.041  12.803  1.00  0.00    -0.259 N 
HETATM   10  C6  UNL     1      36.431   3.112  13.135  1.00  0.00     0.246 C 
HETATM   11  O3  UNL     1      35.239   2.845  13.380  1.00  0.00    -0.271 OA
ATOM     12  H6  UNL     1      38.269   2.324  12.615  1.00  0.00     0.191 HD
BRANCH  10  13
HETATM   13  C7  UNL     1      37.003   4.463  13.164  1.00  0.00     0.186 C 
BRANCH  13  14
HETATM   14  S2  UNL     1      38.089   4.791  14.514  1.00  0.00    -0.083 SA
BRANCH  14  15
HETATM   15  C8  UNL     1      37.412   5.913  15.706  1.00  0.00     0.167 A 
HETATM   16  N7  UNL     1      36.705   7.036  15.327  1.00  0.00    -0.320 N 
HETATM   17  C9  UNL     1      36.369   7.713  16.424  1.00  0.00     0.131 A 
ATOM     18  H7  UNL     1      36.478   7.303  14.369  1.00  0.00     0.169 HD
HETATM   19  C10 UNL     1      36.871   7.008  17.484  1.00  0.00     0.097 A 
HETATM   20  N11 UNL     1      35.657   8.910  16.717  1.00  0.00    -0.359 N 
HETATM   21  N8  UNL     1      37.511   5.905  17.040  1.00  0.00    -0.239 N 
HETATM   22  C11 UNL     1      36.653   7.519  18.839  1.00  0.00     0.179 C 
HETATM   23  N10 UNL     1      36.584   8.943  18.938  1.00  0.00    -0.401 N 
HETATM   24  C12 UNL     1      35.767   9.599  17.971  1.00  0.00     0.240 C 
ATOM     25  H10 UNL     1      37.091   9.459  19.657  1.00  0.00     0.155 HD
ATOM     26  H11 UNL     1      35.040   9.297  16.002  1.00  0.00     0.162 HD
BRANCH  21  27
HETATM   27  N9  UNL     1      38.191   4.968  17.860  1.00  0.00    -0.336 N 
ATOM     28  H92 UNL     1      39.120   5.101  18.259  1.00  0.00     0.177 HD
ATOM     29  H91 UNL     1      37.883   4.036  18.136  1.00  0.00     0.177 HD
ENDBRANCH  21  27
ENDBRANCH  14  15
ENDBRANCH  13  14
ENDBRANCH  10  13
ENDBRANCH   8   9
BRANCH   1  30
HETATM   30  C3  UNL     1      36.030  -1.061  11.586  1.00  0.00     0.307 C 
HETATM   31  O2  UNL     1      34.816  -0.877  11.675  1.00  0.00    -0.261 OA
BRANCH  30  32
HETATM   32  O1  UNL     1      36.547  -2.354  11.601  1.00  0.00    -0.285 OA
BRANCH  32  33
HETATM   33  C2  UNL     1      35.955  -3.391  12.362  1.00  0.00     0.323 C 
HETATM   34  C1  UNL     1      36.915  -4.531  12.570  1.00  0.00     0.071 C 
BRANCH  33  35
HETATM   35  N1  UNL     1      35.552  -2.841  13.677  1.00  0.00    -0.053 N 
ATOM     36  H13 UNL     1      34.749  -3.331  14.070  1.00  0.00     0.277 HD
ATOM     37  H12 UNL     1      36.228  -3.059  14.409  1.00  0.00     0.277 HD
ATOM     38  H11 UNL     1      35.387  -1.838  13.589  1.00  0.00     0.277 HD
ENDBRANCH  33  35
ENDBRANCH  32  33
ENDBRANCH  30  32
ENDBRANCH   1  30
BRANCH   6  39
HETATM   39  N4  UNL     1      39.661  -2.210  13.381  1.00  0.00    -0.046 N 
ATOM     40  H43 UNL     1      40.199  -2.614  12.615  1.00  0.00     0.277 HD
ATOM     41  H42 UNL     1      40.320  -2.319  14.152  1.00  0.00     0.277 HD
ATOM     42  H41 UNL     1      38.835  -2.782  13.555  1.00  0.00     0.277 HD
ENDBRANCH   6  39
TORSDOF 10
ENDMDL
MODEL 3
REMARK VINA RESULT: -6.405978046      5.360      8.421
REMARK  10 active torsions:
REMARK  status: ('A' for Active; 'I' for Inactive)
REMARK    1  A    between atoms: C2_2  and  N1_3 
REMARK    2  A    between atoms: C2_2  and  O1_7 
REMARK    3  A    between atoms: O1_7  and  C3_8 
REMARK    4  A    between atoms: C3_8  and  C4_10 
REMARK    5  A    between atoms: C5_15  and  N4_16 
REMARK    6  A    between atoms: N5_21  and  N6_22 
REMARK       I    between atoms: N6_22  and  C6_24 
REMARK    7  A    between atoms: C6_24  and  C7_26 
REMARK    8  A    between atoms: C7_26  and  S2_27 
REMARK    9  A    between atoms: S2_27  and  C8_28 
REMARK   10  A    between atoms: N8_33  and  N9_34 
ROOT
HETATM    1  C4  UNL     1      37.294   4.503  13.828  1.00  0.00     0.328 C 
HETATM    2  N2  UNL     1      37.232   5.811  13.252  1.00  0.00    -0.304 N 
ATOM      3  H2  UNL     1      36.328   6.240  13.055  1.00  0.00     0.183 HD
HETATM    4  N3  UNL     1      38.360   6.472  12.971  1.00  0.00    -0.298 N 
ATOM      5  H3  UNL     1      38.560   7.355  13.441  1.00  0.00     0.183 HD
HETATM    6  C5  UNL     1      39.281   5.955  12.026  1.00  0.00     0.381 C 
HETATM    7  S1  UNL     1      39.517   4.177  12.422  1.00  0.00     0.023 SA
HETATM    8  N5  UNL     1      38.563   3.923  13.897  1.00  0.00    -0.224 N 
ENDROOT
BRANCH   8   9
HETATM    9  N6  UNL     1      39.320   3.965  15.014  1.00  0.00    -0.259 N 
HETATM   10  C6  UNL     1      39.637   5.042  15.888  1.00  0.00     0.246 C 
HETATM   11  O3  UNL     1      39.164   6.166  15.634  1.00  0.00    -0.271 OA
ATOM     12  H6  UNL     1      39.736   3.071  15.276  1.00  0.00     0.191 HD
BRANCH  10  13
HETATM   13  C7  UNL     1      40.506   4.745  17.032  1.00  0.00     0.186 C 
BRANCH  13  14
HETATM   14  S2  UNL     1      40.087   3.289  17.936  1.00  0.00    -0.083 SA
BRANCH  14  15
HETATM   15  C8  UNL     1      38.702   3.507  19.020  1.00  0.00     0.167 A 
HETATM   16  N7  UNL     1      38.034   4.711  19.112  1.00  0.00    -0.320 N 
HETATM   17  C9  UNL     1      37.082   4.595  20.037  1.00  0.00     0.131 A 
ATOM     18  H7  UNL     1      38.236   5.549  18.565  1.00  0.00     0.169 HD
HETATM   19  C10 UNL     1      37.162   3.317  20.517  1.00  0.00     0.097 A 
HETATM   20  N11 UNL     1      36.077   5.438  20.589  1.00  0.00    -0.359 N 
HETATM   21  N8  UNL     1      38.158   2.653  19.892  1.00  0.00    -0.239 N 
HETATM   22  C11 UNL     1      36.224   2.895  21.561  1.00  0.00     0.179 C 
HETATM   23  N10 UNL     1      35.812   3.934  22.450  1.00  0.00    -0.401 N 
HETATM   24  C12 UNL     1      35.429   5.165  21.840  1.00  0.00     0.240 C 
ATOM     25  H10 UNL     1      35.793   3.803  23.461  1.00  0.00     0.155 HD
ATOM     26  H11 UNL     1      35.804   6.274  20.072  1.00  0.00     0.162 HD
BRANCH  21  27
HETATM   27  N9  UNL     1      38.554   1.319  20.172  1.00  0.00    -0.336 N 
ATOM     28  H92 UNL     1      39.352   0.842  19.753  1.00  0.00     0.177 HD
ATOM     29  H91 UNL     1      38.096   0.644  20.785  1.00  0.00     0.177 HD
ENDBRANCH  21  27
ENDBRANCH  14  15
ENDBRANCH  13  14
ENDBRANCH  10  13
ENDBRANCH   8   9
BRANCH   1  30
HETATM   30  C3  UNL     1      36.462   3.628  12.904  1.00  0.00     0.307 C 
HETATM   31  O2  UNL     1      35.990   4.010  11.835  1.00  0.00    -0.261 OA
BRANCH  30  32
HETATM   32  O1  UNL     1      36.246   2.323  13.341  1.00  0.00    -0.285 OA
BRANCH  32  33
HETATM   33  C2  UNL     1      36.776   1.203  12.654  1.00  0.00     0.323 C 
HETATM   34  C1  UNL     1      37.856   0.532  13.458  1.00  0.00     0.071 C 
BRANCH  33  35
HETATM   35  N1  UNL     1      35.679   0.241  12.403  1.00  0.00    -0.053 N 
ATOM     36  H13 UNL     1      35.940  -0.471  11.720  1.00  0.00     0.277 HD
ATOM     37  H12 UNL     1      35.517  -0.375  13.199  1.00  0.00     0.277 HD
ATOM     38  H11 UNL     1      34.838   0.749  12.129  1.00  0.00     0.277 HD
ENDBRANCH  33  35
ENDBRANCH  32  33
ENDBRANCH  30  32
ENDBRANCH   1  30
BRANCH   6  39
HETATM   39  N4  UNL     1      38.972   6.145  10.647  1.00  0.00    -0.046 N 
ATOM     40  H43 UNL     1      38.509   5.312  10.285  1.00  0.00     0.277 HD
ATOM     41  H42 UNL     1      38.223   6.830  10.558  1.00  0.00     0.277 HD
ATOM     42  H41 UNL     1      39.742   6.401  10.029  1.00  0.00     0.277 HD
ENDBRANCH   6  39
TORSDOF 10
ENDMDL
MODEL 4
REMARK VINA RESULT: -6.368721690      5.455      8.549
REMARK  10 active torsions:
REMARK  status: ('A' for Active; 'I' for Inactive)
REMARK    1  A    between atoms: C2_2  and  N1_3 
REMARK    2  A    between atoms: C2_2  and  O1_7 
REMARK    3  A    between atoms: O1_7  and  C3_8 
REMARK    4  A    between atoms: C3_8  and  C4_10 
REMARK    5  A    between atoms: C5_15  and  N4_16 
REMARK    6  A    between atoms: N5_21  and  N6_22 
REMARK       I    between atoms: N6_22  and  C6_24 
REMARK    7  A    between atoms: C6_24  and  C7_26 
REMARK    8  A    between atoms: C7_26  and  S2_27 
REMARK    9  A    between atoms: S2_27  and  C8_28 
REMARK   10  A    between atoms: N8_33  and  N9_34 
ROOT
HETATM    1  C4  UNL     1      37.238   4.433  13.860  1.00  0.00     0.328 C 
HETATM    2  N2  UNL     1      37.214   5.733  13.262  1.00  0.00    -0.304 N 
ATOM      3  H2  UNL     1      36.323   6.168  13.022  1.00  0.00     0.183 HD
HETATM    4  N3  UNL     1      38.359   6.377  13.018  1.00  0.00    -0.298 N 
ATOM      5  H3  UNL     1      38.550   7.265  13.482  1.00  0.00     0.183 HD
HETATM    6  C5  UNL     1      39.312   5.836  12.118  1.00  0.00     0.381 C 
HETATM    7  S1  UNL     1      39.512   4.062  12.549  1.00  0.00     0.023 SA
HETATM    8  N5  UNL     1      38.497   3.840  13.989  1.00  0.00    -0.224 N 
ENDROOT
BRANCH   8   9
HETATM    9  N6  UNL     1      39.208   3.892  15.134  1.00  0.00    -0.259 N 
HETATM   10  C6  UNL     1      39.886   2.872  15.860  1.00  0.00     0.246 C 
HETATM   11  O3  UNL     1      39.856   1.710  15.411  1.00  0.00    -0.271 OA
ATOM     12  H6  UNL     1      39.271   4.820  15.552  1.00  0.00     0.191 HD
BRANCH  10  13
HETATM   13  C7  UNL     1      40.574   3.269  17.093  1.00  0.00     0.186 C 
BRANCH  13  14
HETATM   14  S2  UNL     1      40.304   2.212  18.478  1.00  0.00    -0.083 SA
BRANCH  14  15
HETATM   15  C8  UNL     1      38.866   2.639  19.421  1.00  0.00     0.167 A 
HETATM   16  N7  UNL     1      38.408   3.939  19.499  1.00  0.00    -0.320 N 
HETATM   17  C9  UNL     1      37.354   3.967  20.313  1.00  0.00     0.131 A 
ATOM     18  H7  UNL     1      38.810   4.743  19.015  1.00  0.00     0.169 HD
HETATM   19  C10 UNL     1      37.161   2.682  20.740  1.00  0.00     0.097 A 
HETATM   20  N11 UNL     1      36.453   4.957  20.796  1.00  0.00    -0.359 N 
HETATM   21  N8  UNL     1      38.091   1.870  20.192  1.00  0.00    -0.239 N 
HETATM   22  C11 UNL     1      36.055   2.402  21.660  1.00  0.00     0.179 C 
HETATM   23  N10 UNL     1      35.731   3.473  22.548  1.00  0.00    -0.401 N 
HETATM   24  C12 UNL     1      35.634   4.768  21.959  1.00  0.00     0.240 C 
ATOM     25  H10 UNL     1      35.579   3.320  23.545  1.00  0.00     0.155 HD
ATOM     26  H11 UNL     1      36.386   5.842  20.292  1.00  0.00     0.162 HD
BRANCH  21  27
HETATM   27  N9  UNL     1      38.219   0.481  20.451  1.00  0.00    -0.336 N 
ATOM     28  H92 UNL     1      39.097  -0.004  20.636  1.00  0.00     0.177 HD
ATOM     29  H91 UNL     1      37.485  -0.227  20.454  1.00  0.00     0.177 HD
ENDBRANCH  21  27
ENDBRANCH  14  15
ENDBRANCH  13  14
ENDBRANCH  10  13
ENDBRANCH   8   9
BRANCH   1  30
HETATM   30  C3  UNL     1      36.434   3.552  12.916  1.00  0.00     0.307 C 
HETATM   31  O2  UNL     1      35.947   3.944  11.856  1.00  0.00    -0.261 OA
BRANCH  30  32
HETATM   32  O1  UNL     1      36.264   2.231  13.321  1.00  0.00    -0.285 OA
BRANCH  32  33
HETATM   33  C2  UNL     1      36.730   1.141  12.546  1.00  0.00     0.323 C 
HETATM   34  C1  UNL     1      37.778   0.355  13.285  1.00  0.00     0.071 C 
BRANCH  33  35
HETATM   35  N1  UNL     1      35.582   0.259  12.233  1.00  0.00    -0.053 N 
ATOM     36  H13 UNL     1      35.824  -0.729  12.309  1.00  0.00     0.277 HD
ATOM     37  H12 UNL     1      34.864   0.289  12.957  1.00  0.00     0.277 HD
ATOM     38  H11 UNL     1      35.213   0.496  11.312  1.00  0.00     0.277 HD
ENDBRANCH  33  35
ENDBRANCH  32  33
ENDBRANCH  30  32
ENDBRANCH   1  30
BRANCH   6  39
HETATM   39  N4  UNL     1      39.061   6.008  10.725  1.00  0.00    -0.046 N 
ATOM     40  H43 UNL     1      39.014   5.096  10.273  1.00  0.00     0.277 HD
ATOM     41  H42 UNL     1      38.104   6.334  10.590  1.00  0.00     0.277 HD
ATOM     42  H41 UNL     1      39.702   6.611  10.209  1.00  0.00     0.277 HD
ENDBRANCH   6  39
TORSDOF 10
ENDMDL
MODEL 5
REMARK VINA RESULT: -6.298975921      5.341      7.812
REMARK  10 active torsions:
REMARK  status: ('A' for Active; 'I' for Inactive)
REMARK    1  A    between atoms: C2_2  and  N1_3 
REMARK    2  A    between atoms: C2_2  and  O1_7 
REMARK    3  A    between atoms: O1_7  and  C3_8 
REMARK    4  A    between atoms: C3_8  and  C4_10 
REMARK    5  A    between atoms: C5_15  and  N4_16 
REMARK    6  A    between atoms: N5_21  and  N6_22 
REMARK       I    between atoms: N6_22  and  C6_24 
REMARK    7  A    between atoms: C6_24  and  C7_26 
REMARK    8  A    between atoms: C7_26  and  S2_27 
REMARK    9  A    between atoms: S2_27  and  C8_28 
REMARK   10  A    between atoms: N8_33  and  N9_34 
ROOT
HETATM    1  C4  UNL     1      38.135  -0.377  14.271  1.00  0.00     0.328 C 
HETATM    2  N2  UNL     1      37.976   0.283  13.011  1.00  0.00    -0.304 N 
ATOM      3  H2  UNL     1      37.075   0.259  12.532  1.00  0.00     0.183 HD
HETATM    4  N3  UNL     1      39.008   0.930  12.461  1.00  0.00    -0.298 N 
ATOM      5  H3  UNL     1      38.949   1.936  12.303  1.00  0.00     0.183 HD
HETATM    6  C5  UNL     1      40.185   0.230  12.095  1.00  0.00     0.381 C 
HETATM    7  S1  UNL     1      40.630  -0.850  13.512  1.00  0.00     0.023 SA
HETATM    8  N5  UNL     1      39.439  -0.447  14.766  1.00  0.00    -0.224 N 
ENDROOT
BRANCH   8   9
HETATM    9  N6  UNL     1      39.920   0.431  15.670  1.00  0.00    -0.259 N 
HETATM   10  C6  UNL     1      39.813   1.848  15.745  1.00  0.00     0.246 C 
HETATM   11  O3  UNL     1      39.176   2.440  14.852  1.00  0.00    -0.271 OA
ATOM     12  H6  UNL     1      40.452   0.007  16.430  1.00  0.00     0.191 HD
BRANCH  10  13
HETATM   13  C7  UNL     1      40.466   2.513  16.878  1.00  0.00     0.186 C 
BRANCH  13  14
HETATM   14  S2  UNL     1      40.272   1.707  18.435  1.00  0.00    -0.083 SA
BRANCH  14  15
HETATM   15  C8  UNL     1      38.879   2.291  19.361  1.00  0.00     0.167 A 
HETATM   16  N7  UNL     1      38.512   3.622  19.362  1.00  0.00    -0.320 N 
HETATM   17  C9  UNL     1      37.472   3.772  20.181  1.00  0.00     0.131 A 
ATOM     18  H7  UNL     1      38.962   4.364  18.826  1.00  0.00     0.169 HD
HETATM   19  C10 UNL     1      37.196   2.532  20.688  1.00  0.00     0.097 A 
HETATM   20  N11 UNL     1      36.648   4.850  20.609  1.00  0.00    -0.359 N 
HETATM   21  N8  UNL     1      38.061   1.626  20.184  1.00  0.00    -0.239 N 
HETATM   22  C11 UNL     1      36.085   2.386  21.632  1.00  0.00     0.179 C 
HETATM   23  N10 UNL     1      35.846   3.530  22.455  1.00  0.00    -0.401 N 
HETATM   24  C12 UNL     1      35.831   4.790  21.788  1.00  0.00     0.240 C 
ATOM     25  H10 UNL     1      35.695   3.449  23.460  1.00  0.00     0.155 HD
ATOM     26  H11 UNL     1      36.636   5.705  20.052  1.00  0.00     0.162 HD
BRANCH  21  27
HETATM   27  N9  UNL     1      38.096   0.250  20.526  1.00  0.00    -0.336 N 
ATOM     28  H92 UNL     1      38.918  -0.352  20.463  1.00  0.00     0.177 HD
ATOM     29  H91 UNL     1      37.325  -0.339  20.842  1.00  0.00     0.177 HD
ENDBRANCH  21  27
ENDBRANCH  14  15
ENDBRANCH  13  14
ENDBRANCH  10  13
ENDBRANCH   8   9
BRANCH   1  30
HETATM   30  C3  UNL     1      37.683  -1.808  14.024  1.00  0.00     0.307 C 
HETATM   31  O2  UNL     1      37.779  -2.713  14.851  1.00  0.00    -0.261 OA
BRANCH  30  32
HETATM   32  O1  UNL     1      37.135  -2.060  12.768  1.00  0.00    -0.285 OA
BRANCH  32  33
HETATM   33  C2  UNL     1      35.755  -2.327  12.589  1.00  0.00     0.323 C 
HETATM   34  C1  UNL     1      35.439  -2.623  11.149  1.00  0.00     0.071 C 
BRANCH  33  35
HETATM   35  N1  UNL     1      35.388  -3.493  13.424  1.00  0.00    -0.053 N 
ATOM     36  H13 UNL     1      35.436  -4.370  12.904  1.00  0.00     0.277 HD
ATOM     37  H12 UNL     1      36.096  -3.702  14.128  1.00  0.00     0.277 HD
ATOM     38  H11 UNL     1      34.467  -3.340  13.836  1.00  0.00     0.277 HD
ENDBRANCH  33  35
ENDBRANCH  32  33
ENDBRANCH  30  32
ENDBRANCH   1  30
BRANCH   6  39
HETATM   39  N4  UNL     1      40.152  -0.503  10.872  1.00  0.00    -0.046 N 
ATOM     40  H43 UNL     1      39.401  -1.191  10.909  1.00  0.00     0.277 HD
ATOM     41  H42 UNL     1      39.816   0.102  10.123  1.00  0.00     0.277 HD
ATOM     42  H41 UNL     1      41.016  -0.958  10.580  1.00  0.00     0.277 HD
ENDBRANCH   6  39
TORSDOF 10
ENDMDL
