MODEL 1
REMARK VINA RESULT: -5.930517924      0.000      0.000
REMARK  7 active torsions:
REMARK  status: ('A' for Active; 'I' for Inactive)
REMARK       I    between atoms: N1_2  and  C2_4 
REMARK       I    between atoms: C2_4  and  N2_6 
REMARK    1  A    between atoms: C3_9  and  N4_10 
REMARK    2  A    between atoms: N4_10  and  N5_12 
REMARK    3  A    between atoms: N5_12  and  C4_14 
REMARK    4  A    between atoms: C4_14  and  C5_18 
REMARK    5  A    between atoms: C5_18  and  S1_19 
REMARK    6  A    between atoms: S1_19  and  C6_20 
REMARK    7  A    between atoms: N9_27  and  N10_28 
ROOT
HETATM    1  N4  UNL     1      35.589  -4.846  14.086  1.00  0.00    -0.127 N 
ATOM      2  H4  UNL     1      34.725  -5.037  14.592  1.00  0.00     0.205 HD
ENDROOT
BRANCH   1   3
HETATM    3  C3  UNL     1      35.623  -3.933  13.164  1.00  0.00     0.737 A 
HETATM    4  N3  UNL     1      36.004  -2.652  13.319  1.00  0.00    -0.114 N 
HETATM    5  N2  UNL     1      35.913  -2.010  12.176  1.00  0.00    -0.137 N 
ATOM      6  H3  UNL     1      36.317  -2.238  14.198  1.00  0.00     0.206 HD
HETATM    7  C2  UNL     1      36.236  -0.642  11.975  1.00  0.00     0.345 C 
HETATM    8  C9  UNL     1      35.469  -2.905  11.286  1.00  0.00     0.386 A 
HETATM    9  N1  UNL     1      36.696   0.152  13.047  1.00  0.00    -0.345 N 
HETATM   10  O1  UNL     1      36.117  -0.103  10.824  1.00  0.00    -0.245 OA
HETATM   11  C1  UNL     1      37.030   1.565  12.849  1.00  0.00     0.151 C 
ATOM     12  H1  UNL     1      36.797  -0.263  13.974  1.00  0.00     0.163 HD
HETATM   13  N9  UNL     1      35.281  -4.102  11.867  1.00  0.00    -0.034 N 
HETATM   14  O2  UNL     1      35.264  -2.635  10.078  1.00  0.00    -0.242 OA
BRANCH  13  15
HETATM   15  N10 UNL     1      34.828  -5.289  11.285  1.00  0.00    -0.320 N 
ATOM     16 2H10 UNL     1      33.885  -5.521  10.971  1.00  0.00     0.178 HD
ATOM     17 1H10 UNL     1      35.393  -6.115  11.086  1.00  0.00     0.178 HD
ENDBRANCH  13  15
ENDBRANCH   1   3
BRANCH   1  18
HETATM   18  N5  UNL     1      36.752  -5.563  14.375  1.00  0.00    -0.274 N 
ATOM     19  H5  UNL     1      36.751  -6.577  14.273  1.00  0.00     0.189 HD
BRANCH  18  20
HETATM   20  C4  UNL     1      37.947  -4.905  14.812  1.00  0.00     0.099 C 
HETATM   21  N6  UNL     1      37.891  -4.159  15.847  1.00  0.00    -0.387 N 
ATOM     22  H62 UNL     1      37.005  -4.045  16.340  1.00  0.00     0.157 HD
ATOM     23  H61 UNL     1      38.742  -3.690  16.158  1.00  0.00     0.157 HD
BRANCH  20  24
HETATM   24  C5  UNL     1      39.226  -5.069  14.100  1.00  0.00     0.159 C 
BRANCH  24  25
HETATM   25  S1  UNL     1      39.150  -4.549  12.387  1.00  0.00    -0.087 SA
BRANCH  25  26
HETATM   26  C6  UNL     1      39.469  -2.801  12.298  1.00  0.00     0.136 C 
HETATM   27  N7  UNL     1      39.652  -2.120  11.223  1.00  0.00    -0.369 N 
HETATM   28  C7  UNL     1      39.888  -0.723  11.489  1.00  0.00     0.141 C 
ATOM     29  H7  UNL     1      39.631  -2.522  10.285  1.00  0.00     0.161 HD
HETATM   30  C8  UNL     1      40.230  -0.721  12.968  1.00  0.00     0.141 C 
HETATM   31  N8  UNL     1      39.559  -1.936  13.408  1.00  0.00    -0.369 N 
ATOM     32  H8  UNL     1      39.216  -2.127  14.350  1.00  0.00     0.161 HD
ENDBRANCH  25  26
ENDBRANCH  24  25
ENDBRANCH  20  24
ENDBRANCH  18  20
ENDBRANCH   1  18
TORSDOF 7
ENDMDL
MODEL 2
REMARK VINA RESULT: -5.795615253      2.302      4.244
REMARK  7 active torsions:
REMARK  status: ('A' for Active; 'I' for Inactive)
REMARK       I    between atoms: N1_2  and  C2_4 
REMARK       I    between atoms: C2_4  and  N2_6 
REMARK    1  A    between atoms: C3_9  and  N4_10 
REMARK    2  A    between atoms: N4_10  and  N5_12 
REMARK    3  A    between atoms: N5_12  and  C4_14 
REMARK    4  A    between atoms: C4_14  and  C5_18 
REMARK    5  A    between atoms: C5_18  and  S1_19 
REMARK    6  A    between atoms: S1_19  and  C6_20 
REMARK    7  A    between atoms: N9_27  and  N10_28 
ROOT
HETATM    1  N4  UNL     1      37.029  -1.637  13.986  1.00  0.00    -0.127 N 
ATOM      2  H4  UNL     1      37.571  -0.830  13.681  1.00  0.00     0.205 HD
ENDROOT
BRANCH   1   3
HETATM    3  C3  UNL     1      36.434  -2.398  13.117  1.00  0.00     0.737 A 
HETATM    4  N3  UNL     1      35.934  -3.627  13.339  1.00  0.00    -0.114 N 
HETATM    5  N2  UNL     1      35.403  -4.105  12.236  1.00  0.00    -0.137 N 
ATOM      6  H3  UNL     1      35.962  -4.116  14.233  1.00  0.00     0.206 HD
HETATM    7  C2  UNL     1      34.783  -5.376  12.107  1.00  0.00     0.345 C 
HETATM    8  C9  UNL     1      35.573  -3.159  11.306  1.00  0.00     0.386 A 
HETATM    9  N1  UNL     1      34.697  -6.248  13.214  1.00  0.00    -0.345 N 
HETATM   10  O1  UNL     1      34.293  -5.757  10.992  1.00  0.00    -0.245 OA
HETATM   11  C1  UNL     1      34.061  -7.562  13.090  1.00  0.00     0.151 C 
ATOM     12  H1  UNL     1      35.083  -5.959  14.114  1.00  0.00     0.163 HD
HETATM   13  N9  UNL     1      36.207  -2.092  11.821  1.00  0.00    -0.034 N 
HETATM   14  O2  UNL     1      35.182  -3.279  10.119  1.00  0.00    -0.242 OA
BRANCH  13  15
HETATM   15  N10 UNL     1      36.570  -0.904  11.180  1.00  0.00    -0.320 N 
ATOM     16 2H10 UNL     1      36.997  -0.070  11.584  1.00  0.00     0.178 HD
ATOM     17 1H10 UNL     1      36.455  -0.697  10.188  1.00  0.00     0.178 HD
ENDBRANCH  13  15
ENDBRANCH   1   3
BRANCH   1  18
HETATM   18  N5  UNL     1      36.915  -1.941  15.344  1.00  0.00    -0.274 N 
ATOM     19  H5  UNL     1      35.989  -2.085  15.747  1.00  0.00     0.189 HD
BRANCH  18  20
HETATM   20  C4  UNL     1      38.068  -2.054  16.185  1.00  0.00     0.099 C 
HETATM   21  N6  UNL     1      37.915  -2.466  17.384  1.00  0.00    -0.387 N 
ATOM     22  H62 UNL     1      36.982  -2.706  17.719  1.00  0.00     0.157 HD
ATOM     23  H61 UNL     1      38.737  -2.547  17.982  1.00  0.00     0.157 HD
BRANCH  20  24
HETATM   24  C5  UNL     1      39.416  -1.708  15.700  1.00  0.00     0.159 C 
BRANCH  24  25
HETATM   25  S1  UNL     1      40.450  -3.143  15.411  1.00  0.00    -0.087 SA
BRANCH  25  26
HETATM   26  C6  UNL     1      39.579  -4.283  14.361  1.00  0.00     0.136 C 
HETATM   27  N7  UNL     1      38.968  -5.348  14.743  1.00  0.00    -0.369 N 
HETATM   28  C7  UNL     1      38.360  -6.058  13.646  1.00  0.00     0.141 C 
ATOM     29  H7  UNL     1      38.920  -5.657  15.714  1.00  0.00     0.161 HD
HETATM   30  C8  UNL     1      39.053  -5.457  12.437  1.00  0.00     0.141 C 
HETATM   31  N8  UNL     1      39.445  -4.156  12.962  1.00  0.00    -0.369 N 
ATOM     32  H8  UNL     1      39.596  -3.308  12.417  1.00  0.00     0.161 HD
ENDBRANCH  25  26
ENDBRANCH  24  25
ENDBRANCH  20  24
ENDBRANCH  18  20
ENDBRANCH   1  18
TORSDOF 7
ENDMDL
MODEL 3
REMARK VINA RESULT: -5.752241597      3.106      5.537
REMARK  7 active torsions:
REMARK  status: ('A' for Active; 'I' for Inactive)
REMARK       I    between atoms: N1_2  and  C2_4 
REMARK       I    between atoms: C2_4  and  N2_6 
REMARK    1  A    between atoms: C3_9  and  N4_10 
REMARK    2  A    between atoms: N4_10  and  N5_12 
REMARK    3  A    between atoms: N5_12  and  C4_14 
REMARK    4  A    between atoms: C4_14  and  C5_18 
REMARK    5  A    between atoms: C5_18  and  S1_19 
REMARK    6  A    between atoms: S1_19  and  C6_20 
REMARK    7  A    between atoms: N9_27  and  N10_28 
ROOT
HETATM    1  N4  UNL     1      35.599  -1.864  12.419  1.00  0.00    -0.127 N 
ATOM      2  H4  UNL     1      34.942  -1.977  11.648  1.00  0.00     0.205 HD
ENDROOT
BRANCH   1   3
HETATM    3  C3  UNL     1      36.446  -0.879  12.423  1.00  0.00     0.737 A 
HETATM    4  N3  UNL     1      36.186   0.400  12.749  1.00  0.00    -0.114 N 
HETATM    5  N2  UNL     1      37.276   1.125  12.641  1.00  0.00    -0.137 N 
ATOM      6  H3  UNL     1      35.275   0.755  13.039  1.00  0.00     0.206 HD
HETATM    7  C2  UNL     1      37.366   2.517  12.909  1.00  0.00     0.345 C 
HETATM    8  C9  UNL     1      38.238   0.287  12.240  1.00  0.00     0.386 A 
HETATM    9  N1  UNL     1      36.229   3.242  13.328  1.00  0.00    -0.345 N 
HETATM   10  O1  UNL     1      38.471   3.140  12.776  1.00  0.00    -0.245 OA
HETATM   11  C1  UNL     1      36.312   4.678  13.605  1.00  0.00     0.151 C 
ATOM     12  H1  UNL     1      35.338   2.759  13.440  1.00  0.00     0.163 HD
HETATM   13  N9  UNL     1      37.755  -0.959  12.096  1.00  0.00    -0.034 N 
HETATM   14  O2  UNL     1      39.423   0.643  12.033  1.00  0.00    -0.242 OA
BRANCH  13  15
HETATM   15  N10 UNL     1      38.435  -2.114  11.696  1.00  0.00    -0.320 N 
ATOM     16 2H10 UNL     1      39.403  -2.205  11.390  1.00  0.00     0.178 HD
ATOM     17 1H10 UNL     1      38.045  -3.055  11.652  1.00  0.00     0.178 HD
ENDBRANCH  13  15
ENDBRANCH   1   3
BRANCH   1  18
HETATM   18  N5  UNL     1      35.601  -2.764  13.486  1.00  0.00    -0.274 N 
ATOM     19  H5  UNL     1      35.657  -2.408  14.440  1.00  0.00     0.189 HD
BRANCH  18  20
HETATM   20  C4  UNL     1      35.526  -4.178  13.271  1.00  0.00     0.099 C 
HETATM   21  N6  UNL     1      36.014  -4.959  14.156  1.00  0.00    -0.387 N 
ATOM     22  H62 UNL     1      36.444  -4.566  14.993  1.00  0.00     0.157 HD
ATOM     23  H61 UNL     1      35.960  -5.966  14.003  1.00  0.00     0.157 HD
BRANCH  20  24
HETATM   24  C5  UNL     1      34.904  -4.746  12.062  1.00  0.00     0.159 C 
BRANCH  24  25
HETATM   25  S1  UNL     1      33.747  -6.067  12.420  1.00  0.00    -0.087 SA
BRANCH  25  26
HETATM   26  C6  UNL     1      33.994  -7.386  11.253  1.00  0.00     0.136 C 
HETATM   27  N7  UNL     1      33.602  -8.603  11.393  1.00  0.00    -0.369 N 
HETATM   28  C7  UNL     1      33.959  -9.430  10.267  1.00  0.00     0.141 C 
ATOM     29  H7  UNL     1      33.094  -8.945  12.209  1.00  0.00     0.161 HD
HETATM   30  C8  UNL     1      35.018  -8.598   9.568  1.00  0.00     0.141 C 
HETATM   31  N8  UNL     1      34.657  -7.259  10.015  1.00  0.00    -0.369 N 
ATOM     32  H8  UNL     1      34.849  -6.388   9.521  1.00  0.00     0.161 HD
ENDBRANCH  25  26
ENDBRANCH  24  25
ENDBRANCH  20  24
ENDBRANCH  18  20
ENDBRANCH   1  18
TORSDOF 7
ENDMDL
MODEL 4
REMARK VINA RESULT: -5.710759335      3.006      5.819
REMARK  7 active torsions:
REMARK  status: ('A' for Active; 'I' for Inactive)
REMARK       I    between atoms: N1_2  and  C2_4 
REMARK       I    between atoms: C2_4  and  N2_6 
REMARK    1  A    between atoms: C3_9  and  N4_10 
REMARK    2  A    between atoms: N4_10  and  N5_12 
REMARK    3  A    between atoms: N5_12  and  C4_14 
REMARK    4  A    between atoms: C4_14  and  C5_18 
REMARK    5  A    between atoms: C5_18  and  S1_19 
REMARK    6  A    between atoms: S1_19  and  C6_20 
REMARK    7  A    between atoms: N9_27  and  N10_28 
ROOT
HETATM    1  N4  UNL     1      35.626  -1.796  12.618  1.00  0.00    -0.127 N 
ATOM      2  H4  UNL     1      34.776  -1.617  12.082  1.00  0.00     0.205 HD
ENDROOT
BRANCH   1   3
HETATM    3  C3  UNL     1      36.706  -1.114  12.384  1.00  0.00     0.737 A 
HETATM    4  N3  UNL     1      37.865  -1.592  11.897  1.00  0.00    -0.114 N 
HETATM    5  N2  UNL     1      38.745  -0.623  11.788  1.00  0.00    -0.137 N 
ATOM      6  H3  UNL     1      38.036  -2.566  11.648  1.00  0.00     0.206 HD
HETATM    7  C2  UNL     1      40.073  -0.769  11.308  1.00  0.00     0.345 C 
HETATM    8  C9  UNL     1      38.127   0.485  12.214  1.00  0.00     0.386 A 
HETATM    9  N1  UNL     1      40.553  -2.032  10.898  1.00  0.00    -0.345 N 
HETATM   10  O1  UNL     1      40.860   0.233  11.237  1.00  0.00    -0.245 OA
HETATM   11  C1  UNL     1      41.922  -2.194  10.402  1.00  0.00     0.151 C 
ATOM     12  H1  UNL     1      39.937  -2.845  10.947  1.00  0.00     0.163 HD
HETATM   13  N9  UNL     1      36.866   0.213  12.589  1.00  0.00    -0.034 N 
HETATM   14  O2  UNL     1      38.676   1.612  12.248  1.00  0.00    -0.242 OA
BRANCH  13  15
HETATM   15  N10 UNL     1      35.899   1.090  13.089  1.00  0.00    -0.320 N 
ATOM     16 2H10 UNL     1      36.039   1.977  13.573  1.00  0.00     0.178 HD
ATOM     17 1H10 UNL     1      34.889   0.962  13.039  1.00  0.00     0.178 HD
ENDBRANCH  13  15
ENDBRANCH   1   3
BRANCH   1  18
HETATM   18  N5  UNL     1      35.643  -2.776  13.612  1.00  0.00    -0.274 N 
ATOM     19  H5  UNL     1      35.705  -2.493  14.590  1.00  0.00     0.189 HD
BRANCH  18  20
HETATM   20  C4  UNL     1      35.577  -4.169  13.289  1.00  0.00     0.099 C 
HETATM   21  N6  UNL     1      36.147  -5.006  14.067  1.00  0.00    -0.387 N 
ATOM     22  H62 UNL     1      36.636  -4.671  14.898  1.00  0.00     0.157 HD
ATOM     23  H61 UNL     1      36.100  -5.999  13.837  1.00  0.00     0.157 HD
BRANCH  20  24
HETATM   24  C5  UNL     1      34.871  -4.654  12.089  1.00  0.00     0.159 C 
BRANCH  24  25
HETATM   25  S1  UNL     1      33.730  -5.992  12.436  1.00  0.00    -0.087 SA
BRANCH  25  26
HETATM   26  C6  UNL     1      34.001  -7.303  11.265  1.00  0.00     0.136 C 
HETATM   27  N7  UNL     1      33.617  -8.523  11.394  1.00  0.00    -0.369 N 
HETATM   28  C7  UNL     1      33.992  -9.340  10.267  1.00  0.00     0.141 C 
ATOM     29  H7  UNL     1      33.104  -8.874  12.203  1.00  0.00     0.161 HD
HETATM   30  C8  UNL     1      35.051  -8.496   9.583  1.00  0.00     0.141 C 
HETATM   31  N8  UNL     1      34.674  -7.163  10.034  1.00  0.00    -0.369 N 
ATOM     32  H8  UNL     1      34.864  -6.287   9.547  1.00  0.00     0.161 HD
ENDBRANCH  25  26
ENDBRANCH  24  25
ENDBRANCH  20  24
ENDBRANCH  18  20
ENDBRANCH   1  18
TORSDOF 7
ENDMDL
MODEL 5
REMARK VINA RESULT: -5.632151480      2.884      4.861
REMARK  7 active torsions:
REMARK  status: ('A' for Active; 'I' for Inactive)
REMARK       I    between atoms: N1_2  and  C2_4 
REMARK       I    between atoms: C2_4  and  N2_6 
REMARK    1  A    between atoms: C3_9  and  N4_10 
REMARK    2  A    between atoms: N4_10  and  N5_12 
REMARK    3  A    between atoms: N5_12  and  C4_14 
REMARK    4  A    between atoms: C4_14  and  C5_18 
REMARK    5  A    between atoms: C5_18  and  S1_19 
REMARK    6  A    between atoms: S1_19  and  C6_20 
REMARK    7  A    between atoms: N9_27  and  N10_28 
ROOT
HETATM    1  N4  UNL     1      36.897  -3.573  13.449  1.00  0.00    -0.127 N 
ATOM      2  H4  UNL     1      37.715  -3.486  12.847  1.00  0.00     0.205 HD
ENDROOT
BRANCH   1   3
HETATM    3  C3  UNL     1      36.007  -4.491  13.223  1.00  0.00     0.737 A 
HETATM    4  N3  UNL     1      35.872  -5.655  13.883  1.00  0.00    -0.114 N 
HETATM    5  N2  UNL     1      34.867  -6.342  13.389  1.00  0.00    -0.137 N 
ATOM      6  H3  UNL     1      36.464  -5.961  14.655  1.00  0.00     0.206 HD
HETATM    7  C2  UNL     1      34.440  -7.617  13.847  1.00  0.00     0.345 C 
HETATM    8  C9  UNL     1      34.360  -5.595  12.402  1.00  0.00     0.386 A 
HETATM    9  N1  UNL     1      35.106  -8.256  14.914  1.00  0.00    -0.345 N 
HETATM   10  O1  UNL     1      33.449  -8.211  13.304  1.00  0.00    -0.245 OA
HETATM   11  C1  UNL     1      34.674  -9.572  15.392  1.00  0.00     0.151 C 
ATOM     12  H1  UNL     1      35.900  -7.795  15.360  1.00  0.00     0.163 HD
HETATM   13  N9  UNL     1      35.044  -4.445  12.275  1.00  0.00    -0.034 N 
HETATM   14  O2  UNL     1      33.379  -5.946  11.703  1.00  0.00    -0.242 OA
BRANCH  13  15
HETATM   15  N10 UNL     1      34.832  -3.404  11.367  1.00  0.00    -0.320 N 
ATOM     16 2H10 UNL     1      35.304  -2.501  11.318  1.00  0.00     0.178 HD
ATOM     17 1H10 UNL     1      34.155  -3.400  10.605  1.00  0.00     0.178 HD
ENDBRANCH  13  15
ENDBRANCH   1   3
BRANCH   1  18
HETATM   18  N5  UNL     1      36.718  -2.705  14.529  1.00  0.00    -0.274 N 
ATOM     19  H5  UNL     1      35.805  -2.274  14.676  1.00  0.00     0.189 HD
BRANCH  18  20
HETATM   20  C4  UNL     1      37.786  -2.406  15.433  1.00  0.00     0.099 C 
HETATM   21  N6  UNL     1      37.510  -2.205  16.664  1.00  0.00    -0.387 N 
ATOM     22  H62 UNL     1      36.541  -2.260  16.978  1.00  0.00     0.157 HD
ATOM     23  H61 UNL     1      38.272  -1.991  17.308  1.00  0.00     0.157 HD
BRANCH  20  24
HETATM   24  C5  UNL     1      39.186  -2.326  14.979  1.00  0.00     0.159 C 
BRANCH  24  25
HETATM   25  S1  UNL     1      39.607  -0.734  14.272  1.00  0.00    -0.087 SA
BRANCH  25  26
HETATM   26  C6  UNL     1      38.314  -0.235  13.156  1.00  0.00     0.136 C 
HETATM   27  N7  UNL     1      37.364   0.590  13.420  1.00  0.00    -0.369 N 
HETATM   28  C7  UNL     1      36.476   0.783  12.302  1.00  0.00     0.141 C 
ATOM     29  H7  UNL     1      37.251   1.056  14.321  1.00  0.00     0.161 HD
HETATM   30  C8  UNL     1      36.808  -0.396  11.406  1.00  0.00     0.141 C 
HETATM   31  N8  UNL     1      38.172  -0.686  11.827  1.00  0.00    -0.369 N 
ATOM     32  H8  UNL     1      38.894  -1.134  11.263  1.00  0.00     0.161 HD
ENDBRANCH  25  26
ENDBRANCH  24  25
ENDBRANCH  20  24
ENDBRANCH  18  20
ENDBRANCH   1  18
TORSDOF 7
ENDMDL
