MODEL 1
REMARK VINA RESULT: -6.819528104      0.000      0.000
REMARK  9 active torsions:
REMARK  status: ('A' for Active; 'I' for Inactive)
REMARK    1  A    between atoms: C2_2  and  O1_3 
REMARK    2  A    between atoms: O1_3  and  C3_4 
REMARK    3  A    between atoms: C3_4  and  C4_6 
REMARK    4  A    between atoms: C4_6  and  O3_7 
REMARK    5  A    between atoms: O3_7  and  N1_8 
REMARK    6  A    between atoms: N1_8  and  C5_10 
REMARK    7  A    between atoms: C6_13  and  N3_14 
REMARK       I    between atoms: N3_14  and  C7_16 
REMARK    8  A    between atoms: C9_24  and  N7_25 
REMARK    9  A    between atoms: N9_32  and  N10_33 
ROOT
HETATM    1  C5  UNL     1      37.885  -0.800  13.002  1.00  0.00     0.725 A 
HETATM    2  N2  UNL     1      38.124  -1.579  14.067  1.00  0.00    -0.171 N 
ATOM      3  H2  UNL     1      38.824  -1.269  14.741  1.00  0.00     0.186 HD
HETATM    4  C6  UNL     1      37.495  -2.739  14.296  1.00  0.00     0.153 A 
HETATM    5  C8  UNL     1      36.549  -3.165  13.398  1.00  0.00     0.124 A 
HETATM    6  N6  UNL     1      35.902  -4.335  13.611  1.00  0.00    -0.186 N 
ATOM      7  H6  UNL     1      36.115  -4.897  14.434  1.00  0.00     0.184 HD
HETATM    8  C9  UNL     1      34.979  -4.749  12.732  1.00  0.00     0.676 A 
HETATM    9  N8  UNL     1      34.721  -3.997  11.666  1.00  0.00    -0.200 N 
ATOM     10  H8  UNL     1      34.017  -4.328  11.006  1.00  0.00     0.183 HD
HETATM   11  C10 UNL     1      35.335  -2.822  11.402  1.00  0.00     0.140 A 
HETATM   12  C11 UNL     1      36.289  -2.383  12.299  1.00  0.00     0.121 A 
HETATM   13  N9  UNL     1      36.957  -1.223  12.124  1.00  0.00    -0.087 N 
ENDROOT
BRANCH   1  14
HETATM   14  N1  UNL     1      38.541   0.311  12.855  1.00  0.00    -0.094 N 
ATOM     15  H1  UNL     1      39.252   0.355  12.126  1.00  0.00     0.213 HD
BRANCH  14  16
HETATM   16  O3  UNL     1      38.339   1.412  13.612  1.00  0.00    -0.257 OA
BRANCH  16  17
HETATM   17  C4  UNL     1      38.089   2.645  12.962  1.00  0.00     0.312 C 
BRANCH  17  18
HETATM   18  C3  UNL     1      36.615   2.855  12.963  1.00  0.00     0.285 C 
HETATM   19  O2  UNL     1      35.805   1.925  13.224  1.00  0.00    -0.263 OA
BRANCH  18  20
HETATM   20  O1  UNL     1      36.052   4.094  12.673  1.00  0.00    -0.320 OA
BRANCH  20  21
HETATM   21  C2  UNL     1      35.749   5.020  13.698  1.00  0.00     0.174 C 
HETATM   22  C1  UNL     1      36.794   6.116  13.657  1.00  0.00     0.034 C 
ENDBRANCH  20  21
ENDBRANCH  18  20
ENDBRANCH  17  18
ENDBRANCH  16  17
ENDBRANCH  14  16
ENDBRANCH   1  14
BRANCH  13  23
HETATM   23  N10 UNL     1      36.705  -0.419  11.016  1.00  0.00    -0.324 N 
ATOM     24 2H10 UNL     1      36.935   0.575  11.031  1.00  0.00     0.178 HD
ATOM     25 1H10 UNL     1      36.285  -0.861  10.199  1.00  0.00     0.178 HD
ENDBRANCH  13  23
BRANCH   4  26
HETATM   26  N3  UNL     1      37.732  -3.485  15.327  1.00  0.00    -0.315 N 
HETATM   27  C7  UNL     1      38.336  -3.013  16.515  1.00  0.00     0.187 C 
HETATM   28  N4  UNL     1      37.691  -2.416  17.448  1.00  0.00    -0.373 N 
HETATM   29  N5  UNL     1      39.727  -3.214  16.681  1.00  0.00    -0.064 NA
ATOM     30  H42 UNL     1      36.688  -2.271  17.328  1.00  0.00     0.158 HD
ATOM     31  H41 UNL     1      38.127  -2.075  18.305  1.00  0.00     0.158 HD
ATOM     32  H3  UNL     1      37.468  -4.469  15.279  1.00  0.00     0.170 HD
ENDBRANCH   4  26
BRANCH   8  33
HETATM   33  N7  UNL     1      34.344  -5.867  12.913  1.00  0.00    -0.234 N 
ATOM     34  H72 UNL     1      34.851  -6.705  13.199  1.00  0.00     0.174 HD
ATOM     35  H71 UNL     1      33.336  -5.923  12.773  1.00  0.00     0.174 HD
ENDBRANCH   8  33
TORSDOF 9
ENDMDL
MODEL 2
REMARK VINA RESULT: -6.740966384      0.914      1.126
REMARK  9 active torsions:
REMARK  status: ('A' for Active; 'I' for Inactive)
REMARK    1  A    between atoms: C2_2  and  O1_3 
REMARK    2  A    between atoms: O1_3  and  C3_4 
REMARK    3  A    between atoms: C3_4  and  C4_6 
REMARK    4  A    between atoms: C4_6  and  O3_7 
REMARK    5  A    between atoms: O3_7  and  N1_8 
REMARK    6  A    between atoms: N1_8  and  C5_10 
REMARK    7  A    between atoms: C6_13  and  N3_14 
REMARK       I    between atoms: N3_14  and  C7_16 
REMARK    8  A    between atoms: C9_24  and  N7_25 
REMARK    9  A    between atoms: N9_32  and  N10_33 
ROOT
HETATM    1  C5  UNL     1      37.419  -0.390  12.716  1.00  0.00     0.725 A 
HETATM    2  N2  UNL     1      37.630  -0.962  13.909  1.00  0.00    -0.171 N 
ATOM      3  H2  UNL     1      38.203  -0.461  14.589  1.00  0.00     0.186 HD
HETATM    4  C6  UNL     1      37.131  -2.156  14.261  1.00  0.00     0.153 A 
HETATM    5  C8  UNL     1      36.357  -2.839  13.356  1.00  0.00     0.124 A 
HETATM    6  N6  UNL     1      35.843  -4.045  13.691  1.00  0.00    -0.186 N 
ATOM      7  H6  UNL     1      36.029  -4.445  14.610  1.00  0.00     0.184 HD
HETATM    8  C9  UNL     1      35.089  -4.710  12.806  1.00  0.00     0.676 A 
HETATM    9  N8  UNL     1      34.863  -4.167  11.613  1.00  0.00    -0.200 N 
ATOM     10  H8  UNL     1      34.287  -4.687  10.951  1.00  0.00     0.183 HD
HETATM   11  C10 UNL     1      35.349  -2.967  11.225  1.00  0.00     0.140 A 
HETATM   12  C11 UNL     1      36.129  -2.270  12.127  1.00  0.00     0.121 A 
HETATM   13  N9  UNL     1      36.660  -1.065  11.833  1.00  0.00    -0.087 N 
ENDROOT
BRANCH   1  14
HETATM   14  N1  UNL     1      37.942   0.771  12.456  1.00  0.00    -0.094 N 
ATOM     15  H1  UNL     1      38.958   0.847  12.444  1.00  0.00     0.213 HD
BRANCH  14  16
HETATM   16  O3  UNL     1      37.219   1.884  12.202  1.00  0.00    -0.257 OA
BRANCH  16  17
HETATM   17  C4  UNL     1      37.546   3.077  12.892  1.00  0.00     0.312 C 
BRANCH  17  18
HETATM   18  C3  UNL     1      36.265   3.739  13.264  1.00  0.00     0.285 C 
HETATM   19  O2  UNL     1      35.244   3.081  13.603  1.00  0.00    -0.263 OA
BRANCH  18  20
HETATM   20  O1  UNL     1      36.128   5.123  13.257  1.00  0.00    -0.320 OA
BRANCH  20  21
HETATM   21  C2  UNL     1      37.158   5.966  13.733  1.00  0.00     0.174 C 
HETATM   22  C1  UNL     1      37.121   5.937  15.246  1.00  0.00     0.034 C 
ENDBRANCH  20  21
ENDBRANCH  18  20
ENDBRANCH  17  18
ENDBRANCH  16  17
ENDBRANCH  14  16
ENDBRANCH   1  14
BRANCH  13  23
HETATM   23  N10 UNL     1      36.438  -0.474  10.591  1.00  0.00    -0.324 N 
ATOM     24 2H10 UNL     1      36.851   0.430  10.364  1.00  0.00     0.178 HD
ATOM     25 1H10 UNL     1      35.852  -0.980   9.927  1.00  0.00     0.178 HD
ENDBRANCH  13  23
BRANCH   4  26
HETATM   26  N3  UNL     1      37.339  -2.701  15.415  1.00  0.00    -0.315 N 
HETATM   27  C7  UNL     1      38.472  -3.491  15.717  1.00  0.00     0.187 C 
HETATM   28  N4  UNL     1      39.606  -3.000  16.060  1.00  0.00    -0.373 N 
HETATM   29  N5  UNL     1      38.345  -4.899  15.638  1.00  0.00    -0.064 NA
ATOM     30  H42 UNL     1      39.698  -1.986  16.117  1.00  0.00     0.158 HD
ATOM     31  H41 UNL     1      40.424  -3.570  16.278  1.00  0.00     0.158 HD
ATOM     32  H3  UNL     1      36.646  -2.554  16.148  1.00  0.00     0.170 HD
ENDBRANCH   4  26
BRANCH   8  33
HETATM   33  N7  UNL     1      34.584  -5.869  13.102  1.00  0.00    -0.234 N 
ATOM     34  H72 UNL     1      34.064  -5.996  13.970  1.00  0.00     0.174 HD
ATOM     35  H71 UNL     1      34.700  -6.665  12.475  1.00  0.00     0.174 HD
ENDBRANCH   8  33
TORSDOF 9
ENDMDL
MODEL 3
REMARK VINA RESULT: -6.405656383      1.273      1.551
REMARK  9 active torsions:
REMARK  status: ('A' for Active; 'I' for Inactive)
REMARK    1  A    between atoms: C2_2  and  O1_3 
REMARK    2  A    between atoms: O1_3  and  C3_4 
REMARK    3  A    between atoms: C3_4  and  C4_6 
REMARK    4  A    between atoms: C4_6  and  O3_7 
REMARK    5  A    between atoms: O3_7  and  N1_8 
REMARK    6  A    between atoms: N1_8  and  C5_10 
REMARK    7  A    between atoms: C6_13  and  N3_14 
REMARK       I    between atoms: N3_14  and  C7_16 
REMARK    8  A    between atoms: C9_24  and  N7_25 
REMARK    9  A    between atoms: N9_32  and  N10_33 
ROOT
HETATM    1  C5  UNL     1      36.410  -1.471  12.514  1.00  0.00     0.725 A 
HETATM    2  N2  UNL     1      37.198  -1.783  13.554  1.00  0.00    -0.171 N 
ATOM      3  H2  UNL     1      37.811  -1.058  13.927  1.00  0.00     0.186 HD
HETATM    4  C6  UNL     1      37.224  -2.992  14.131  1.00  0.00     0.153 A 
HETATM    5  C8  UNL     1      36.401  -3.975  13.639  1.00  0.00     0.124 A 
HETATM    6  N6  UNL     1      36.412  -5.203  14.208  1.00  0.00    -0.186 N 
ATOM      7  H6  UNL     1      37.027  -5.398  14.997  1.00  0.00     0.184 HD
HETATM    8  C9  UNL     1      35.609  -6.161  13.726  1.00  0.00     0.676 A 
HETATM    9  N8  UNL     1      34.817  -5.880  12.695  1.00  0.00    -0.200 N 
ATOM     10  H8  UNL     1      34.213  -6.621  12.339  1.00  0.00     0.183 HD
HETATM   11  C10 UNL     1      34.764  -4.674  12.088  1.00  0.00     0.140 A 
HETATM   12  C11 UNL     1      35.587  -3.676  12.574  1.00  0.00     0.121 A 
HETATM   13  N9  UNL     1      35.607  -2.439  12.037  1.00  0.00    -0.087 N 
ENDROOT
BRANCH   1  14
HETATM   14  N1  UNL     1      36.449  -0.273  12.014  1.00  0.00    -0.094 N 
ATOM     15  H1  UNL     1      35.574   0.139  11.690  1.00  0.00     0.213 HD
BRANCH  14  16
HETATM   16  O3  UNL     1      37.577   0.461  11.898  1.00  0.00    -0.257 OA
BRANCH  16  17
HETATM   17  C4  UNL     1      37.869   1.420  12.898  1.00  0.00     0.312 C 
BRANCH  17  18
HETATM   18  C3  UNL     1      36.779   2.434  12.871  1.00  0.00     0.285 C 
HETATM   19  O2  UNL     1      35.631   2.198  13.338  1.00  0.00    -0.263 OA
BRANCH  18  20
HETATM   20  O1  UNL     1      36.970   3.700  12.327  1.00  0.00    -0.320 OA
BRANCH  20  21
HETATM   21  C2  UNL     1      37.745   4.676  12.994  1.00  0.00     0.174 C 
HETATM   22  C1  UNL     1      36.828   5.442  13.924  1.00  0.00     0.034 C 
ENDBRANCH  20  21
ENDBRANCH  18  20
ENDBRANCH  17  18
ENDBRANCH  16  17
ENDBRANCH  14  16
ENDBRANCH   1  14
BRANCH  13  23
HETATM   23  N10 UNL     1      34.788  -2.120  10.957  1.00  0.00    -0.324 N 
ATOM     24 2H10 UNL     1      35.185  -1.966  10.030  1.00  0.00     0.178 HD
ATOM     25 1H10 UNL     1      33.786  -2.049  11.131  1.00  0.00     0.178 HD
ENDBRANCH  13  23
BRANCH   4  26
HETATM   26  N3  UNL     1      37.986  -3.285  15.134  1.00  0.00    -0.315 N 
HETATM   27  C7  UNL     1      38.258  -2.396  16.200  1.00  0.00     0.187 C 
HETATM   28  N4  UNL     1      37.477  -2.234  17.203  1.00  0.00    -0.373 N 
HETATM   29  N5  UNL     1      39.459  -1.647  16.154  1.00  0.00    -0.064 NA
ATOM     30  H42 UNL     1      36.612  -2.774  17.236  1.00  0.00     0.158 HD
ATOM     31  H41 UNL     1      37.673  -1.593  17.972  1.00  0.00     0.158 HD
ATOM     32  H3  UNL     1      38.416  -4.209  15.158  1.00  0.00     0.170 HD
ENDBRANCH   4  26
BRANCH   8  33
HETATM   33  N7  UNL     1      35.600  -7.347  14.253  1.00  0.00    -0.234 N 
ATOM     34  H72 UNL     1      35.182  -8.130  13.750  1.00  0.00     0.174 HD
ATOM     35  H71 UNL     1      36.009  -7.513  15.173  1.00  0.00     0.174 HD
ENDBRANCH   8  33
TORSDOF 9
ENDMDL
MODEL 4
REMARK VINA RESULT: -6.370439061      1.226      1.549
REMARK  9 active torsions:
REMARK  status: ('A' for Active; 'I' for Inactive)
REMARK    1  A    between atoms: C2_2  and  O1_3 
REMARK    2  A    between atoms: O1_3  and  C3_4 
REMARK    3  A    between atoms: C3_4  and  C4_6 
REMARK    4  A    between atoms: C4_6  and  O3_7 
REMARK    5  A    between atoms: O3_7  and  N1_8 
REMARK    6  A    between atoms: N1_8  and  C5_10 
REMARK    7  A    between atoms: C6_13  and  N3_14 
REMARK       I    between atoms: N3_14  and  C7_16 
REMARK    8  A    between atoms: C9_24  and  N7_25 
REMARK    9  A    between atoms: N9_32  and  N10_33 
ROOT
HETATM    1  C5  UNL     1      37.328  -0.367  12.626  1.00  0.00     0.725 A 
HETATM    2  N2  UNL     1      37.560  -0.932  13.820  1.00  0.00    -0.171 N 
ATOM      3  H2  UNL     1      38.137  -0.422  14.489  1.00  0.00     0.186 HD
HETATM    4  C6  UNL     1      37.078  -2.129  14.182  1.00  0.00     0.153 A 
HETATM    5  C8  UNL     1      36.300  -2.823  13.290  1.00  0.00     0.124 A 
HETATM    6  N6  UNL     1      35.802  -4.034  13.637  1.00  0.00    -0.186 N 
ATOM      7  H6  UNL     1      36.003  -4.428  14.555  1.00  0.00     0.184 HD
HETATM    8  C9  UNL     1      35.043  -4.710  12.765  1.00  0.00     0.676 A 
HETATM    9  N8  UNL     1      34.796  -4.173  11.573  1.00  0.00    -0.200 N 
ATOM     10  H8  UNL     1      34.217  -4.703  10.920  1.00  0.00     0.183 HD
HETATM   11  C10 UNL     1      35.265  -2.971  11.173  1.00  0.00     0.140 A 
HETATM   12  C11 UNL     1      36.050  -2.262  12.062  1.00  0.00     0.121 A 
HETATM   13  N9  UNL     1      36.565  -1.053  11.756  1.00  0.00    -0.087 N 
ENDROOT
BRANCH   1  14
HETATM   14  N1  UNL     1      37.836   0.798  12.356  1.00  0.00    -0.094 N 
ATOM     15  H1  UNL     1      37.486   1.295  11.537  1.00  0.00     0.213 HD
BRANCH  14  16
HETATM   16  O3  UNL     1      38.799   1.391  13.094  1.00  0.00    -0.257 OA
BRANCH  16  17
HETATM   17  C4  UNL     1      38.501   2.614  13.743  1.00  0.00     0.312 C 
BRANCH  17  18
HETATM   18  C3  UNL     1      37.457   3.301  12.933  1.00  0.00     0.285 C 
HETATM   19  O2  UNL     1      36.227   3.185  13.186  1.00  0.00    -0.263 OA
BRANCH  18  20
HETATM   20  O1  UNL     1      37.786   4.111  11.851  1.00  0.00    -0.320 OA
BRANCH  20  21
HETATM   21  C2  UNL     1      38.854   5.034  11.923  1.00  0.00     0.174 C 
HETATM   22  C1  UNL     1      39.701   4.863  10.679  1.00  0.00     0.034 C 
ENDBRANCH  20  21
ENDBRANCH  18  20
ENDBRANCH  17  18
ENDBRANCH  16  17
ENDBRANCH  14  16
ENDBRANCH   1  14
BRANCH  13  23
HETATM   23  N10 UNL     1      36.321  -0.470  10.515  1.00  0.00    -0.324 N 
ATOM     24 2H10 UNL     1      35.896   0.455  10.449  1.00  0.00     0.178 HD
ATOM     25 1H10 UNL     1      36.584  -1.002   9.686  1.00  0.00     0.178 HD
ENDBRANCH  13  23
BRANCH   4  26
HETATM   26  N3  UNL     1      37.306  -2.667  15.336  1.00  0.00    -0.315 N 
HETATM   27  C7  UNL     1      38.447  -3.452  15.625  1.00  0.00     0.187 C 
HETATM   28  N4  UNL     1      39.584  -2.956  15.946  1.00  0.00    -0.373 N 
HETATM   29  N5  UNL     1      38.322  -4.860  15.555  1.00  0.00    -0.064 NA
ATOM     30  H42 UNL     1      39.674  -1.941  15.996  1.00  0.00     0.158 HD
ATOM     31  H41 UNL     1      40.407  -3.522  16.154  1.00  0.00     0.158 HD
ATOM     32  H3  UNL     1      36.625  -2.518  16.080  1.00  0.00     0.170 HD
ENDBRANCH   4  26
BRANCH   8  33
HETATM   33  N7  UNL     1      34.554  -5.873  13.072  1.00  0.00    -0.234 N 
ATOM     34  H72 UNL     1      34.289  -6.080  14.035  1.00  0.00     0.174 HD
ATOM     35  H71 UNL     1      34.428  -6.591  12.359  1.00  0.00     0.174 HD
ENDBRANCH   8  33
TORSDOF 9
ENDMDL
MODEL 5
REMARK VINA RESULT: -6.246601411      1.376      2.335
REMARK  9 active torsions:
REMARK  status: ('A' for Active; 'I' for Inactive)
REMARK    1  A    between atoms: C2_2  and  O1_3 
REMARK    2  A    between atoms: O1_3  and  C3_4 
REMARK    3  A    between atoms: C3_4  and  C4_6 
REMARK    4  A    between atoms: C4_6  and  O3_7 
REMARK    5  A    between atoms: O3_7  and  N1_8 
REMARK    6  A    between atoms: N1_8  and  C5_10 
REMARK    7  A    between atoms: C6_13  and  N3_14 
REMARK       I    between atoms: N3_14  and  C7_16 
REMARK    8  A    between atoms: C9_24  and  N7_25 
REMARK    9  A    between atoms: N9_32  and  N10_33 
ROOT
HETATM    1  C5  UNL     1      37.168  -0.350  12.682  1.00  0.00     0.725 A 
HETATM    2  N2  UNL     1      37.434  -0.888  13.881  1.00  0.00    -0.171 N 
ATOM      3  H2  UNL     1      37.967  -0.332  14.550  1.00  0.00     0.186 HD
HETATM    4  C6  UNL     1      37.041  -2.115  14.250  1.00  0.00     0.153 A 
HETATM    5  C8  UNL     1      36.322  -2.872  13.359  1.00  0.00     0.124 A 
HETATM    6  N6  UNL     1      35.914  -4.114  13.712  1.00  0.00    -0.186 N 
ATOM      7  H6  UNL     1      36.139  -4.485  14.635  1.00  0.00     0.184 HD
HETATM    8  C9  UNL     1      35.213  -4.851  12.841  1.00  0.00     0.676 A 
HETATM    9  N8  UNL     1      34.934  -4.343  11.643  1.00  0.00    -0.200 N 
ATOM     10  H8  UNL     1      34.401  -4.919  10.992  1.00  0.00     0.183 HD
HETATM   11  C10 UNL     1      35.315  -3.112  11.237  1.00  0.00     0.140 A 
HETATM   12  C11 UNL     1      36.039  -2.340  12.125  1.00  0.00     0.121 A 
HETATM   13  N9  UNL     1      36.464  -1.098  11.813  1.00  0.00    -0.087 N 
ENDROOT
BRANCH   1  14
HETATM   14  N1  UNL     1      37.589   0.847  12.405  1.00  0.00    -0.094 N 
ATOM     15  H1  UNL     1      38.594   0.996  12.327  1.00  0.00     0.213 HD
BRANCH  14  16
HETATM   16  O3  UNL     1      36.774   1.908  12.214  1.00  0.00    -0.257 OA
BRANCH  16  17
HETATM   17  C4  UNL     1      37.056   3.112  12.905  1.00  0.00     0.312 C 
BRANCH  17  18
HETATM   18  C3  UNL     1      38.323   3.657  12.345  1.00  0.00     0.285 C 
HETATM   19  O2  UNL     1      38.335   4.578  11.483  1.00  0.00    -0.263 OA
BRANCH  18  20
HETATM   20  O1  UNL     1      39.566   3.176  12.745  1.00  0.00    -0.320 OA
BRANCH  20  21
HETATM   21  C2  UNL     1      40.646   3.090  11.837  1.00  0.00     0.174 C 
HETATM   22  C1  UNL     1      41.056   1.635  11.740  1.00  0.00     0.034 C 
ENDBRANCH  20  21
ENDBRANCH  18  20
ENDBRANCH  17  18
ENDBRANCH  16  17
ENDBRANCH  14  16
ENDBRANCH   1  14
BRANCH  13  23
HETATM   23  N10 UNL     1      36.185  -0.544  10.566  1.00  0.00    -0.324 N 
ATOM     24 2H10 UNL     1      36.774  -0.753   9.760  1.00  0.00     0.178 HD
ATOM     25 1H10 UNL     1      35.375   0.072  10.495  1.00  0.00     0.178 HD
ENDBRANCH  13  23
BRANCH   4  26
HETATM   26  N3  UNL     1      37.302  -2.626  15.409  1.00  0.00    -0.315 N 
HETATM   27  C7  UNL     1      38.487  -3.339  15.704  1.00  0.00     0.187 C 
HETATM   28  N4  UNL     1      39.593  -2.772  16.018  1.00  0.00    -0.373 N 
HETATM   29  N5  UNL     1      38.446  -4.753  15.650  1.00  0.00    -0.064 NA
ATOM     30  H42 UNL     1      39.622  -1.753  16.057  1.00  0.00     0.158 HD
ATOM     31  H41 UNL     1      40.449  -3.286  16.231  1.00  0.00     0.158 HD
ATOM     32  H3  UNL     1      36.613  -2.510  16.152  1.00  0.00     0.170 HD
ENDBRANCH   4  26
BRANCH   8  33
HETATM   33  N7  UNL     1      34.811  -6.045  13.155  1.00  0.00    -0.234 N 
ATOM     34  H72 UNL     1      34.387  -6.221  14.066  1.00  0.00     0.174 HD
ATOM     35  H71 UNL     1      34.911  -6.819  12.498  1.00  0.00     0.174 HD
ENDBRANCH   8  33
TORSDOF 9
ENDMDL
