MODEL 1
REMARK VINA RESULT: -5.613411598      0.000      0.000
REMARK  7 active torsions:
REMARK  status: ('A' for Active; 'I' for Inactive)
REMARK    1  A    between atoms: C2_2  and  C3_3 
REMARK    2  A    between atoms: C3_3  and  C4_4 
REMARK    3  A    between atoms: C4_4  and  N1_5 
REMARK    4  A    between atoms: N1_5  and  C5_7 
REMARK    5  A    between atoms: C5_7  and  N2_9 
REMARK    6  A    between atoms: N2_9  and  N3_11 
REMARK    7  A    between atoms: N3_11  and  C6_13 
ROOT
HETATM    1  C6  UNL     1      43.170  -1.047  28.862  1.00  0.00     0.698 A 
HETATM    2  N4  UNL     1      43.923  -1.143  29.970  1.00  0.00    -0.188 N 
ATOM      3  H4  UNL     1      44.935  -1.276  29.970  1.00  0.00     0.184 HD
HETATM    4  C7  UNL     1      43.169  -1.040  31.083  1.00  0.00     0.078 A 
HETATM    5  C8  UNL     1      43.460  -1.075  32.448  1.00  0.00     0.052 A 
HETATM    6  C9  UNL     1      42.446  -0.940  33.373  1.00  0.00     0.019 A 
HETATM    7 BR1  UNL     1      42.795  -0.985  35.261  1.00  0.00    -0.050 Br
HETATM    8  C10 UNL     1      41.139  -0.768  32.969  1.00  0.00    -0.036 A 
HETATM    9  C11 UNL     1      40.031  -0.617  33.978  1.00  0.00     0.050 C 
HETATM   10  C12 UNL     1      40.874  -0.735  31.610  1.00  0.00    -0.025 A 
HETATM   11  C13 UNL     1      39.493  -0.554  31.149  1.00  0.00     0.051 C 
HETATM   12  C14 UNL     1      41.873  -0.869  30.655  1.00  0.00     0.083 A 
HETATM   13  N5  UNL     1      41.902  -0.877  29.312  1.00  0.00    -0.188 N 
ATOM     14  H5  UNL     1      41.083  -0.771  28.713  1.00  0.00     0.184 HD
ENDROOT
BRANCH   1  15
HETATM   15  N3  UNL     1      43.539  -1.101  27.607  1.00  0.00    -0.130 N 
ATOM     16  H3  UNL     1      43.275  -0.384  26.932  1.00  0.00     0.205 HD
BRANCH  15  17
HETATM   17  N2  UNL     1      44.333  -2.229  27.250  1.00  0.00    -0.262 N 
ATOM     18  H2  UNL     1      45.326  -2.279  27.475  1.00  0.00     0.190 HD
BRANCH  17  19
HETATM   19  C5  UNL     1      43.674  -3.273  26.568  1.00  0.00     0.186 C 
HETATM   20  S1  UNL     1      43.920  -3.505  24.959  1.00  0.00    -0.040 SA
BRANCH  19  21
HETATM   21  N1  UNL     1      42.796  -4.143  27.237  1.00  0.00    -0.366 N 
ATOM     22  H1  UNL     1      41.925  -4.419  26.782  1.00  0.00     0.161 HD
BRANCH  21  23
HETATM   23  C4  UNL     1      43.093  -4.649  28.539  1.00  0.00     0.122 C 
BRANCH  23  24
HETATM   24  C3  UNL     1      41.964  -4.472  29.506  1.00  0.00     0.019 C 
BRANCH  24  25
HETATM   25  C2  UNL     1      42.481  -4.581  30.938  1.00  0.00    -0.003 C 
HETATM   26  C1  UNL     1      41.316  -4.385  31.879  1.00  0.00     0.005 C 
ENDBRANCH  24  25
ENDBRANCH  23  24
ENDBRANCH  21  23
ENDBRANCH  19  21
ENDBRANCH  17  19
ENDBRANCH  15  17
ENDBRANCH   1  15
TORSDOF 7
ENDMDL
MODEL 2
REMARK VINA RESULT: -5.482773013      4.399      6.037
REMARK  7 active torsions:
REMARK  status: ('A' for Active; 'I' for Inactive)
REMARK    1  A    between atoms: C2_2  and  C3_3 
REMARK    2  A    between atoms: C3_3  and  C4_4 
REMARK    3  A    between atoms: C4_4  and  N1_5 
REMARK    4  A    between atoms: N1_5  and  C5_7 
REMARK    5  A    between atoms: C5_7  and  N2_9 
REMARK    6  A    between atoms: N2_9  and  N3_11 
REMARK    7  A    between atoms: N3_11  and  C6_13 
ROOT
HETATM    1  C6  UNL     1      44.575   0.408  33.656  1.00  0.00     0.698 A 
HETATM    2  N4  UNL     1      43.858   1.530  33.834  1.00  0.00    -0.188 N 
ATOM      3  H4  UNL     1      43.216   1.919  33.142  1.00  0.00     0.184 HD
HETATM    4  C7  UNL     1      44.096   2.074  35.044  1.00  0.00     0.078 A 
HETATM    5  C8  UNL     1      43.616   3.211  35.697  1.00  0.00     0.052 A 
HETATM    6  C9  UNL     1      44.060   3.515  36.967  1.00  0.00     0.019 A 
HETATM    7 BR1  UNL     1      43.432   5.068  37.906  1.00  0.00    -0.050 Br
HETATM    8  C10 UNL     1      44.976   2.708  37.608  1.00  0.00    -0.036 A 
HETATM    9  C11 UNL     1      45.460   3.037  38.996  1.00  0.00     0.050 C 
HETATM   10  C12 UNL     1      45.437   1.585  36.941  1.00  0.00    -0.025 A 
HETATM   11  C13 UNL     1      46.413   0.707  37.596  1.00  0.00     0.051 C 
HETATM   12  C14 UNL     1      45.010   1.253  35.662  1.00  0.00     0.083 A 
HETATM   13  N5  UNL     1      45.283   0.257  34.803  1.00  0.00    -0.188 N 
ATOM     14  H5  UNL     1      45.932  -0.508  34.988  1.00  0.00     0.184 HD
ENDROOT
BRANCH   1  15
HETATM   15  N3  UNL     1      44.615  -0.390  32.619  1.00  0.00    -0.130 N 
ATOM     16  H3  UNL     1      45.452  -0.913  32.367  1.00  0.00     0.205 HD
BRANCH  15  17
HETATM   17  N2  UNL     1      43.407  -0.479  31.867  1.00  0.00    -0.262 N 
ATOM     18  H2  UNL     1      42.579   0.063  32.116  1.00  0.00     0.190 HD
BRANCH  17  19
HETATM   19  C5  UNL     1      43.415  -1.355  30.763  1.00  0.00     0.186 C 
HETATM   20  S1  UNL     1      42.872  -2.899  30.917  1.00  0.00    -0.040 SA
BRANCH  19  21
HETATM   21  N1  UNL     1      43.880  -0.938  29.503  1.00  0.00    -0.366 N 
ATOM     22  H1  UNL     1      44.174   0.031  29.375  1.00  0.00     0.161 HD
BRANCH  21  23
HETATM   23  C4  UNL     1      43.952  -1.839  28.397  1.00  0.00     0.122 C 
BRANCH  23  24
HETATM   24  C3  UNL     1      43.879  -1.146  27.074  1.00  0.00     0.019 C 
BRANCH  24  25
HETATM   25  C2  UNL     1      44.736  -1.886  26.049  1.00  0.00    -0.003 C 
HETATM   26  C1  UNL     1      44.242  -3.311  25.959  1.00  0.00     0.005 C 
ENDBRANCH  24  25
ENDBRANCH  23  24
ENDBRANCH  21  23
ENDBRANCH  19  21
ENDBRANCH  17  19
ENDBRANCH  15  17
ENDBRANCH   1  15
TORSDOF 7
ENDMDL
MODEL 3
REMARK VINA RESULT: -5.359535366      1.288      2.102
REMARK  7 active torsions:
REMARK  status: ('A' for Active; 'I' for Inactive)
REMARK    1  A    between atoms: C2_2  and  C3_3 
REMARK    2  A    between atoms: C3_3  and  C4_4 
REMARK    3  A    between atoms: C4_4  and  N1_5 
REMARK    4  A    between atoms: N1_5  and  C5_7 
REMARK    5  A    between atoms: C5_7  and  N2_9 
REMARK    6  A    between atoms: N2_9  and  N3_11 
REMARK    7  A    between atoms: N3_11  and  C6_13 
ROOT
HETATM    1  C6  UNL     1      42.992  -1.198  29.161  1.00  0.00     0.698 A 
HETATM    2  N4  UNL     1      41.668  -1.010  29.281  1.00  0.00    -0.188 N 
ATOM      3  H4  UNL     1      41.011  -1.023  28.500  1.00  0.00     0.184 HD
HETATM    4  C7  UNL     1      41.319  -0.802  30.566  1.00  0.00     0.078 A 
HETATM    5  C8  UNL     1      40.100  -0.562  31.205  1.00  0.00     0.052 A 
HETATM    6  C9  UNL     1      40.062  -0.383  32.572  1.00  0.00     0.019 A 
HETATM    7 BR1  UNL     1      38.412  -0.047  33.495  1.00  0.00    -0.050 Br
HETATM    8  C10 UNL     1      41.216  -0.438  33.325  1.00  0.00    -0.036 A 
HETATM    9  C11 UNL     1      41.175  -0.247  34.818  1.00  0.00     0.050 C 
HETATM   10  C12 UNL     1      42.412  -0.679  32.670  1.00  0.00    -0.025 A 
HETATM   11  C13 UNL     1      43.658  -0.744  33.444  1.00  0.00     0.051 C 
HETATM   12  C14 UNL     1      42.483  -0.863  31.296  1.00  0.00     0.083 A 
HETATM   13  N5  UNL     1      43.477  -1.102  30.424  1.00  0.00    -0.188 N 
ATOM     14  H5  UNL     1      44.461  -1.198  30.677  1.00  0.00     0.184 HD
ENDROOT
BRANCH   1  15
HETATM   15  N3  UNL     1      43.699  -1.425  28.083  1.00  0.00    -0.130 N 
ATOM     16  H3  UNL     1      43.867  -0.704  27.381  1.00  0.00     0.205 HD
BRANCH  15  17
HETATM   17  N2  UNL     1      44.217  -2.746  27.956  1.00  0.00    -0.262 N 
ATOM     18  H2  UNL     1      45.035  -3.054  28.483  1.00  0.00     0.190 HD
BRANCH  17  19
HETATM   19  C5  UNL     1      43.542  -3.606  27.065  1.00  0.00     0.186 C 
HETATM   20  S1  UNL     1      43.870  -3.564  25.455  1.00  0.00    -0.040 SA
BRANCH  19  21
HETATM   21  N1  UNL     1      42.577  -4.521  27.522  1.00  0.00    -0.366 N 
ATOM     22  H1  UNL     1      41.873  -4.870  26.871  1.00  0.00     0.161 HD
BRANCH  21  23
HETATM   23  C4  UNL     1      42.559  -4.973  28.876  1.00  0.00     0.122 C 
BRANCH  23  24
HETATM   24  C3  UNL     1      41.309  -4.587  29.603  1.00  0.00     0.019 C 
BRANCH  24  25
HETATM   25  C2  UNL     1      41.589  -4.477  31.100  1.00  0.00    -0.003 C 
HETATM   26  C1  UNL     1      43.084  -4.545  31.309  1.00  0.00     0.005 C 
ENDBRANCH  24  25
ENDBRANCH  23  24
ENDBRANCH  21  23
ENDBRANCH  19  21
ENDBRANCH  17  19
ENDBRANCH  15  17
ENDBRANCH   1  15
TORSDOF 7
ENDMDL
MODEL 4
REMARK VINA RESULT: -5.303472212      1.689      2.496
REMARK  7 active torsions:
REMARK  status: ('A' for Active; 'I' for Inactive)
REMARK    1  A    between atoms: C2_2  and  C3_3 
REMARK    2  A    between atoms: C3_3  and  C4_4 
REMARK    3  A    between atoms: C4_4  and  N1_5 
REMARK    4  A    between atoms: N1_5  and  C5_7 
REMARK    5  A    between atoms: C5_7  and  N2_9 
REMARK    6  A    between atoms: N2_9  and  N3_11 
REMARK    7  A    between atoms: N3_11  and  C6_13 
ROOT
HETATM    1  C6  UNL     1      43.371  -0.766  29.515  1.00  0.00     0.698 A 
HETATM    2  N4  UNL     1      42.039  -0.765  29.338  1.00  0.00    -0.188 N 
ATOM      3  H4  UNL     1      41.580  -0.757  28.427  1.00  0.00     0.184 HD
HETATM    4  C7  UNL     1      41.390  -0.777  30.519  1.00  0.00     0.078 A 
HETATM    5  C8  UNL     1      40.039  -0.781  30.873  1.00  0.00     0.052 A 
HETATM    6  C9  UNL     1      39.675  -0.793  32.203  1.00  0.00     0.019 A 
HETATM    7 BR1  UNL     1      37.831  -0.796  32.740  1.00  0.00    -0.050 Br
HETATM    8  C10 UNL     1      40.630  -0.803  33.197  1.00  0.00    -0.036 A 
HETATM    9  C11 UNL     1      40.234  -0.819  34.650  1.00  0.00     0.050 C 
HETATM   10  C12 UNL     1      41.963  -0.800  32.822  1.00  0.00    -0.025 A 
HETATM   11  C13 UNL     1      43.004  -0.809  33.858  1.00  0.00     0.051 C 
HETATM   12  C14 UNL     1      42.361  -0.787  31.492  1.00  0.00     0.083 A 
HETATM   13  N5  UNL     1      43.547  -0.780  30.860  1.00  0.00    -0.188 N 
ATOM     14  H5  UNL     1      44.454  -0.783  31.327  1.00  0.00     0.184 HD
ENDROOT
BRANCH   1  15
HETATM   15  N3  UNL     1      44.323  -0.755  28.617  1.00  0.00    -0.130 N 
ATOM     16  H3  UNL     1      45.291  -0.974  28.848  1.00  0.00     0.205 HD
BRANCH  15  17
HETATM   17  N2  UNL     1      43.914  -0.416  27.294  1.00  0.00    -0.262 N 
ATOM     18  H2  UNL     1      43.514   0.496  27.074  1.00  0.00     0.190 HD
BRANCH  17  19
HETATM   19  C5  UNL     1      44.091  -1.406  26.307  1.00  0.00     0.186 C 
HETATM   20  S1  UNL     1      43.913  -1.039  24.714  1.00  0.00    -0.040 SA
BRANCH  19  21
HETATM   21  N1  UNL     1      44.426  -2.729  26.649  1.00  0.00    -0.366 N 
ATOM     22  H1  UNL     1      45.374  -2.937  26.962  1.00  0.00     0.161 HD
BRANCH  21  23
HETATM   23  C4  UNL     1      43.470  -3.786  26.569  1.00  0.00     0.122 C 
BRANCH  23  24
HETATM   24  C3  UNL     1      42.720  -3.993  27.847  1.00  0.00     0.019 C 
BRANCH  24  25
HETATM   25  C2  UNL     1      43.695  -4.315  28.977  1.00  0.00    -0.003 C 
HETATM   26  C1  UNL     1      42.925  -4.329  30.278  1.00  0.00     0.005 C 
ENDBRANCH  24  25
ENDBRANCH  23  24
ENDBRANCH  21  23
ENDBRANCH  19  21
ENDBRANCH  17  19
ENDBRANCH  15  17
ENDBRANCH   1  15
TORSDOF 7
ENDMDL
MODEL 5
REMARK VINA RESULT: -5.300571962      4.363      7.338
REMARK  7 active torsions:
REMARK  status: ('A' for Active; 'I' for Inactive)
REMARK    1  A    between atoms: C2_2  and  C3_3 
REMARK    2  A    between atoms: C3_3  and  C4_4 
REMARK    3  A    between atoms: C4_4  and  N1_5 
REMARK    4  A    between atoms: N1_5  and  C5_7 
REMARK    5  A    between atoms: C5_7  and  N2_9 
REMARK    6  A    between atoms: N2_9  and  N3_11 
REMARK    7  A    between atoms: N3_11  and  C6_13 
ROOT
HETATM    1  C6  UNL     1      43.270  -1.034  30.430  1.00  0.00     0.698 A 
HETATM    2  N4  UNL     1      43.505  -0.229  29.382  1.00  0.00    -0.188 N 
ATOM      3  H4  UNL     1      43.599   0.786  29.444  1.00  0.00     0.184 HD
HETATM    4  C7  UNL     1      43.602  -0.933  28.237  1.00  0.00     0.078 A 
HETATM    5  C8  UNL     1      43.832  -0.578  26.906  1.00  0.00     0.052 A 
HETATM    6  C9  UNL     1      43.876  -1.551  25.930  1.00  0.00     0.019 A 
HETATM    7 BR1  UNL     1      44.186  -1.113  24.086  1.00  0.00    -0.050 Br
HETATM    8  C10 UNL     1      43.695  -2.881  26.248  1.00  0.00    -0.036 A 
HETATM    9  C11 UNL     1      43.746  -3.945  25.185  1.00  0.00     0.050 C 
HETATM   10  C12 UNL     1      43.469  -3.209  27.575  1.00  0.00    -0.025 A 
HETATM   11  C13 UNL     1      43.273  -4.616  27.946  1.00  0.00     0.051 C 
HETATM   12  C14 UNL     1      43.419  -2.252  28.579  1.00  0.00     0.083 A 
HETATM   13  N5  UNL     1      43.221  -2.286  29.908  1.00  0.00    -0.188 N 
ATOM     14  H5  UNL     1      43.055  -3.134  30.449  1.00  0.00     0.184 HD
ENDROOT
BRANCH   1  15
HETATM   15  N3  UNL     1      43.115  -0.723  31.692  1.00  0.00    -0.130 N 
ATOM     16  H3  UNL     1      42.202  -0.729  32.145  1.00  0.00     0.205 HD
BRANCH  15  17
HETATM   17  N2  UNL     1      44.309  -0.375  32.389  1.00  0.00    -0.262 N 
ATOM     18  H2  UNL     1      45.232  -0.558  31.995  1.00  0.00     0.190 HD
BRANCH  17  19
HETATM   19  C5  UNL     1      44.147   0.234  33.650  1.00  0.00     0.186 C 
HETATM   20  S1  UNL     1      42.693   0.194  34.416  1.00  0.00    -0.040 SA
BRANCH  19  21
HETATM   21  N1  UNL     1      45.216   0.886  34.290  1.00  0.00    -0.366 N 
ATOM     22  H1  UNL     1      45.527   1.793  33.940  1.00  0.00     0.161 HD
BRANCH  21  23
HETATM   23  C4  UNL     1      45.877   0.309  35.416  1.00  0.00     0.122 C 
BRANCH  23  24
HETATM   24  C3  UNL     1      45.913   1.221  36.602  1.00  0.00     0.019 C 
BRANCH  24  25
HETATM   25  C2  UNL     1      45.193   2.527  36.277  1.00  0.00    -0.003 C 
HETATM   26  C1  UNL     1      44.810   3.193  37.578  1.00  0.00     0.005 C 
ENDBRANCH  24  25
ENDBRANCH  23  24
ENDBRANCH  21  23
ENDBRANCH  19  21
ENDBRANCH  17  19
ENDBRANCH  15  17
ENDBRANCH   1  15
TORSDOF 7
ENDMDL
