MODEL 1
REMARK VINA RESULT: -6.741268784      0.000      0.000
REMARK  8 active torsions:
REMARK  status: ('A' for Active; 'I' for Inactive)
REMARK    1  A    between atoms: C2_2  and  C4_4 
REMARK    2  A    between atoms: C4_4  and  N1_6 
REMARK    3  A    between atoms: N1_6  and  N2_8 
REMARK       I    between atoms: N2_8  and  C5_10 
REMARK    4  A    between atoms: C5_10  and  C6_12 
REMARK    5  A    between atoms: C6_12  and  N3_13 
REMARK    6  A    between atoms: N3_13  and  C7_15 
REMARK    7  A    between atoms: C7_15  and  N4_17 
REMARK    8  A    between atoms: N4_17  and  C8_19 
ROOT
HETATM    1  N3  UNL     1      43.623  -0.991  31.843  1.00  0.00    -0.358 N 
ATOM      2  H3  UNL     1      44.543  -1.381  31.635  1.00  0.00     0.162 HD
ENDROOT
BRANCH   1   3
HETATM    3  C6  UNL     1      43.298  -0.635  33.193  1.00  0.00     0.226 C 
BRANCH   3   4
HETATM    4  C5  UNL     1      44.050   0.509  33.732  1.00  0.00     0.253 C 
HETATM    5  N2  UNL     1      44.950   0.313  34.794  1.00  0.00    -0.268 N 
ATOM      6  H2  UNL     1      45.085  -0.614  35.198  1.00  0.00     0.190 HD
HETATM    7  O1  UNL     1      43.883   1.638  33.247  1.00  0.00    -0.270 OA
BRANCH   5   8
HETATM    8  N1  UNL     1      45.654   1.415  35.284  1.00  0.00    -0.291 N 
ATOM      9  H1  UNL     1      46.277   1.906  34.642  1.00  0.00     0.187 HD
BRANCH   8  10
HETATM   10  C4  UNL     1      45.563   1.894  36.604  1.00  0.00     0.095 C 
HETATM   11  S1  UNL     1      46.114   0.987  37.844  1.00  0.00    -0.064 SA
BRANCH  10  12
HETATM   12  C2  UNL     1      44.972   3.212  36.883  1.00  0.00     0.040 C 
HETATM   13  C1  UNL     1      43.559   3.294  36.275  1.00  0.00     0.017 C 
HETATM   14  C3  UNL     1      44.886   3.492  38.381  1.00  0.00     0.017 C 
ENDBRANCH  10  12
ENDBRANCH   8  10
ENDBRANCH   5   8
ENDBRANCH   3   4
ENDBRANCH   1   3
BRANCH   1  15
HETATM   15  C7  UNL     1      42.673  -0.807  30.769  1.00  0.00     0.172 C 
HETATM   16  S2  UNL     1      41.101  -0.986  31.103  1.00  0.00    -0.041 SA
BRANCH  15  17
HETATM   17  N4  UNL     1      43.129  -0.459  29.508  1.00  0.00    -0.333 N 
ATOM     18  H4  UNL     1      43.331   0.526  29.334  1.00  0.00     0.168 HD
BRANCH  17  19
HETATM   19  C8  UNL     1      43.334  -1.365  28.447  1.00  0.00     0.034 A 
HETATM   20  C9  UNL     1      43.028  -2.694  28.515  1.00  0.00     0.031 A 
HETATM   21  C10 UNL     1      43.234  -3.501  27.409  1.00  0.00     0.021 A 
HETATM   22  C11 UNL     1      43.741  -3.018  26.225  1.00  0.00     0.011 A 
HETATM   23 BR1  UNL     1      44.020  -4.146  24.709  1.00  0.00    -0.051 Br
HETATM   24  C12 UNL     1      44.046  -1.664  26.179  1.00  0.00     0.021 A 
HETATM   25  C13 UNL     1      43.853  -0.847  27.250  1.00  0.00     0.031 A 
ENDBRANCH  17  19
ENDBRANCH  15  17
ENDBRANCH   1  15
TORSDOF 8
ENDMDL
MODEL 2
REMARK VINA RESULT: -6.662353978      1.451      2.018
REMARK  8 active torsions:
REMARK  status: ('A' for Active; 'I' for Inactive)
REMARK    1  A    between atoms: C2_2  and  C4_4 
REMARK    2  A    between atoms: C4_4  and  N1_6 
REMARK    3  A    between atoms: N1_6  and  N2_8 
REMARK       I    between atoms: N2_8  and  C5_10 
REMARK    4  A    between atoms: C5_10  and  C6_12 
REMARK    5  A    between atoms: C6_12  and  N3_13 
REMARK    6  A    between atoms: N3_13  and  C7_15 
REMARK    7  A    between atoms: C7_15  and  N4_17 
REMARK    8  A    between atoms: N4_17  and  C8_19 
ROOT
HETATM    1  N3  UNL     1      43.633  -0.793  32.091  1.00  0.00    -0.358 N 
ATOM      2  H3  UNL     1      44.433  -1.422  32.018  1.00  0.00     0.162 HD
ENDROOT
BRANCH   1   3
HETATM    3  C6  UNL     1      43.472   0.008  33.269  1.00  0.00     0.226 C 
BRANCH   3   4
HETATM    4  C5  UNL     1      44.729   0.463  33.887  1.00  0.00     0.253 C 
HETATM    5  N2  UNL     1      44.729   0.901  35.223  1.00  0.00    -0.268 N 
ATOM      6  H2  UNL     1      43.866   0.910  35.768  1.00  0.00     0.190 HD
HETATM    7  O1  UNL     1      45.776   0.459  33.224  1.00  0.00    -0.270 OA
BRANCH   5   8
HETATM    8  N1  UNL     1      45.935   1.323  35.786  1.00  0.00    -0.291 N 
ATOM      9  H1  UNL     1      46.504   1.982  35.254  1.00  0.00     0.187 HD
BRANCH   8  10
HETATM   10  C4  UNL     1      46.419   0.899  37.038  1.00  0.00     0.095 C 
HETATM   11  S1  UNL     1      45.790   1.518  38.410  1.00  0.00    -0.064 SA
BRANCH  10  12
HETATM   12  C2  UNL     1      47.493  -0.102  37.125  1.00  0.00     0.040 C 
HETATM   13  C1  UNL     1      48.111  -0.333  35.734  1.00  0.00     0.017 C 
HETATM   14  C3  UNL     1      48.593   0.325  38.094  1.00  0.00     0.017 C 
ENDBRANCH  10  12
ENDBRANCH   8  10
ENDBRANCH   5   8
ENDBRANCH   3   4
ENDBRANCH   1   3
BRANCH   1  15
HETATM   15  C7  UNL     1      42.682  -0.727  31.004  1.00  0.00     0.172 C 
HETATM   16  S2  UNL     1      41.128  -1.030  31.331  1.00  0.00    -0.041 SA
BRANCH  15  17
HETATM   17  N4  UNL     1      43.121  -0.382  29.735  1.00  0.00    -0.333 N 
ATOM     18  H4  UNL     1      43.315   0.604  29.555  1.00  0.00     0.168 HD
BRANCH  17  19
HETATM   19  C8  UNL     1      43.318  -1.292  28.676  1.00  0.00     0.034 A 
HETATM   20  C9  UNL     1      42.974  -2.612  28.736  1.00  0.00     0.031 A 
HETATM   21  C10 UNL     1      43.176  -3.422  27.632  1.00  0.00     0.021 A 
HETATM   22  C11 UNL     1      43.716  -2.952  26.458  1.00  0.00     0.011 A 
HETATM   23 BR1  UNL     1      43.988  -4.085  24.945  1.00  0.00    -0.051 Br
HETATM   24  C12 UNL     1      44.059  -1.607  26.420  1.00  0.00     0.021 A 
HETATM   25  C13 UNL     1      43.872  -0.787  27.490  1.00  0.00     0.031 A 
ENDBRANCH  17  19
ENDBRANCH  15  17
ENDBRANCH   1  15
TORSDOF 8
ENDMDL
MODEL 3
REMARK VINA RESULT: -6.619714957      0.995      1.433
REMARK  8 active torsions:
REMARK  status: ('A' for Active; 'I' for Inactive)
REMARK    1  A    between atoms: C2_2  and  C4_4 
REMARK    2  A    between atoms: C4_4  and  N1_6 
REMARK    3  A    between atoms: N1_6  and  N2_8 
REMARK       I    between atoms: N2_8  and  C5_10 
REMARK    4  A    between atoms: C5_10  and  C6_12 
REMARK    5  A    between atoms: C6_12  and  N3_13 
REMARK    6  A    between atoms: N3_13  and  C7_15 
REMARK    7  A    between atoms: C7_15  and  N4_17 
REMARK    8  A    between atoms: N4_17  and  C8_19 
ROOT
HETATM    1  N3  UNL     1      43.667  -0.949  31.819  1.00  0.00    -0.358 N 
ATOM      2  H3  UNL     1      44.599  -1.305  31.604  1.00  0.00     0.162 HD
ENDROOT
BRANCH   1   3
HETATM    3  C6  UNL     1      43.330  -0.641  33.178  1.00  0.00     0.226 C 
BRANCH   3   4
HETATM    4  C5  UNL     1      44.092   0.470  33.771  1.00  0.00     0.253 C 
HETATM    5  N2  UNL     1      45.008   0.211  34.805  1.00  0.00    -0.268 N 
ATOM      6  H2  UNL     1      45.148  -0.738  35.152  1.00  0.00     0.190 HD
HETATM    7  O1  UNL     1      43.918   1.625  33.356  1.00  0.00    -0.270 OA
BRANCH   5   8
HETATM    8  N1  UNL     1      45.722   1.283  35.348  1.00  0.00    -0.291 N 
ATOM      9  H1  UNL     1      46.427   1.730  34.762  1.00  0.00     0.187 HD
BRANCH   8  10
HETATM   10  C4  UNL     1      45.534   1.786  36.648  1.00  0.00     0.095 C 
HETATM   11  S1  UNL     1      44.738   3.193  36.874  1.00  0.00    -0.064 SA
BRANCH  10  12
HETATM   12  C2  UNL     1      46.049   1.055  37.815  1.00  0.00     0.040 C 
HETATM   13  C1  UNL     1      47.499   0.605  37.556  1.00  0.00     0.017 C 
HETATM   14  C3  UNL     1      46.010   1.904  39.083  1.00  0.00     0.017 C 
ENDBRANCH  10  12
ENDBRANCH   8  10
ENDBRANCH   5   8
ENDBRANCH   3   4
ENDBRANCH   1   3
BRANCH   1  15
HETATM   15  C7  UNL     1      42.714  -0.764  30.749  1.00  0.00     0.172 C 
HETATM   16  S2  UNL     1      41.142  -0.928  31.091  1.00  0.00    -0.041 SA
BRANCH  15  17
HETATM   17  N4  UNL     1      43.167  -0.428  29.483  1.00  0.00    -0.333 N 
ATOM     18  H4  UNL     1      43.376   0.555  29.302  1.00  0.00     0.168 HD
BRANCH  17  19
HETATM   19  C8  UNL     1      43.361  -1.342  28.427  1.00  0.00     0.034 A 
HETATM   20  C9  UNL     1      43.066  -2.673  28.514  1.00  0.00     0.031 A 
HETATM   21  C10 UNL     1      43.259  -3.489  27.411  1.00  0.00     0.021 A 
HETATM   22  C11 UNL     1      43.742  -3.014  26.215  1.00  0.00     0.011 A 
HETATM   23 BR1  UNL     1      44.003  -4.154  24.705  1.00  0.00    -0.051 Br
HETATM   24  C12 UNL     1      44.036  -1.658  26.151  1.00  0.00     0.021 A 
HETATM   25  C13 UNL     1      43.856  -0.832  27.218  1.00  0.00     0.031 A 
ENDBRANCH  17  19
ENDBRANCH  15  17
ENDBRANCH   1  15
TORSDOF 8
ENDMDL
MODEL 4
REMARK VINA RESULT: -6.569654145      1.536      1.920
REMARK  8 active torsions:
REMARK  status: ('A' for Active; 'I' for Inactive)
REMARK    1  A    between atoms: C2_2  and  C4_4 
REMARK    2  A    between atoms: C4_4  and  N1_6 
REMARK    3  A    between atoms: N1_6  and  N2_8 
REMARK       I    between atoms: N2_8  and  C5_10 
REMARK    4  A    between atoms: C5_10  and  C6_12 
REMARK    5  A    between atoms: C6_12  and  N3_13 
REMARK    6  A    between atoms: N3_13  and  C7_15 
REMARK    7  A    between atoms: C7_15  and  N4_17 
REMARK    8  A    between atoms: N4_17  and  C8_19 
ROOT
HETATM    1  N3  UNL     1      43.672  -0.863  32.102  1.00  0.00    -0.358 N 
ATOM      2  H3  UNL     1      44.493  -1.453  31.964  1.00  0.00     0.162 HD
ENDROOT
BRANCH   1   3
HETATM    3  C6  UNL     1      43.515  -0.155  33.338  1.00  0.00     0.226 C 
BRANCH   3   4
HETATM    4  C5  UNL     1      44.763   0.360  33.923  1.00  0.00     0.253 C 
HETATM    5  N2  UNL     1      44.807   0.693  35.289  1.00  0.00    -0.268 N 
ATOM      6  H2  UNL     1      43.982   0.585  35.878  1.00  0.00     0.190 HD
HETATM    7  O1  UNL     1      45.766   0.498  33.207  1.00  0.00    -0.270 OA
BRANCH   5   8
HETATM    8  N1  UNL     1      46.006   1.175  35.819  1.00  0.00    -0.291 N 
ATOM      9  H1  UNL     1      46.242   2.154  35.652  1.00  0.00     0.187 HD
BRANCH   8  10
HETATM   10  C4  UNL     1      46.912   0.401  36.568  1.00  0.00     0.095 C 
HETATM   11  S1  UNL     1      48.136  -0.379  35.821  1.00  0.00    -0.064 SA
BRANCH  10  12
HETATM   12  C2  UNL     1      46.769   0.284  38.027  1.00  0.00     0.040 C 
HETATM   13  C1  UNL     1      48.147   0.054  38.674  1.00  0.00     0.017 C 
HETATM   14  C3  UNL     1      46.133   1.530  38.638  1.00  0.00     0.017 C 
ENDBRANCH  10  12
ENDBRANCH   8  10
ENDBRANCH   5   8
ENDBRANCH   3   4
ENDBRANCH   1   3
BRANCH   1  15
HETATM   15  C7  UNL     1      42.690  -0.757  31.046  1.00  0.00     0.172 C 
HETATM   16  S2  UNL     1      41.142  -1.042  31.415  1.00  0.00    -0.041 SA
BRANCH  15  17
HETATM   17  N4  UNL     1      43.096  -0.390  29.773  1.00  0.00    -0.333 N 
ATOM     18  H4  UNL     1      43.257   0.602  29.596  1.00  0.00     0.168 HD
BRANCH  17  19
HETATM   19  C8  UNL     1      43.302  -1.286  28.704  1.00  0.00     0.034 A 
HETATM   20  C9  UNL     1      42.964  -2.608  28.748  1.00  0.00     0.031 A 
HETATM   21  C10 UNL     1      43.174  -3.405  27.634  1.00  0.00     0.021 A 
HETATM   22  C11 UNL     1      43.716  -2.919  26.468  1.00  0.00     0.011 A 
HETATM   23 BR1  UNL     1      43.999  -4.033  24.943  1.00  0.00    -0.051 Br
HETATM   24  C12 UNL     1      44.053  -1.571  26.447  1.00  0.00     0.021 A 
HETATM   25  C13 UNL     1      43.857  -0.765  27.526  1.00  0.00     0.031 A 
ENDBRANCH  17  19
ENDBRANCH  15  17
ENDBRANCH   1  15
TORSDOF 8
ENDMDL
MODEL 5
REMARK VINA RESULT: -6.504136093      1.225      1.512
REMARK  8 active torsions:
REMARK  status: ('A' for Active; 'I' for Inactive)
REMARK    1  A    between atoms: C2_2  and  C4_4 
REMARK    2  A    between atoms: C4_4  and  N1_6 
REMARK    3  A    between atoms: N1_6  and  N2_8 
REMARK       I    between atoms: N2_8  and  C5_10 
REMARK    4  A    between atoms: C5_10  and  C6_12 
REMARK    5  A    between atoms: C6_12  and  N3_13 
REMARK    6  A    between atoms: N3_13  and  C7_15 
REMARK    7  A    between atoms: C7_15  and  N4_17 
REMARK    8  A    between atoms: N4_17  and  C8_19 
ROOT
HETATM    1  N3  UNL     1      43.523  -1.227  31.787  1.00  0.00    -0.358 N 
ATOM      2  H3  UNL     1      44.389  -1.718  31.563  1.00  0.00     0.162 HD
ENDROOT
BRANCH   1   3
HETATM    3  C6  UNL     1      43.222  -0.919  33.154  1.00  0.00     0.226 C 
BRANCH   3   4
HETATM    4  C5  UNL     1      43.821   0.328  33.657  1.00  0.00     0.253 C 
HETATM    5  N2  UNL     1      43.045   1.215  34.423  1.00  0.00    -0.268 N 
ATOM      6  H2  UNL     1      42.068   1.005  34.631  1.00  0.00     0.190 HD
HETATM    7  O1  UNL     1      45.006   0.587  33.399  1.00  0.00    -0.270 OA
BRANCH   5   8
HETATM    8  N1  UNL     1      43.640   2.388  34.891  1.00  0.00    -0.291 N 
ATOM      9  H1  UNL     1      44.037   3.028  34.203  1.00  0.00     0.187 HD
BRANCH   8  10
HETATM   10  C4  UNL     1      43.730   2.746  36.249  1.00  0.00     0.095 C 
HETATM   11  S1  UNL     1      42.374   2.965  37.130  1.00  0.00    -0.064 SA
BRANCH  10  12
HETATM   12  C2  UNL     1      45.042   2.927  36.890  1.00  0.00     0.040 C 
HETATM   13  C1  UNL     1      44.855   3.318  38.368  1.00  0.00     0.017 C 
HETATM   14  C3  UNL     1      45.893   1.662  36.813  1.00  0.00     0.017 C 
ENDBRANCH  10  12
ENDBRANCH   8  10
ENDBRANCH   5   8
ENDBRANCH   3   4
ENDBRANCH   1   3
BRANCH   1  15
HETATM   15  C7  UNL     1      42.623  -0.856  30.718  1.00  0.00     0.172 C 
HETATM   16  S2  UNL     1      41.036  -0.836  31.030  1.00  0.00    -0.041 SA
BRANCH  15  17
HETATM   17  N4  UNL     1      43.141  -0.504  29.482  1.00  0.00    -0.333 N 
ATOM     18  H4  UNL     1      43.399   0.473  29.339  1.00  0.00     0.168 HD
BRANCH  17  19
HETATM   19  C8  UNL     1      43.338  -1.396  28.408  1.00  0.00     0.034 A 
HETATM   20  C9  UNL     1      43.027  -2.724  28.459  1.00  0.00     0.031 A 
HETATM   21  C10 UNL     1      43.225  -3.517  27.341  1.00  0.00     0.021 A 
HETATM   22  C11 UNL     1      43.728  -3.020  26.162  1.00  0.00     0.011 A 
HETATM   23 BR1  UNL     1      43.995  -4.127  24.629  1.00  0.00    -0.051 Br
HETATM   24  C12 UNL     1      44.037  -1.666  26.133  1.00  0.00     0.021 A 
HETATM   25  C13 UNL     1      43.853  -0.863  27.216  1.00  0.00     0.031 A 
ENDBRANCH  17  19
ENDBRANCH  15  17
ENDBRANCH   1  15
TORSDOF 8
ENDMDL
