MODEL 1
REMARK VINA RESULT: -7.273098233      0.000      0.000
REMARK  8 active torsions:
REMARK  status: ('A' for Active; 'I' for Inactive)
REMARK    1  A    between atoms: N1_1  and  C1_4 
REMARK    2  A    between atoms: N4_9  and  N5_10 
REMARK       I    between atoms: N5_10  and  C3_12 
REMARK       I    between atoms: C3_12  and  N7_21 
REMARK    3  A    between atoms: N6_13  and  C4_15 
REMARK    4  A    between atoms: C4_15  and  C5_16 
REMARK    5  A    between atoms: C5_16  and  O1_17 
REMARK    6  A    between atoms: O1_17  and  C6_18 
REMARK    7  A    between atoms: C6_18  and  C7_19 
REMARK    8  A    between atoms: N7_21  and  C8_23 
ROOT
HETATM    1  N5  UNL     1      43.039  -2.988  29.088  1.00  0.00    -0.108 N 
ATOM      2  H5  UNL     1      43.629  -2.707  29.870  1.00  0.00     0.208 HD
HETATM    3  C3  UNL     1      41.741  -3.448  29.354  1.00  0.00     0.691 C 
HETATM    4  N6  UNL     1      40.826  -2.573  29.643  1.00  0.00    -0.223 N 
ATOM      5  H6  UNL     1      39.882  -2.909  29.836  1.00  0.00     0.177 HD
HETATM    6  N7  UNL     1      41.345  -4.816  29.331  1.00  0.00    -0.216 N 
ATOM      7  H7  UNL     1      40.698  -5.116  28.602  1.00  0.00     0.178 HD
ENDROOT
BRANCH   1   8
HETATM    8  N4  UNL     1      43.559  -2.899  27.780  1.00  0.00    -0.136 N 
HETATM    9  C2  UNL     1      44.191  -1.862  27.256  1.00  0.00     0.245 A 
HETATM   10  N2  UNL     1      44.542  -2.134  25.991  1.00  0.00    -0.159 N 
HETATM   11  N3  UNL     1      44.460  -0.621  27.942  1.00  0.00    -0.060 NA
HETATM   12  C1  UNL     1      44.111  -3.380  25.737  1.00  0.00     0.694 A 
ATOM     13  H2  UNL     1      45.039  -1.516  25.348  1.00  0.00     0.187 HD
HETATM   14  N8  UNL     1      43.509  -3.827  26.857  1.00  0.00    -0.108 N 
ATOM     15  H8  UNL     1      43.080  -4.745  26.968  1.00  0.00     0.208 HD
BRANCH  12  16
HETATM   16  N1  UNL     1      44.259  -4.016  24.609  1.00  0.00    -0.233 N 
ATOM     17  H12 UNL     1      44.386  -3.612  23.681  1.00  0.00     0.174 HD
ATOM     18  H11 UNL     1      44.270  -5.030  24.498  1.00  0.00     0.174 HD
ENDBRANCH  12  16
ENDBRANCH   1   8
BRANCH   4  19
HETATM   19  C4  UNL     1      41.066  -1.166  29.706  1.00  0.00     0.164 C 
BRANCH  19  20
HETATM   20  C5  UNL     1      41.443  -0.709  31.127  1.00  0.00     0.187 C 
BRANCH  20  21
HETATM   21  O1  UNL     1      42.738  -0.365  31.220  1.00  0.00    -0.389 OA
BRANCH  21  22
HETATM   22  C6  UNL     1      43.500  -0.675  32.282  1.00  0.00     0.178 C 
BRANCH  22  23
HETATM   23  C7  UNL     1      43.640   0.278  33.411  1.00  0.00     0.111 C 
HETATM   24 BR1  UNL     1      45.384   0.983  33.713  1.00  0.00    -0.094 Br
ENDBRANCH  22  23
ENDBRANCH  21  22
ENDBRANCH  20  21
ENDBRANCH  19  20
ENDBRANCH   4  19
BRANCH   6  25
HETATM   25  C8  UNL     1      41.798  -5.793  30.270  1.00  0.00     0.048 C 
HETATM   26  C9  UNL     1      42.016  -5.115  31.625  1.00  0.00     0.036 C 
HETATM   27  C10 UNL     1      42.663  -6.083  32.607  1.00  0.00    -0.012 C 
HETATM   28  C11 UNL     1      43.939  -6.648  32.068  1.00  0.00     0.009 C 
HETATM   29  C15 UNL     1      41.634  -7.178  32.858  1.00  0.00     0.009 C 
HETATM   30  C12 UNL     1      43.614  -7.415  30.807  1.00  0.00    -0.012 C 
HETATM   31  C13 UNL     1      42.607  -8.510  31.070  1.00  0.00     0.009 C 
HETATM   32  C17 UNL     1      43.070  -6.419  29.807  1.00  0.00     0.036 C 
HETATM   33  C14 UNL     1      41.332  -7.842  31.533  1.00  0.00    -0.012 C 
HETATM   34  C16 UNL     1      40.790  -6.895  30.508  1.00  0.00     0.036 C 
ENDBRANCH   6  25
TORSDOF 8
ENDMDL
MODEL 2
REMARK VINA RESULT: -7.250555394      0.123      1.418
REMARK  8 active torsions:
REMARK  status: ('A' for Active; 'I' for Inactive)
REMARK    1  A    between atoms: N1_1  and  C1_4 
REMARK    2  A    between atoms: N4_9  and  N5_10 
REMARK       I    between atoms: N5_10  and  C3_12 
REMARK       I    between atoms: C3_12  and  N7_21 
REMARK    3  A    between atoms: N6_13  and  C4_15 
REMARK    4  A    between atoms: C4_15  and  C5_16 
REMARK    5  A    between atoms: C5_16  and  O1_17 
REMARK    6  A    between atoms: O1_17  and  C6_18 
REMARK    7  A    between atoms: C6_18  and  C7_19 
REMARK    8  A    between atoms: N7_21  and  C8_23 
ROOT
HETATM    1  N5  UNL     1      43.027  -2.984  29.072  1.00  0.00    -0.108 N 
ATOM      2  H5  UNL     1      43.613  -2.676  29.848  1.00  0.00     0.208 HD
HETATM    3  C3  UNL     1      41.740  -3.466  29.350  1.00  0.00     0.691 C 
HETATM    4  N6  UNL     1      40.806  -2.604  29.625  1.00  0.00    -0.223 N 
ATOM      5  H6  UNL     1      39.870  -2.956  29.826  1.00  0.00     0.177 HD
HETATM    6  N7  UNL     1      41.371  -4.842  29.353  1.00  0.00    -0.216 N 
ATOM      7  H7  UNL     1      40.731  -5.168  28.630  1.00  0.00     0.178 HD
ENDROOT
BRANCH   1   8
HETATM    8  N4  UNL     1      43.543  -2.908  27.762  1.00  0.00    -0.136 N 
HETATM    9  C2  UNL     1      44.160  -1.871  27.221  1.00  0.00     0.245 A 
HETATM   10  N2  UNL     1      44.512  -2.157  25.960  1.00  0.00    -0.159 N 
HETATM   11  N3  UNL     1      44.415  -0.616  27.888  1.00  0.00    -0.060 NA
HETATM   12  C1  UNL     1      44.097  -3.412  25.726  1.00  0.00     0.694 A 
ATOM     13  H2  UNL     1      44.999  -1.543  25.306  1.00  0.00     0.187 HD
HETATM   14  N8  UNL     1      43.502  -3.849  26.853  1.00  0.00    -0.108 N 
ATOM     15  H8  UNL     1      43.085  -4.771  26.979  1.00  0.00     0.208 HD
BRANCH  12  16
HETATM   16  N1  UNL     1      44.250  -4.064  24.607  1.00  0.00    -0.233 N 
ATOM     17  H12 UNL     1      44.870  -3.828  23.832  1.00  0.00     0.174 HD
ATOM     18  H11 UNL     1      43.758  -4.919  24.348  1.00  0.00     0.174 HD
ENDBRANCH  12  16
ENDBRANCH   1   8
BRANCH   4  19
HETATM   19  C4  UNL     1      41.018  -1.192  29.662  1.00  0.00     0.164 C 
BRANCH  19  20
HETATM   20  C5  UNL     1      41.427  -0.707  31.064  1.00  0.00     0.187 C 
BRANCH  20  21
HETATM   21  O1  UNL     1      42.734  -0.405  31.132  1.00  0.00    -0.389 OA
BRANCH  21  22
HETATM   22  C6  UNL     1      43.517  -0.784  32.156  1.00  0.00     0.178 C 
BRANCH  22  23
HETATM   23  C7  UNL     1      43.625   0.059  33.372  1.00  0.00     0.111 C 
HETATM   24 BR1  UNL     1      45.268   0.992  33.614  1.00  0.00    -0.094 Br
ENDBRANCH  22  23
ENDBRANCH  21  22
ENDBRANCH  20  21
ENDBRANCH  19  20
ENDBRANCH   4  19
BRANCH   6  25
HETATM   25  C8  UNL     1      41.846  -5.791  30.308  1.00  0.00     0.048 C 
HETATM   26  C9  UNL     1      40.800  -6.897  30.472  1.00  0.00     0.036 C 
HETATM   27  C10 UNL     1      41.189  -7.836  31.606  1.00  0.00    -0.012 C 
HETATM   28  C11 UNL     1      41.405  -7.096  32.888  1.00  0.00     0.009 C 
HETATM   29  C15 UNL     1      42.460  -8.541  31.150  1.00  0.00     0.009 C 
HETATM   30  C12 UNL     1      42.543  -6.124  32.680  1.00  0.00    -0.012 C 
HETATM   31  C13 UNL     1      43.805  -6.834  32.246  1.00  0.00     0.009 C 
HETATM   32  C17 UNL     1      42.099  -5.136  31.624  1.00  0.00     0.036 C 
HETATM   33  C14 UNL     1      43.515  -7.484  30.911  1.00  0.00    -0.012 C 
HETATM   34  C16 UNL     1      43.120  -6.480  29.873  1.00  0.00     0.036 C 
ENDBRANCH   6  25
TORSDOF 8
ENDMDL
MODEL 3
REMARK VINA RESULT: -7.232843717      0.323      1.494
REMARK  8 active torsions:
REMARK  status: ('A' for Active; 'I' for Inactive)
REMARK    1  A    between atoms: N1_1  and  C1_4 
REMARK    2  A    between atoms: N4_9  and  N5_10 
REMARK       I    between atoms: N5_10  and  C3_12 
REMARK       I    between atoms: C3_12  and  N7_21 
REMARK    3  A    between atoms: N6_13  and  C4_15 
REMARK    4  A    between atoms: C4_15  and  C5_16 
REMARK    5  A    between atoms: C5_16  and  O1_17 
REMARK    6  A    between atoms: O1_17  and  C6_18 
REMARK    7  A    between atoms: C6_18  and  C7_19 
REMARK    8  A    between atoms: N7_21  and  C8_23 
ROOT
HETATM    1  N5  UNL     1      42.908  -3.115  29.238  1.00  0.00    -0.108 N 
ATOM      2  H5  UNL     1      43.506  -2.780  29.994  1.00  0.00     0.208 HD
HETATM    3  C3  UNL     1      41.619  -3.570  29.549  1.00  0.00     0.691 C 
HETATM    4  N6  UNL     1      40.698  -2.687  29.796  1.00  0.00    -0.223 N 
ATOM      5  H6  UNL     1      39.761  -3.020  30.021  1.00  0.00     0.177 HD
HETATM    6  N7  UNL     1      41.236  -4.940  29.614  1.00  0.00    -0.216 N 
ATOM      7  H7  UNL     1      40.584  -5.290  28.913  1.00  0.00     0.178 HD
ENDROOT
BRANCH   1   8
HETATM    8  N4  UNL     1      43.411  -3.101  27.920  1.00  0.00    -0.136 N 
HETATM    9  C2  UNL     1      43.996  -2.080  27.314  1.00  0.00     0.245 A 
HETATM   10  N2  UNL     1      44.345  -2.429  26.068  1.00  0.00    -0.159 N 
HETATM   11  N3  UNL     1      44.223  -0.784  27.906  1.00  0.00    -0.060 NA
HETATM   12  C1  UNL     1      43.961  -3.706  25.910  1.00  0.00     0.694 A 
ATOM     13  H2  UNL     1      44.810  -1.841  25.376  1.00  0.00     0.187 HD
HETATM   14  N8  UNL     1      43.388  -4.093  27.067  1.00  0.00    -0.108 N 
ATOM     15  H8  UNL     1      42.996  -5.017  27.249  1.00  0.00     0.208 HD
BRANCH  12  16
HETATM   16  N1  UNL     1      44.122  -4.416  24.829  1.00  0.00    -0.233 N 
ATOM     17  H12 UNL     1      44.820  -4.282  24.097  1.00  0.00     0.174 HD
ATOM     18  H11 UNL     1      43.559  -5.223  24.562  1.00  0.00     0.174 HD
ENDBRANCH  12  16
ENDBRANCH   1   8
BRANCH   4  19
HETATM   19  C4  UNL     1      40.925  -1.277  29.770  1.00  0.00     0.164 C 
BRANCH  19  20
HETATM   20  C5  UNL     1      41.364  -0.739  31.143  1.00  0.00     0.187 C 
BRANCH  20  21
HETATM   21  O1  UNL     1      42.669  -0.422  31.168  1.00  0.00    -0.389 OA
BRANCH  21  22
HETATM   22  C6  UNL     1      43.487  -0.776  32.174  1.00  0.00     0.178 C 
BRANCH  22  23
HETATM   23  C7  UNL     1      43.573   0.055  33.400  1.00  0.00     0.111 C 
HETATM   24 BR1  UNL     1      45.175   1.059  33.632  1.00  0.00    -0.094 Br
ENDBRANCH  22  23
ENDBRANCH  21  22
ENDBRANCH  20  21
ENDBRANCH  19  20
ENDBRANCH   4  19
BRANCH   6  25
HETATM   25  C8  UNL     1      41.711  -5.853  30.604  1.00  0.00     0.048 C 
HETATM   26  C9  UNL     1      42.951  -6.571  30.064  1.00  0.00     0.036 C 
HETATM   27  C10 UNL     1      43.386  -7.676  31.018  1.00  0.00    -0.012 C 
HETATM   28  C11 UNL     1      42.274  -8.640  31.292  1.00  0.00     0.009 C 
HETATM   29  C15 UNL     1      43.841  -6.976  32.291  1.00  0.00     0.009 C 
HETATM   30  C12 UNL     1      41.148  -7.877  31.949  1.00  0.00    -0.012 C 
HETATM   31  C13 UNL     1      41.605  -7.202  33.222  1.00  0.00     0.009 C 
HETATM   32  C17 UNL     1      40.659  -6.853  30.949  1.00  0.00     0.036 C 
HETATM   33  C14 UNL     1      42.666  -6.196  32.837  1.00  0.00    -0.012 C 
HETATM   34  C16 UNL     1      42.146  -5.168  31.880  1.00  0.00     0.036 C 
ENDBRANCH   6  25
TORSDOF 8
ENDMDL
MODEL 4
REMARK VINA RESULT: -6.962652072      2.116      2.278
REMARK  8 active torsions:
REMARK  status: ('A' for Active; 'I' for Inactive)
REMARK    1  A    between atoms: N1_1  and  C1_4 
REMARK    2  A    between atoms: N4_9  and  N5_10 
REMARK       I    between atoms: N5_10  and  C3_12 
REMARK       I    between atoms: C3_12  and  N7_21 
REMARK    3  A    between atoms: N6_13  and  C4_15 
REMARK    4  A    between atoms: C4_15  and  C5_16 
REMARK    5  A    between atoms: C5_16  and  O1_17 
REMARK    6  A    between atoms: O1_17  and  C6_18 
REMARK    7  A    between atoms: C6_18  and  C7_19 
REMARK    8  A    between atoms: N7_21  and  C8_23 
ROOT
HETATM    1  N5  UNL     1      43.119  -2.994  29.087  1.00  0.00    -0.108 N 
ATOM      2  H5  UNL     1      43.745  -2.749  29.854  1.00  0.00     0.208 HD
HETATM    3  C3  UNL     1      41.808  -3.390  29.387  1.00  0.00     0.691 C 
HETATM    4  N6  UNL     1      40.946  -2.472  29.709  1.00  0.00    -0.223 N 
ATOM      5  H6  UNL     1      39.993  -2.761  29.926  1.00  0.00     0.177 HD
HETATM    6  N7  UNL     1      41.341  -4.735  29.365  1.00  0.00    -0.216 N 
ATOM      7  H7  UNL     1      40.661  -4.995  28.652  1.00  0.00     0.178 HD
ENDROOT
BRANCH   1   8
HETATM    8  N4  UNL     1      43.606  -2.919  27.766  1.00  0.00    -0.136 N 
HETATM    9  C2  UNL     1      44.231  -1.891  27.216  1.00  0.00     0.245 A 
HETATM   10  N2  UNL     1      44.549  -2.176  25.946  1.00  0.00    -0.159 N 
HETATM   11  N3  UNL     1      44.526  -0.646  27.885  1.00  0.00    -0.060 NA
HETATM   12  C1  UNL     1      44.103  -3.421  25.714  1.00  0.00     0.694 A 
ATOM     13  H2  UNL     1      45.032  -1.567  25.285  1.00  0.00     0.187 HD
HETATM   14  N8  UNL     1      43.526  -3.854  26.852  1.00  0.00    -0.108 N 
ATOM     15  H8  UNL     1      43.094  -4.768  26.982  1.00  0.00     0.208 HD
BRANCH  12  16
HETATM   16  N1  UNL     1      44.217  -4.068  24.588  1.00  0.00    -0.233 N 
ATOM     17  H12 UNL     1      44.706  -3.765  23.745  1.00  0.00     0.174 HD
ATOM     18  H11 UNL     1      43.825  -4.989  24.392  1.00  0.00     0.174 HD
ENDBRANCH  12  16
ENDBRANCH   1   8
BRANCH   4  19
HETATM   19  C4  UNL     1      41.260  -1.079  29.775  1.00  0.00     0.164 C 
BRANCH  19  20
HETATM   20  C5  UNL     1      40.132  -0.266  30.436  1.00  0.00     0.187 C 
BRANCH  20  21
HETATM   21  O1  UNL     1      40.343  -0.088  31.750  1.00  0.00    -0.389 OA
BRANCH  21  22
HETATM   22  C6  UNL     1      39.346   0.130  32.625  1.00  0.00     0.178 C 
BRANCH  22  23
HETATM   23  C7  UNL     1      38.204   1.005  32.261  1.00  0.00     0.111 C 
HETATM   24 BR1  UNL     1      36.485   0.184  32.230  1.00  0.00    -0.094 Br
ENDBRANCH  22  23
ENDBRANCH  21  22
ENDBRANCH  20  21
ENDBRANCH  19  20
ENDBRANCH   4  19
BRANCH   6  25
HETATM   25  C8  UNL     1      41.770  -5.742  30.283  1.00  0.00     0.048 C 
HETATM   26  C9  UNL     1      41.990  -5.101  31.656  1.00  0.00     0.036 C 
HETATM   27  C10 UNL     1      42.613  -6.103  32.619  1.00  0.00    -0.012 C 
HETATM   28  C11 UNL     1      43.884  -6.678  32.075  1.00  0.00     0.009 C 
HETATM   29  C15 UNL     1      41.563  -7.185  32.836  1.00  0.00     0.009 C 
HETATM   30  C12 UNL     1      43.555  -7.408  30.794  1.00  0.00    -0.012 C 
HETATM   31  C13 UNL     1      42.526  -8.492  31.023  1.00  0.00     0.009 C 
HETATM   32  C17 UNL     1      43.035  -6.380  29.814  1.00  0.00     0.036 C 
HETATM   33  C14 UNL     1      41.260  -7.812  31.493  1.00  0.00    -0.012 C 
HETATM   34  C16 UNL     1      40.742  -6.831  30.488  1.00  0.00     0.036 C 
ENDBRANCH   6  25
TORSDOF 8
ENDMDL
MODEL 5
REMARK VINA RESULT: -6.922931506      1.341      1.372
REMARK  8 active torsions:
REMARK  status: ('A' for Active; 'I' for Inactive)
REMARK    1  A    between atoms: N1_1  and  C1_4 
REMARK    2  A    between atoms: N4_9  and  N5_10 
REMARK       I    between atoms: N5_10  and  C3_12 
REMARK       I    between atoms: C3_12  and  N7_21 
REMARK    3  A    between atoms: N6_13  and  C4_15 
REMARK    4  A    between atoms: C4_15  and  C5_16 
REMARK    5  A    between atoms: C5_16  and  O1_17 
REMARK    6  A    between atoms: O1_17  and  C6_18 
REMARK    7  A    between atoms: C6_18  and  C7_19 
REMARK    8  A    between atoms: N7_21  and  C8_23 
ROOT
HETATM    1  N5  UNL     1      43.120  -3.007  29.080  1.00  0.00    -0.108 N 
ATOM      2  H5  UNL     1      43.739  -2.759  29.852  1.00  0.00     0.208 HD
HETATM    3  C3  UNL     1      41.812  -3.420  29.372  1.00  0.00     0.691 C 
HETATM    4  N6  UNL     1      40.939  -2.514  29.693  1.00  0.00    -0.223 N 
ATOM      5  H6  UNL     1      39.987  -2.816  29.904  1.00  0.00     0.177 HD
HETATM    6  N7  UNL     1      41.362  -4.771  29.342  1.00  0.00    -0.216 N 
ATOM      7  H7  UNL     1      40.688  -5.036  28.624  1.00  0.00     0.178 HD
ENDROOT
BRANCH   1   8
HETATM    8  N4  UNL     1      43.613  -2.922  27.762  1.00  0.00    -0.136 N 
HETATM    9  C2  UNL     1      44.238  -1.887  27.223  1.00  0.00     0.245 A 
HETATM   10  N2  UNL     1      44.562  -2.162  25.952  1.00  0.00    -0.159 N 
HETATM   11  N3  UNL     1      44.527  -0.647  27.903  1.00  0.00    -0.060 NA
HETATM   12  C1  UNL     1      44.120  -3.406  25.708  1.00  0.00     0.694 A 
ATOM     13  H2  UNL     1      45.047  -1.547  25.298  1.00  0.00     0.187 HD
HETATM   14  N8  UNL     1      43.540  -3.849  26.841  1.00  0.00    -0.108 N 
ATOM     15  H8  UNL     1      43.109  -4.766  26.962  1.00  0.00     0.208 HD
BRANCH  12  16
HETATM   16  N1  UNL     1      44.241  -4.044  24.578  1.00  0.00    -0.233 N 
ATOM     17  H12 UNL     1      44.833  -3.794  23.785  1.00  0.00     0.174 HD
ATOM     18  H11 UNL     1      43.751  -4.902  24.327  1.00  0.00     0.174 HD
ENDBRANCH  12  16
ENDBRANCH   1   8
BRANCH   4  19
HETATM   19  C4  UNL     1      41.235  -1.118  29.767  1.00  0.00     0.164 C 
BRANCH  19  20
HETATM   20  C5  UNL     1      40.119  -0.329  30.473  1.00  0.00     0.187 C 
BRANCH  20  21
HETATM   21  O1  UNL     1      40.470   0.041  31.716  1.00  0.00    -0.389 OA
BRANCH  21  22
HETATM   22  C6  UNL     1      39.936  -0.509  32.819  1.00  0.00     0.178 C 
BRANCH  22  23
HETATM   23  C7  UNL     1      40.565  -1.697  33.448  1.00  0.00     0.111 C 
HETATM   24 BR1  UNL     1      42.464  -1.805  33.341  1.00  0.00    -0.094 Br
ENDBRANCH  22  23
ENDBRANCH  21  22
ENDBRANCH  20  21
ENDBRANCH  19  20
ENDBRANCH   4  19
BRANCH   6  25
HETATM   25  C8  UNL     1      41.798  -5.777  30.258  1.00  0.00     0.048 C 
HETATM   26  C9  UNL     1      41.981  -5.144  31.640  1.00  0.00     0.036 C 
HETATM   27  C10 UNL     1      42.611  -6.141  32.604  1.00  0.00    -0.012 C 
HETATM   28  C11 UNL     1      43.902  -6.682  32.076  1.00  0.00     0.009 C 
HETATM   29  C15 UNL     1      41.582  -7.248  32.794  1.00  0.00     0.009 C 
HETATM   30  C12 UNL     1      43.611  -7.408  30.783  1.00  0.00    -0.012 C 
HETATM   31  C13 UNL     1      42.604  -8.516  30.986  1.00  0.00     0.009 C 
HETATM   32  C17 UNL     1      43.084  -6.382  29.804  1.00  0.00     0.036 C 
HETATM   33  C14 UNL     1      41.314  -7.869  31.441  1.00  0.00    -0.012 C 
HETATM   34  C16 UNL     1      40.791  -6.891  30.436  1.00  0.00     0.036 C 
ENDBRANCH   6  25
TORSDOF 8
ENDMDL
