MODEL 1
REMARK VINA RESULT: -8.631817115      0.000      0.000
REMARK  9 active torsions:
REMARK  status: ('A' for Active; 'I' for Inactive)
REMARK    1  A    between atoms: C2_2  and  O1_4 
REMARK    2  A    between atoms: C2_2  and  C4_6 
REMARK    3  A    between atoms: C7_9  and  N1_10 
REMARK       I    between atoms: N1_10  and  C8_12 
REMARK    4  A    between atoms: C8_12  and  C9_14 
REMARK    5  A    between atoms: C9_14  and  C10_15 
REMARK    6  A    between atoms: C9_14  and  N2_22 
REMARK    7  A    between atoms: C10_15  and  C11_16 
REMARK       I    between atoms: N2_22  and  C17_24 
REMARK       I    between atoms: C17_24  and  N3_26 
REMARK    8  A    between atoms: N3_26  and  C18_28 
REMARK    9  A    between atoms: C18_28  and  C19_29 
ROOT
HETATM    1  C9  UNL     1      39.642  -0.586  31.753  1.00  0.00     0.178 C 
ENDROOT
BRANCH   1   2
HETATM    2  C8  UNL     1      38.667  -1.603  31.313  1.00  0.00     0.240 C 
HETATM    3  N1  UNL     1      37.989  -1.514  30.074  1.00  0.00    -0.355 N 
ATOM      4  H1  UNL     1      38.189  -0.716  29.472  1.00  0.00     0.162 HD
HETATM    5  O2  UNL     1      38.425  -2.583  32.059  1.00  0.00    -0.271 OA
BRANCH   3   6
HETATM    6  C7  UNL     1      37.040  -2.481  29.618  1.00  0.00     0.084 C 
HETATM    7  C6  UNL     1      37.782  -3.565  28.862  1.00  0.00     0.026 C 
HETATM    8  C5  UNL     1      36.894  -4.629  28.322  1.00  0.00     0.009 C 
HETATM    9  C4  UNL     1      35.684  -4.112  27.632  1.00  0.00     0.019 C 
HETATM   10  C24 UNL     1      35.068  -2.903  28.261  1.00  0.00     0.009 C 
HETATM   11  C23 UNL     1      36.080  -1.842  28.634  1.00  0.00     0.026 C 
BRANCH   9  12
HETATM   12  C2  UNL     1      34.604  -5.152  27.468  1.00  0.00     0.054 C 
HETATM   13  C1  UNL     1      35.191  -6.534  27.281  1.00  0.00     0.045 C 
HETATM   14  C3  UNL     1      33.683  -5.212  28.667  1.00  0.00     0.045 C 
BRANCH  12  15
HETATM   15  O1  UNL     1      33.809  -4.886  26.352  1.00  0.00    -0.390 OA
ATOM     16  H1  UNL     1      34.356  -5.000  25.584  1.00  0.00     0.210 HD
ENDBRANCH  12  15
ENDBRANCH   9  12
ENDBRANCH   3   6
ENDBRANCH   1   2
BRANCH   1  17
HETATM   17  C10 UNL     1      38.863   0.649  32.187  1.00  0.00     0.039 C 
BRANCH  17  18
HETATM   18  C11 UNL     1      37.979   0.374  33.370  1.00  0.00    -0.012 C 
HETATM   19  C12 UNL     1      36.536   0.613  32.930  1.00  0.00     0.005 C 
HETATM   20  C13 UNL     1      35.725   0.876  34.199  1.00  0.00     0.000 C 
HETATM   21  C14 UNL     1      35.933   2.345  34.530  1.00  0.00     0.000 C 
HETATM   22  C15 UNL     1      37.380   2.660  34.222  1.00  0.00     0.000 C 
HETATM   23  C16 UNL     1      38.265   1.446  34.419  1.00  0.00     0.005 C 
ENDBRANCH  17  18
ENDBRANCH   1  17
BRANCH   1  24
HETATM   24  N2  UNL     1      40.614  -0.355  30.748  1.00  0.00    -0.330 N 
HETATM   25  C17 UNL     1      41.773  -1.104  30.520  1.00  0.00     0.317 C 
HETATM   26  O3  UNL     1      42.081  -2.081  31.234  1.00  0.00    -0.247 OA
HETATM   27  N3  UNL     1      42.659  -0.748  29.422  1.00  0.00    -0.339 N 
ATOM     28  H3  UNL     1      42.446   0.043  28.814  1.00  0.00     0.164 HD
ATOM     29  H2  UNL     1      40.452   0.439  30.128  1.00  0.00     0.165 HD
BRANCH  27  30
HETATM   30  C18 UNL     1      43.833  -1.533  29.216  1.00  0.00     0.170 C 
BRANCH  30  31
HETATM   31  C19 UNL     1      44.124  -1.870  27.820  1.00  0.00     0.043 A 
HETATM   32  C20 UNL     1      44.853  -1.143  26.923  1.00  0.00     0.107 A 
HETATM   33  N4  UNL     1      45.022  -1.617  25.652  1.00  0.00    -0.318 N 
HETATM   34  C21 UNL     1      44.507  -2.775  25.227  1.00  0.00     0.326 A 
ATOM     35  H4  UNL     1      45.569  -1.061  24.996  1.00  0.00     0.170 HD
HETATM   36  O4  UNL     1      44.716  -3.131  24.038  1.00  0.00    -0.247 OA
HETATM   37  N5  UNL     1      43.790  -3.502  26.093  1.00  0.00    -0.275 N 
HETATM   38  C22 UNL     1      43.595  -3.079  27.353  1.00  0.00     0.258 A 
ATOM     39  H5  UNL     1      43.387  -4.390  25.792  1.00  0.00     0.173 HD
HETATM   40  O5  UNL     1      42.912  -3.812  28.113  1.00  0.00    -0.267 OA
ENDBRANCH  30  31
ENDBRANCH  27  30
ENDBRANCH   1  24
TORSDOF 9
ENDMDL
MODEL 2
REMARK VINA RESULT: -8.255509947      2.117      6.422
REMARK  9 active torsions:
REMARK  status: ('A' for Active; 'I' for Inactive)
REMARK    1  A    between atoms: C2_2  and  O1_4 
REMARK    2  A    between atoms: C2_2  and  C4_6 
REMARK    3  A    between atoms: C7_9  and  N1_10 
REMARK       I    between atoms: N1_10  and  C8_12 
REMARK    4  A    between atoms: C8_12  and  C9_14 
REMARK    5  A    between atoms: C9_14  and  C10_15 
REMARK    6  A    between atoms: C9_14  and  N2_22 
REMARK    7  A    between atoms: C10_15  and  C11_16 
REMARK       I    between atoms: N2_22  and  C17_24 
REMARK       I    between atoms: C17_24  and  N3_26 
REMARK    8  A    between atoms: N3_26  and  C18_28 
REMARK    9  A    between atoms: C18_28  and  C19_29 
ROOT
HETATM    1  C9  UNL     1      38.443  -1.902  30.163  1.00  0.00     0.178 C 
ENDROOT
BRANCH   1   2
HETATM    2  C8  UNL     1      38.319  -1.324  31.515  1.00  0.00     0.240 C 
HETATM    3  N1  UNL     1      37.353  -0.338  31.829  1.00  0.00    -0.355 N 
ATOM      4  H1  UNL     1      36.728  -0.023  31.089  1.00  0.00     0.162 HD
HETATM    5  O2  UNL     1      39.093  -1.716  32.422  1.00  0.00    -0.271 OA
BRANCH   3   6
HETATM    6  C7  UNL     1      37.206   0.241  33.128  1.00  0.00     0.084 C 
HETATM    7  C6  UNL     1      35.727   0.394  33.422  1.00  0.00     0.026 C 
HETATM    8  C5  UNL     1      35.444   1.004  34.749  1.00  0.00     0.009 C 
HETATM    9  C4  UNL     1      36.261   2.209  35.045  1.00  0.00     0.019 C 
HETATM   10  C24 UNL     1      37.675   2.147  34.562  1.00  0.00     0.009 C 
HETATM   11  C23 UNL     1      37.800   1.636  33.144  1.00  0.00     0.026 C 
BRANCH   9  12
HETATM   12  C2  UNL     1      36.285   2.565  36.511  1.00  0.00     0.054 C 
HETATM   13  C1  UNL     1      36.586   1.355  37.369  1.00  0.00     0.045 C 
HETATM   14  C3  UNL     1      37.330   3.612  36.826  1.00  0.00     0.045 C 
BRANCH  12  15
HETATM   15  O1  UNL     1      35.055   3.073  36.930  1.00  0.00    -0.390 OA
ATOM     16  H1  UNL     1      34.572   3.321  36.150  1.00  0.00     0.210 HD
ENDBRANCH  12  15
ENDBRANCH   9  12
ENDBRANCH   3   6
ENDBRANCH   1   2
BRANCH   1  17
HETATM   17  C10 UNL     1      37.141  -2.627  29.845  1.00  0.00     0.039 C 
BRANCH  17  18
HETATM   18  C11 UNL     1      36.640  -2.312  28.464  1.00  0.00    -0.012 C 
HETATM   19  C12 UNL     1      35.700  -1.114  28.581  1.00  0.00     0.005 C 
HETATM   20  C13 UNL     1      34.796  -1.141  27.349  1.00  0.00     0.000 C 
HETATM   21  C14 UNL     1      33.683  -2.125  27.670  1.00  0.00     0.000 C 
HETATM   22  C15 UNL     1      34.317  -3.267  28.431  1.00  0.00     0.000 C 
HETATM   23  C16 UNL     1      35.760  -3.476  28.015  1.00  0.00     0.005 C 
ENDBRANCH  17  18
ENDBRANCH   1  17
BRANCH   1  24
HETATM   24  N2  UNL     1      39.610  -2.701  30.062  1.00  0.00    -0.330 N 
HETATM   25  C17 UNL     1      40.896  -2.262  29.730  1.00  0.00     0.317 C 
HETATM   26  O3  UNL     1      41.138  -1.068  29.457  1.00  0.00    -0.247 OA
HETATM   27  N3  UNL     1      41.997  -3.212  29.698  1.00  0.00    -0.339 N 
ATOM     28  H3  UNL     1      41.845  -4.197  29.915  1.00  0.00     0.164 HD
ATOM     29  H2  UNL     1      39.500  -3.697  30.251  1.00  0.00     0.165 HD
BRANCH  27  30
HETATM   30  C18 UNL     1      43.297  -2.732  29.356  1.00  0.00     0.170 C 
BRANCH  30  31
HETATM   31  C19 UNL     1      43.670  -2.883  27.948  1.00  0.00     0.043 A 
HETATM   32  C20 UNL     1      43.474  -3.973  27.148  1.00  0.00     0.107 A 
HETATM   33  N4  UNL     1      43.891  -3.936  25.846  1.00  0.00    -0.318 N 
HETATM   34  C21 UNL     1      44.491  -2.874  25.299  1.00  0.00     0.326 A 
ATOM     35  H4  UNL     1      43.736  -4.759  25.264  1.00  0.00     0.170 HD
HETATM   36  O4  UNL     1      44.840  -2.931  24.091  1.00  0.00    -0.247 OA
HETATM   37  N5  UNL     1      44.691  -1.796  26.068  1.00  0.00    -0.275 N 
HETATM   38  C22 UNL     1      44.300  -1.784  27.353  1.00  0.00     0.258 A 
ATOM     39  H5  UNL     1      45.147  -0.973  25.672  1.00  0.00     0.173 HD
HETATM   40  O5  UNL     1      44.518  -0.739  28.017  1.00  0.00    -0.267 OA
ENDBRANCH  30  31
ENDBRANCH  27  30
ENDBRANCH   1  24
TORSDOF 9
ENDMDL
MODEL 3
REMARK VINA RESULT: -8.218033204      3.205      4.766
REMARK  9 active torsions:
REMARK  status: ('A' for Active; 'I' for Inactive)
REMARK    1  A    between atoms: C2_2  and  O1_4 
REMARK    2  A    between atoms: C2_2  and  C4_6 
REMARK    3  A    between atoms: C7_9  and  N1_10 
REMARK       I    between atoms: N1_10  and  C8_12 
REMARK    4  A    between atoms: C8_12  and  C9_14 
REMARK    5  A    between atoms: C9_14  and  C10_15 
REMARK    6  A    between atoms: C9_14  and  N2_22 
REMARK    7  A    between atoms: C10_15  and  C11_16 
REMARK       I    between atoms: N2_22  and  C17_24 
REMARK       I    between atoms: C17_24  and  N3_26 
REMARK    8  A    between atoms: N3_26  and  C18_28 
REMARK    9  A    between atoms: C18_28  and  C19_29 
ROOT
HETATM    1  C9  UNL     1      42.685  -1.602  33.392  1.00  0.00     0.178 C 
ENDROOT
BRANCH   1   2
HETATM    2  C8  UNL     1      41.232  -1.791  33.219  1.00  0.00     0.240 C 
HETATM    3  N1  UNL     1      40.377  -0.739  32.812  1.00  0.00    -0.355 N 
ATOM      4  H1  UNL     1      40.790   0.176  32.635  1.00  0.00     0.162 HD
HETATM    5  O2  UNL     1      40.730  -2.920  33.439  1.00  0.00    -0.271 OA
BRANCH   3   6
HETATM    6  C7  UNL     1      38.966  -0.888  32.635  1.00  0.00     0.084 C 
HETATM    7  C6  UNL     1      38.707  -1.374  31.222  1.00  0.00     0.026 C 
HETATM    8  C5  UNL     1      37.264  -1.555  30.910  1.00  0.00     0.009 C 
HETATM    9  C4  UNL     1      36.407  -0.419  31.340  1.00  0.00     0.019 C 
HETATM   10  C24 UNL     1      36.795   0.206  32.642  1.00  0.00     0.009 C 
HETATM   11  C23 UNL     1      38.282   0.459  32.765  1.00  0.00     0.026 C 
BRANCH   9  12
HETATM   12  C2  UNL     1      34.943  -0.774  31.412  1.00  0.00     0.054 C 
HETATM   13  C1  UNL     1      34.614  -1.951  30.520  1.00  0.00     0.045 C 
HETATM   14  C3  UNL     1      34.514  -1.139  32.816  1.00  0.00     0.045 C 
BRANCH  12  15
HETATM   15  O1  UNL     1      34.142   0.292  31.001  1.00  0.00    -0.390 OA
ATOM     16  H1  UNL     1      34.359   1.036  31.552  1.00  0.00     0.210 HD
ENDBRANCH  12  15
ENDBRANCH   9  12
ENDBRANCH   3   6
ENDBRANCH   1   2
BRANCH   1  17
HETATM   17  C10 UNL     1      42.914  -0.182  33.893  1.00  0.00     0.039 C 
BRANCH  17  18
HETATM   18  C11 UNL     1      44.357   0.077  34.224  1.00  0.00    -0.012 C 
HETATM   19  C12 UNL     1      44.519  -0.097  35.733  1.00  0.00     0.005 C 
HETATM   20  C13 UNL     1      45.777   0.674  36.133  1.00  0.00     0.000 C 
HETATM   21  C14 UNL     1      45.347   2.124  36.282  1.00  0.00     0.000 C 
HETATM   22  C15 UNL     1      44.353   2.400  35.177  1.00  0.00     0.000 C 
HETATM   23  C16 UNL     1      44.636   1.553  33.953  1.00  0.00     0.005 C 
ENDBRANCH  17  18
ENDBRANCH   1  17
BRANCH   1  24
HETATM   24  N2  UNL     1      43.381  -1.934  32.202  1.00  0.00    -0.330 N 
HETATM   25  C17 UNL     1      43.231  -1.326  30.951  1.00  0.00     0.317 C 
HETATM   26  O3  UNL     1      42.412  -0.403  30.758  1.00  0.00    -0.247 OA
HETATM   27  N3  UNL     1      44.046  -1.769  29.831  1.00  0.00    -0.339 N 
ATOM     28  H3  UNL     1      44.727  -2.519  29.944  1.00  0.00     0.164 HD
ATOM     29  H2  UNL     1      44.059  -2.693  32.264  1.00  0.00     0.165 HD
BRANCH  27  30
HETATM   30  C18 UNL     1      43.869  -1.127  28.568  1.00  0.00     0.170 C 
BRANCH  30  31
HETATM   31  C19 UNL     1      44.071  -1.984  27.397  1.00  0.00     0.043 A 
HETATM   32  C20 UNL     1      44.859  -1.732  26.309  1.00  0.00     0.107 A 
HETATM   33  N4  UNL     1      44.927  -2.654  25.301  1.00  0.00    -0.318 N 
HETATM   34  C21 UNL     1      44.256  -3.809  25.318  1.00  0.00     0.326 A 
ATOM     35  H4  UNL     1      45.520  -2.449  24.497  1.00  0.00     0.170 HD
HETATM   36  O4  UNL     1      44.382  -4.597  24.344  1.00  0.00    -0.247 OA
HETATM   37  N5  UNL     1      43.480  -4.073  26.376  1.00  0.00    -0.275 N 
HETATM   38  C22 UNL     1      43.379  -3.199  27.392  1.00  0.00     0.258 A 
ATOM     39  H5  UNL     1      42.958  -4.949  26.412  1.00  0.00     0.173 HD
HETATM   40  O5  UNL     1      42.632  -3.512  28.355  1.00  0.00    -0.267 OA
ENDBRANCH  30  31
ENDBRANCH  27  30
ENDBRANCH   1  24
TORSDOF 9
ENDMDL
MODEL 4
REMARK VINA RESULT: -8.157279340      1.909      6.372
REMARK  9 active torsions:
REMARK  status: ('A' for Active; 'I' for Inactive)
REMARK    1  A    between atoms: C2_2  and  O1_4 
REMARK    2  A    between atoms: C2_2  and  C4_6 
REMARK    3  A    between atoms: C7_9  and  N1_10 
REMARK       I    between atoms: N1_10  and  C8_12 
REMARK    4  A    between atoms: C8_12  and  C9_14 
REMARK    5  A    between atoms: C9_14  and  C10_15 
REMARK    6  A    between atoms: C9_14  and  N2_22 
REMARK    7  A    between atoms: C10_15  and  C11_16 
REMARK       I    between atoms: N2_22  and  C17_24 
REMARK       I    between atoms: C17_24  and  N3_26 
REMARK    8  A    between atoms: N3_26  and  C18_28 
REMARK    9  A    between atoms: C18_28  and  C19_29 
ROOT
HETATM    1  C9  UNL     1      38.607  -3.280  29.603  1.00  0.00     0.178 C 
ENDROOT
BRANCH   1   2
HETATM    2  C8  UNL     1      38.229  -2.565  30.837  1.00  0.00     0.240 C 
HETATM    3  N1  UNL     1      38.103  -1.156  30.885  1.00  0.00    -0.355 N 
ATOM      4  H1  UNL     1      38.283  -0.627  30.033  1.00  0.00     0.162 HD
HETATM    5  O2  UNL     1      38.009  -3.222  31.883  1.00  0.00    -0.271 OA
BRANCH   3   6
HETATM    6  C7  UNL     1      37.738  -0.432  32.063  1.00  0.00     0.084 C 
HETATM    7  C6  UNL     1      36.287  -0.010  31.938  1.00  0.00     0.026 C 
HETATM    8  C5  UNL     1      35.791   0.769  33.104  1.00  0.00     0.009 C 
HETATM    9  C4  UNL     1      36.713   1.847  33.546  1.00  0.00     0.019 C 
HETATM   10  C24 UNL     1      38.167   1.505  33.467  1.00  0.00     0.009 C 
HETATM   11  C23 UNL     1      38.555   0.840  32.165  1.00  0.00     0.026 C 
BRANCH   9  12
HETATM   12  C2  UNL     1      36.426   2.339  34.943  1.00  0.00     0.054 C 
HETATM   13  C1  UNL     1      35.089   1.836  35.442  1.00  0.00     0.045 C 
HETATM   14  C3  UNL     1      37.476   1.888  35.933  1.00  0.00     0.045 C 
BRANCH  12  15
HETATM   15  O1  UNL     1      36.388   3.733  34.991  1.00  0.00    -0.390 OA
ATOM     16  H1  UNL     1      36.771   3.997  35.819  1.00  0.00     0.210 HD
ENDBRANCH  12  15
ENDBRANCH   9  12
ENDBRANCH   3   6
ENDBRANCH   1   2
BRANCH   1  17
HETATM   17  C10 UNL     1      37.502  -4.281  29.288  1.00  0.00     0.039 C 
BRANCH  17  18
HETATM   18  C11 UNL     1      36.768  -3.934  28.024  1.00  0.00    -0.012 C 
HETATM   19  C12 UNL     1      35.380  -3.437  28.423  1.00  0.00     0.005 C 
HETATM   20  C13 UNL     1      34.480  -3.612  27.200  1.00  0.00     0.000 C 
HETATM   21  C14 UNL     1      34.033  -5.064  27.216  1.00  0.00     0.000 C 
HETATM   22  C15 UNL     1      35.222  -5.882  27.668  1.00  0.00     0.000 C 
HETATM   23  C16 UNL     1      36.529  -5.232  27.258  1.00  0.00     0.005 C 
ENDBRANCH  17  18
ENDBRANCH   1  17
BRANCH   1  24
HETATM   24  N2  UNL     1      39.903  -3.842  29.725  1.00  0.00    -0.330 N 
HETATM   25  C17 UNL     1      41.115  -3.223  29.399  1.00  0.00     0.317 C 
HETATM   26  O3  UNL     1      41.162  -2.069  28.926  1.00  0.00    -0.247 OA
HETATM   27  N3  UNL     1      42.367  -3.932  29.612  1.00  0.00    -0.339 N 
ATOM     28  H3  UNL     1      42.375  -4.877  29.996  1.00  0.00     0.164 HD
ATOM     29  H2  UNL     1      39.957  -4.793  30.087  1.00  0.00     0.165 HD
BRANCH  27  30
HETATM   30  C18 UNL     1      43.586  -3.273  29.269  1.00  0.00     0.170 C 
BRANCH  30  31
HETATM   31  C19 UNL     1      43.872  -3.192  27.835  1.00  0.00     0.043 A 
HETATM   32  C20 UNL     1      43.707  -4.171  26.897  1.00  0.00     0.107 A 
HETATM   33  N4  UNL     1      44.029  -3.915  25.593  1.00  0.00    -0.318 N 
HETATM   34  C21 UNL     1      44.507  -2.740  25.174  1.00  0.00     0.326 A 
ATOM     35  H4  UNL     1      43.899  -4.658  24.907  1.00  0.00     0.170 HD
HETATM   36  O4  UNL     1      44.776  -2.596  23.952  1.00  0.00    -0.247 OA
HETATM   37  N5  UNL     1      44.675  -1.767  26.079  1.00  0.00    -0.275 N 
HETATM   38  C22 UNL     1      44.373  -1.970  27.372  1.00  0.00     0.258 A 
ATOM     39  H5  UNL     1      45.038  -0.861  25.782  1.00  0.00     0.173 HD
HETATM   40  O5  UNL     1      44.556  -1.013  28.168  1.00  0.00    -0.267 OA
ENDBRANCH  30  31
ENDBRANCH  27  30
ENDBRANCH   1  24
TORSDOF 9
ENDMDL
MODEL 5
REMARK VINA RESULT: -8.137013657      4.027      8.266
REMARK  9 active torsions:
REMARK  status: ('A' for Active; 'I' for Inactive)
REMARK    1  A    between atoms: C2_2  and  O1_4 
REMARK    2  A    between atoms: C2_2  and  C4_6 
REMARK    3  A    between atoms: C7_9  and  N1_10 
REMARK       I    between atoms: N1_10  and  C8_12 
REMARK    4  A    between atoms: C8_12  and  C9_14 
REMARK    5  A    between atoms: C9_14  and  C10_15 
REMARK    6  A    between atoms: C9_14  and  N2_22 
REMARK    7  A    between atoms: C10_15  and  C11_16 
REMARK       I    between atoms: N2_22  and  C17_24 
REMARK       I    between atoms: C17_24  and  N3_26 
REMARK    8  A    between atoms: N3_26  and  C18_28 
REMARK    9  A    between atoms: C18_28  and  C19_29 
ROOT
HETATM    1  C9  UNL     1      41.487  -1.183  31.107  1.00  0.00     0.178 C 
ENDROOT
BRANCH   1   2
HETATM    2  C8  UNL     1      42.417  -1.369  32.238  1.00  0.00     0.240 C 
HETATM    3  N1  UNL     1      43.158  -0.297  32.791  1.00  0.00    -0.355 N 
ATOM      4  H1  UNL     1      43.038   0.631  32.385  1.00  0.00     0.162 HD
HETATM    5  O2  UNL     1      42.560  -2.514  32.732  1.00  0.00    -0.271 OA
BRANCH   3   6
HETATM    6  C7  UNL     1      44.066  -0.442  33.885  1.00  0.00     0.084 C 
HETATM    7  C6  UNL     1      43.321  -0.143  35.171  1.00  0.00     0.026 C 
HETATM    8  C5  UNL     1      44.169  -0.248  36.389  1.00  0.00     0.009 C 
HETATM    9  C4  UNL     1      45.486   0.428  36.266  1.00  0.00     0.019 C 
HETATM   10  C24 UNL     1      46.131   0.315  34.921  1.00  0.00     0.009 C 
HETATM   11  C23 UNL     1      45.178   0.583  33.777  1.00  0.00     0.026 C 
BRANCH   9  12
HETATM   12  C2  UNL     1      46.486  -0.026  37.301  1.00  0.00     0.054 C 
HETATM   13  C1  UNL     1      47.895  -0.013  36.751  1.00  0.00     0.045 C 
HETATM   14  C3  UNL     1      46.473   0.855  38.530  1.00  0.00     0.045 C 
BRANCH  12  15
HETATM   15  O1  UNL     1      46.220  -1.328  37.724  1.00  0.00    -0.390 OA
ATOM     16  H1  UNL     1      45.412  -1.303  38.224  1.00  0.00     0.210 HD
ENDBRANCH  12  15
ENDBRANCH   9  12
ENDBRANCH   3   6
ENDBRANCH   1   2
BRANCH   1  17
HETATM   17  C10 UNL     1      40.727  -2.489  30.910  1.00  0.00     0.039 C 
BRANCH  17  18
HETATM   18  C11 UNL     1      39.708  -2.392  29.810  1.00  0.00    -0.012 C 
HETATM   19  C12 UNL     1      38.570  -1.508  30.317  1.00  0.00     0.005 C 
HETATM   20  C13 UNL     1      37.341  -1.847  29.475  1.00  0.00     0.000 C 
HETATM   21  C14 UNL     1      36.736  -3.093  30.101  1.00  0.00     0.000 C 
HETATM   22  C15 UNL     1      37.892  -3.972  30.525  1.00  0.00     0.000 C 
HETATM   23  C16 UNL     1      39.095  -3.777  29.625  1.00  0.00     0.005 C 
ENDBRANCH  17  18
ENDBRANCH   1  17
BRANCH   1  24
HETATM   24  N2  UNL     1      42.178  -0.717  29.960  1.00  0.00    -0.330 N 
HETATM   25  C17 UNL     1      43.249  -1.347  29.318  1.00  0.00     0.317 C 
HETATM   26  O3  UNL     1      43.732  -2.421  29.734  1.00  0.00    -0.247 OA
HETATM   27  N3  UNL     1      43.831  -0.747  28.127  1.00  0.00    -0.339 N 
ATOM     28  H3  UNL     1      43.468   0.130  27.753  1.00  0.00     0.164 HD
ATOM     29  H2  UNL     1      41.860   0.166  29.562  1.00  0.00     0.165 HD
BRANCH  27  30
HETATM   30  C18 UNL     1      44.923  -1.415  27.496  1.00  0.00     0.170 C 
BRANCH  30  31
HETATM   31  C19 UNL     1      44.552  -2.369  26.448  1.00  0.00     0.043 A 
HETATM   32  C20 UNL     1      44.279  -3.700  26.594  1.00  0.00     0.107 A 
HETATM   33  N4  UNL     1      43.947  -4.443  25.495  1.00  0.00    -0.318 N 
HETATM   34  C21 UNL     1      43.872  -3.934  24.262  1.00  0.00     0.326 A 
ATOM     35  H4  UNL     1      43.746  -5.434  25.623  1.00  0.00     0.170 HD
HETATM   36  O4  UNL     1      43.557  -4.695  23.310  1.00  0.00    -0.247 OA
HETATM   37  N5  UNL     1      44.135  -2.631  24.100  1.00  0.00    -0.275 N 
HETATM   38  C22 UNL     1      44.466  -1.859  25.148  1.00  0.00     0.258 A 
ATOM     39  H5  UNL     1      44.084  -2.219  23.167  1.00  0.00     0.173 HD
HETATM   40  O5  UNL     1      44.700  -0.644  24.924  1.00  0.00    -0.267 OA
ENDBRANCH  30  31
ENDBRANCH  27  30
ENDBRANCH   1  24
TORSDOF 9
ENDMDL
