MODEL 1
REMARK VINA RESULT: -7.253029739      0.000      0.000
REMARK  10 active torsions:
REMARK  status: ('A' for Active; 'I' for Inactive)
REMARK    1  A    between atoms: N1_2  and  N2_4 
REMARK       I    between atoms: N2_4  and  C2_6 
REMARK       I    between atoms: C2_6  and  N3_7 
REMARK       I    between atoms: C2_6  and  N6_17 
REMARK    2  A    between atoms: N3_7  and  C3_9 
REMARK    3  A    between atoms: N6_17  and  C6_19 
REMARK    4  A    between atoms: C6_19  and  C7_20 
REMARK    5  A    between atoms: C6_19  and  C18_37 
REMARK       I    between atoms: C7_20  and  N7_22 
REMARK    6  A    between atoms: N7_22  and  C8_24 
REMARK    7  A    between atoms: C8_24  and  C9_25 
REMARK    8  A    between atoms: C8_24  and  C14_33 
REMARK    9  A    between atoms: C9_25  and  C10_26 
REMARK       I    between atoms: C10_26  and  N8_28 
REMARK   10  A    between atoms: N8_28  and  C11_30 
ROOT
HETATM    1  C6  UNL     1      41.283  -0.849  32.499  1.00  0.00     0.199 C 
ENDROOT
BRANCH   1   2
HETATM    2  N6  UNL     1      41.721  -1.127  31.127  1.00  0.00    -0.211 N 
HETATM    3  C2  UNL     1      42.088  -2.408  30.652  1.00  0.00     0.694 C 
HETATM    4  N2  UNL     1      41.364  -3.446  30.646  1.00  0.00    -0.137 N 
HETATM    5  N3  UNL     1      43.427  -2.512  30.125  1.00  0.00    -0.174 N 
ATOM      6  H2  UNL     1      40.422  -3.351  31.024  1.00  0.00     0.205 HD
ATOM      7  H3  UNL     1      44.195  -2.868  30.694  1.00  0.00     0.186 HD
ATOM      8  H6  UNL     1      41.763  -0.346  30.473  1.00  0.00     0.178 HD
BRANCH   4   9
HETATM    9  N1  UNL     1      41.726  -4.689  30.180  1.00  0.00    -0.327 N 
HETATM   10  C1  UNL     1      40.803  -5.827  30.211  1.00  0.00     0.168 C 
ATOM     11  H1  UNL     1      42.664  -4.822  29.801  1.00  0.00     0.180 HD
ENDBRANCH   4   9
BRANCH   5  12
HETATM   12  C3  UNL     1      43.616  -2.130  28.883  1.00  0.00     0.138 A 
HETATM   13  C4  UNL     1      43.756  -2.928  27.778  1.00  0.00     0.094 A 
HETATM   14  C5  UNL     1      43.934  -2.120  26.675  1.00  0.00     0.121 A 
HETATM   15 CL1  UNL     1      44.164  -2.564  24.990  1.00  0.00    -0.063 Cl
HETATM   16  N4  UNL     1      43.900  -0.858  27.128  1.00  0.00    -0.288 N 
HETATM   17  N5  UNL     1      43.710  -0.859  28.451  1.00  0.00    -0.284 N 
ATOM     18  H4  UNL     1      44.004  -0.024  26.550  1.00  0.00     0.188 HD
ATOM     19  H5  UNL     1      43.646  -0.028  29.040  1.00  0.00     0.188 HD
ENDBRANCH   5  12
ENDBRANCH   1   2
BRANCH   1  20
HETATM   20  C7  UNL     1      42.276  -0.092  33.228  1.00  0.00     0.242 C 
HETATM   21  O1  UNL     1      43.191   0.407  32.462  1.00  0.00    -0.271 OA
HETATM   22  N7  UNL     1      42.439   0.202  34.573  1.00  0.00    -0.353 N 
ATOM     23  H7  UNL     1      41.739  -0.159  35.220  1.00  0.00     0.163 HD
BRANCH  22  24
HETATM   24  C8  UNL     1      43.532   0.986  35.136  1.00  0.00     0.100 C 
BRANCH  24  25
HETATM   25  C9  UNL     1      44.473   0.044  35.841  1.00  0.00     0.128 C 
BRANCH  25  26
HETATM   26  C10 UNL     1      45.888   0.187  35.412  1.00  0.00     0.219 C 
HETATM   27  O2  UNL     1      46.100   0.651  34.270  1.00  0.00    -0.274 OA
HETATM   28  N8  UNL     1      46.979  -0.171  36.217  1.00  0.00    -0.356 N 
ATOM     29  H8  UNL     1      46.810  -0.551  37.148  1.00  0.00     0.162 HD
BRANCH  28  30
HETATM   30  C11 UNL     1      48.330  -0.012  35.754  1.00  0.00     0.084 A 
HETATM   31  C12 UNL     1      49.125  -1.237  35.471  1.00  0.00     0.027 A 
HETATM   32  C13 UNL     1      49.469  -0.393  36.672  1.00  0.00     0.027 A 
ENDBRANCH  28  30
ENDBRANCH  25  26
ENDBRANCH  24  25
BRANCH  24  33
HETATM   33  C14 UNL     1      43.006   2.019  36.121  1.00  0.00    -0.030 C 
HETATM   34  C15 UNL     1      41.538   2.271  36.017  1.00  0.00     0.016 C 
HETATM   35  C16 UNL     1      43.803   3.313  35.943  1.00  0.00     0.016 C 
HETATM   36  C17 UNL     1      43.305   1.553  37.533  1.00  0.00     0.016 C 
ENDBRANCH  24  33
ENDBRANCH  22  24
ENDBRANCH   1  20
BRANCH   1  37
HETATM   37  C18 UNL     1      39.878  -0.395  32.455  1.00  0.00    -0.022 C 
HETATM   38  C19 UNL     1      39.037  -1.679  32.704  1.00  0.00     0.017 C 
HETATM   39  C20 UNL     1      39.488   0.476  33.636  1.00  0.00     0.017 C 
HETATM   40  C21 UNL     1      39.402   0.137  31.136  1.00  0.00     0.017 C 
ENDBRANCH   1  37
TORSDOF 10
ENDMDL
MODEL 2
REMARK VINA RESULT: -7.188722104      0.577      1.210
REMARK  10 active torsions:
REMARK  status: ('A' for Active; 'I' for Inactive)
REMARK    1  A    between atoms: N1_2  and  N2_4 
REMARK       I    between atoms: N2_4  and  C2_6 
REMARK       I    between atoms: C2_6  and  N3_7 
REMARK       I    between atoms: C2_6  and  N6_17 
REMARK    2  A    between atoms: N3_7  and  C3_9 
REMARK    3  A    between atoms: N6_17  and  C6_19 
REMARK    4  A    between atoms: C6_19  and  C7_20 
REMARK    5  A    between atoms: C6_19  and  C18_37 
REMARK       I    between atoms: C7_20  and  N7_22 
REMARK    6  A    between atoms: N7_22  and  C8_24 
REMARK    7  A    between atoms: C8_24  and  C9_25 
REMARK    8  A    between atoms: C8_24  and  C14_33 
REMARK    9  A    between atoms: C9_25  and  C10_26 
REMARK       I    between atoms: C10_26  and  N8_28 
REMARK   10  A    between atoms: N8_28  and  C11_30 
ROOT
HETATM    1  C6  UNL     1      41.167  -1.037  32.181  1.00  0.00     0.199 C 
ENDROOT
BRANCH   1   2
HETATM    2  N6  UNL     1      41.677  -1.339  30.840  1.00  0.00    -0.211 N 
HETATM    3  C2  UNL     1      42.487  -2.455  30.527  1.00  0.00     0.694 C 
HETATM    4  N2  UNL     1      42.194  -3.673  30.704  1.00  0.00    -0.137 N 
HETATM    5  N3  UNL     1      43.772  -2.144  29.949  1.00  0.00    -0.174 N 
ATOM      6  H2  UNL     1      41.282  -3.871  31.115  1.00  0.00     0.205 HD
ATOM      7  H3  UNL     1      44.617  -2.108  30.519  1.00  0.00     0.186 HD
ATOM      8  H6  UNL     1      41.430  -0.702  30.083  1.00  0.00     0.178 HD
BRANCH   4   9
HETATM    9  N1  UNL     1      42.986  -4.755  30.396  1.00  0.00    -0.327 N 
HETATM   10  C1  UNL     1      42.449  -5.945  29.730  1.00  0.00     0.168 C 
ATOM     11  H1  UNL     1      43.977  -4.728  30.637  1.00  0.00     0.180 HD
ENDBRANCH   4   9
BRANCH   5  12
HETATM   12  C3  UNL     1      43.808  -1.908  28.657  1.00  0.00     0.138 A 
HETATM   13  C4  UNL     1      43.930  -2.826  27.647  1.00  0.00     0.094 A 
HETATM   14  C5  UNL     1      43.925  -2.152  26.443  1.00  0.00     0.121 A 
HETATM   15 CL1  UNL     1      44.047  -2.786  24.808  1.00  0.00    -0.063 Cl
HETATM   16  N4  UNL     1      43.802  -0.851  26.744  1.00  0.00    -0.288 N 
HETATM   17  N5  UNL     1      43.732  -0.700  28.070  1.00  0.00    -0.284 N 
ATOM     18  H4  UNL     1      43.768  -0.092  26.064  1.00  0.00     0.188 HD
ATOM     19  H5  UNL     1      43.637   0.190  28.560  1.00  0.00     0.188 HD
ENDBRANCH   5  12
ENDBRANCH   1   2
BRANCH   1  20
HETATM   20  C7  UNL     1      42.118  -0.265  32.948  1.00  0.00     0.242 C 
HETATM   21  O1  UNL     1      43.069   0.225  32.223  1.00  0.00    -0.271 OA
HETATM   22  N7  UNL     1      42.210   0.053  34.294  1.00  0.00    -0.353 N 
ATOM     23  H7  UNL     1      41.477  -0.300  34.910  1.00  0.00     0.163 HD
BRANCH  22  24
HETATM   24  C8  UNL     1      43.269   0.851  34.900  1.00  0.00     0.100 C 
BRANCH  24  25
HETATM   25  C9  UNL     1      44.213  -0.083  35.613  1.00  0.00     0.128 C 
BRANCH  25  26
HETATM   26  C10 UNL     1      45.643   0.157  35.290  1.00  0.00     0.219 C 
HETATM   27  O2  UNL     1      45.905   0.662  34.176  1.00  0.00    -0.274 OA
HETATM   28  N8  UNL     1      46.694  -0.153  36.164  1.00  0.00    -0.356 N 
ATOM     29  H8  UNL     1      46.485  -0.566  37.072  1.00  0.00     0.162 HD
BRANCH  28  30
HETATM   30  C11 UNL     1      48.062   0.100  35.803  1.00  0.00     0.084 A 
HETATM   31  C12 UNL     1      48.951  -1.065  35.551  1.00  0.00     0.027 A 
HETATM   32  C13 UNL     1      49.155  -0.233  36.792  1.00  0.00     0.027 A 
ENDBRANCH  28  30
ENDBRANCH  25  26
ENDBRANCH  24  25
BRANCH  24  33
HETATM   33  C14 UNL     1      42.694   1.852  35.890  1.00  0.00    -0.030 C 
HETATM   34  C15 UNL     1      43.282   3.221  35.784  1.00  0.00     0.016 C 
HETATM   35  C16 UNL     1      42.857   1.289  37.304  1.00  0.00     0.016 C 
HETATM   36  C17 UNL     1      41.199   1.964  35.670  1.00  0.00     0.016 C 
ENDBRANCH  24  33
ENDBRANCH  22  24
ENDBRANCH   1  20
BRANCH   1  37
HETATM   37  C18 UNL     1      39.764  -0.589  32.055  1.00  0.00    -0.022 C 
HETATM   38  C19 UNL     1      39.680   0.064  30.648  1.00  0.00     0.017 C 
HETATM   39  C20 UNL     1      38.774  -1.734  31.936  1.00  0.00     0.017 C 
HETATM   40  C21 UNL     1      39.330   0.480  33.013  1.00  0.00     0.017 C 
ENDBRANCH   1  37
TORSDOF 10
ENDMDL
MODEL 3
REMARK VINA RESULT: -7.082677150      3.280      7.834
REMARK  10 active torsions:
REMARK  status: ('A' for Active; 'I' for Inactive)
REMARK    1  A    between atoms: N1_2  and  N2_4 
REMARK       I    between atoms: N2_4  and  C2_6 
REMARK       I    between atoms: C2_6  and  N3_7 
REMARK       I    between atoms: C2_6  and  N6_17 
REMARK    2  A    between atoms: N3_7  and  C3_9 
REMARK    3  A    between atoms: N6_17  and  C6_19 
REMARK    4  A    between atoms: C6_19  and  C7_20 
REMARK    5  A    between atoms: C6_19  and  C18_37 
REMARK       I    between atoms: C7_20  and  N7_22 
REMARK    6  A    between atoms: N7_22  and  C8_24 
REMARK    7  A    between atoms: C8_24  and  C9_25 
REMARK    8  A    between atoms: C8_24  and  C14_33 
REMARK    9  A    between atoms: C9_25  and  C10_26 
REMARK       I    between atoms: C10_26  and  N8_28 
REMARK   10  A    between atoms: N8_28  and  C11_30 
ROOT
HETATM    1  C6  UNL     1      40.661   0.863  35.183  1.00  0.00     0.199 C 
ENDROOT
BRANCH   1   2
HETATM    2  N6  UNL     1      42.069   0.941  35.583  1.00  0.00    -0.211 N 
HETATM    3  C2  UNL     1      42.828   2.135  35.601  1.00  0.00     0.694 C 
HETATM    4  N2  UNL     1      42.569   3.183  36.259  1.00  0.00    -0.137 N 
HETATM    5  N3  UNL     1      44.012   2.127  34.777  1.00  0.00    -0.174 N 
ATOM      6  H2  UNL     1      41.727   3.169  36.834  1.00  0.00     0.205 HD
ATOM      7  H3  UNL     1      44.011   2.533  33.841  1.00  0.00     0.186 HD
ATOM      8  H6  UNL     1      42.532   0.078  35.868  1.00  0.00     0.178 HD
BRANCH   4   9
HETATM    9  N1  UNL     1      43.313   4.341  36.274  1.00  0.00    -0.327 N 
HETATM   10  C1  UNL     1      43.671   5.016  37.524  1.00  0.00     0.168 C 
ATOM     11  H1  UNL     1      43.624   4.741  35.389  1.00  0.00     0.180 HD
ENDBRANCH   4   9
BRANCH   5  12
HETATM   12  C3  UNL     1      45.092   1.575  35.281  1.00  0.00     0.138 A 
HETATM   13  C4  UNL     1      45.485   1.563  36.594  1.00  0.00     0.094 A 
HETATM   14  C5  UNL     1      46.677   0.875  36.686  1.00  0.00     0.121 A 
HETATM   15 CL1  UNL     1      47.661   0.529  38.102  1.00  0.00    -0.063 Cl
HETATM   16  N4  UNL     1      46.983   0.489  35.439  1.00  0.00    -0.288 N 
HETATM   17  N5  UNL     1      46.035   0.906  34.594  1.00  0.00    -0.284 N 
ATOM     18  H4  UNL     1      47.812  -0.043  35.175  1.00  0.00     0.188 HD
ATOM     19  H5  UNL     1      46.028   0.744  33.586  1.00  0.00     0.188 HD
ENDBRANCH   5  12
ENDBRANCH   1   2
BRANCH   1  20
HETATM   20  C7  UNL     1      40.481  -0.012  34.046  1.00  0.00     0.242 C 
HETATM   21  O1  UNL     1      41.169  -1.104  34.138  1.00  0.00    -0.271 OA
HETATM   22  N7  UNL     1      39.724   0.086  32.889  1.00  0.00    -0.353 N 
ATOM     23  H7  UNL     1      39.153   0.923  32.772  1.00  0.00     0.163 HD
BRANCH  22  24
HETATM   24  C8  UNL     1      39.677  -0.912  31.828  1.00  0.00     0.100 C 
BRANCH  24  25
HETATM   25  C9  UNL     1      40.229  -0.289  30.571  1.00  0.00     0.128 C 
BRANCH  25  26
HETATM   26  C10 UNL     1      41.651  -0.631  30.313  1.00  0.00     0.219 C 
HETATM   27  O2  UNL     1      42.503  -0.197  31.119  1.00  0.00    -0.274 OA
HETATM   28  N8  UNL     1      42.074  -1.406  29.224  1.00  0.00    -0.356 N 
ATOM     29  H8  UNL     1      41.382  -1.761  28.564  1.00  0.00     0.162 HD
BRANCH  28  30
HETATM   30  C11 UNL     1      43.464  -1.709  29.020  1.00  0.00     0.084 A 
HETATM   31  C12 UNL     1      44.157  -1.086  27.861  1.00  0.00     0.027 A 
HETATM   32  C13 UNL     1      43.862  -2.565  27.839  1.00  0.00     0.027 A 
ENDBRANCH  28  30
ENDBRANCH  25  26
ENDBRANCH  24  25
BRANCH  24  33
HETATM   33  C14 UNL     1      38.250  -1.379  31.585  1.00  0.00    -0.030 C 
HETATM   34  C15 UNL     1      37.977  -1.801  30.178  1.00  0.00     0.016 C 
HETATM   35  C16 UNL     1      37.292  -0.268  32.024  1.00  0.00     0.016 C 
HETATM   36  C17 UNL     1      37.951  -2.553  32.495  1.00  0.00     0.016 C 
ENDBRANCH  24  33
ENDBRANCH  22  24
ENDBRANCH   1  20
BRANCH   1  37
HETATM   37  C18 UNL     1      39.841   0.690  36.400  1.00  0.00    -0.022 C 
HETATM   38  C19 UNL     1      39.246   2.098  36.683  1.00  0.00     0.017 C 
HETATM   39  C20 UNL     1      38.593  -0.144  36.172  1.00  0.00     0.017 C 
HETATM   40  C21 UNL     1      40.588   0.320  37.646  1.00  0.00     0.017 C 
ENDBRANCH   1  37
TORSDOF 10
ENDMDL
MODEL 4
REMARK VINA RESULT: -6.936006097      3.259      7.819
REMARK  10 active torsions:
REMARK  status: ('A' for Active; 'I' for Inactive)
REMARK    1  A    between atoms: N1_2  and  N2_4 
REMARK       I    between atoms: N2_4  and  C2_6 
REMARK       I    between atoms: C2_6  and  N3_7 
REMARK       I    between atoms: C2_6  and  N6_17 
REMARK    2  A    between atoms: N3_7  and  C3_9 
REMARK    3  A    between atoms: N6_17  and  C6_19 
REMARK    4  A    between atoms: C6_19  and  C7_20 
REMARK    5  A    between atoms: C6_19  and  C18_37 
REMARK       I    between atoms: C7_20  and  N7_22 
REMARK    6  A    between atoms: N7_22  and  C8_24 
REMARK    7  A    between atoms: C8_24  and  C9_25 
REMARK    8  A    between atoms: C8_24  and  C14_33 
REMARK    9  A    between atoms: C9_25  and  C10_26 
REMARK       I    between atoms: C10_26  and  N8_28 
REMARK   10  A    between atoms: N8_28  and  C11_30 
ROOT
HETATM    1  C6  UNL     1      40.714   0.722  35.253  1.00  0.00     0.199 C 
ENDROOT
BRANCH   1   2
HETATM    2  N6  UNL     1      42.126   0.831  35.635  1.00  0.00    -0.211 N 
HETATM    3  C2  UNL     1      42.867   2.035  35.613  1.00  0.00     0.694 C 
HETATM    4  N2  UNL     1      42.601   3.096  36.248  1.00  0.00    -0.137 N 
HETATM    5  N3  UNL     1      44.042   2.023  34.776  1.00  0.00    -0.174 N 
ATOM      6  H2  UNL     1      41.766   3.084  36.834  1.00  0.00     0.205 HD
ATOM      7  H3  UNL     1      44.024   2.405  33.830  1.00  0.00     0.186 HD
ATOM      8  H6  UNL     1      42.604  -0.018  35.935  1.00  0.00     0.178 HD
BRANCH   4   9
HETATM    9  N1  UNL     1      43.327   4.264  36.225  1.00  0.00    -0.327 N 
HETATM   10  C1  UNL     1      43.700   4.970  37.454  1.00  0.00     0.168 C 
ATOM     11  H1  UNL     1      43.615   4.651  35.326  1.00  0.00     0.180 HD
ENDBRANCH   4   9
BRANCH   5  12
HETATM   12  C3  UNL     1      45.135   1.500  35.281  1.00  0.00     0.138 A 
HETATM   13  C4  UNL     1      45.520   1.483  36.596  1.00  0.00     0.094 A 
HETATM   14  C5  UNL     1      46.733   0.833  36.688  1.00  0.00     0.121 A 
HETATM   15 CL1  UNL     1      47.718   0.500  38.105  1.00  0.00    -0.063 Cl
HETATM   16  N4  UNL     1      47.059   0.472  35.438  1.00  0.00    -0.288 N 
HETATM   17  N5  UNL     1      46.104   0.870  34.591  1.00  0.00    -0.284 N 
ATOM     18  H4  UNL     1      47.906  -0.029  35.173  1.00  0.00     0.188 HD
ATOM     19  H5  UNL     1      46.109   0.720  33.582  1.00  0.00     0.188 HD
ENDBRANCH   5  12
ENDBRANCH   1   2
BRANCH   1  20
HETATM   20  C7  UNL     1      40.542  -0.122  34.093  1.00  0.00     0.242 C 
HETATM   21  O1  UNL     1      41.283  -1.182  34.127  1.00  0.00    -0.271 OA
HETATM   22  N7  UNL     1      39.746  -0.024  32.962  1.00  0.00    -0.353 N 
ATOM     23  H7  UNL     1      39.133   0.788  32.890  1.00  0.00     0.163 HD
BRANCH  22  24
HETATM   24  C8  UNL     1      39.715  -0.987  31.869  1.00  0.00     0.100 C 
BRANCH  24  25
HETATM   25  C9  UNL     1      40.245  -0.311  30.630  1.00  0.00     0.128 C 
BRANCH  25  26
HETATM   26  C10 UNL     1      41.668  -0.622  30.345  1.00  0.00     0.219 C 
HETATM   27  O2  UNL     1      42.527  -0.162  31.130  1.00  0.00    -0.274 OA
HETATM   28  N8  UNL     1      42.087  -1.394  29.253  1.00  0.00    -0.356 N 
ATOM     29  H8  UNL     1      41.390  -1.770  28.610  1.00  0.00     0.162 HD
BRANCH  28  30
HETATM   30  C11 UNL     1      43.479  -1.667  29.022  1.00  0.00     0.084 A 
HETATM   31  C12 UNL     1      44.130  -1.050  27.835  1.00  0.00     0.027 A 
HETATM   32  C13 UNL     1      43.872  -2.537  27.850  1.00  0.00     0.027 A 
ENDBRANCH  28  30
ENDBRANCH  25  26
ENDBRANCH  24  25
BRANCH  24  33
HETATM   33  C14 UNL     1      38.298  -1.478  31.619  1.00  0.00    -0.030 C 
HETATM   34  C15 UNL     1      37.241  -0.461  31.901  1.00  0.00     0.016 C 
HETATM   35  C16 UNL     1      38.072  -2.752  32.436  1.00  0.00     0.016 C 
HETATM   36  C17 UNL     1      38.168  -1.901  30.169  1.00  0.00     0.016 C 
ENDBRANCH  24  33
ENDBRANCH  22  24
ENDBRANCH   1  20
BRANCH   1  37
HETATM   37  C18 UNL     1      39.919   0.487  36.477  1.00  0.00    -0.022 C 
HETATM   38  C19 UNL     1      40.914  -0.158  37.481  1.00  0.00     0.017 C 
HETATM   39  C20 UNL     1      39.525   1.766  37.194  1.00  0.00     0.017 C 
HETATM   40  C21 UNL     1      38.795  -0.498  36.348  1.00  0.00     0.017 C 
ENDBRANCH   1  37
TORSDOF 10
ENDMDL
MODEL 5
REMARK VINA RESULT: -6.915670626      2.037      3.395
REMARK  10 active torsions:
REMARK  status: ('A' for Active; 'I' for Inactive)
REMARK    1  A    between atoms: N1_2  and  N2_4 
REMARK       I    between atoms: N2_4  and  C2_6 
REMARK       I    between atoms: C2_6  and  N3_7 
REMARK       I    between atoms: C2_6  and  N6_17 
REMARK    2  A    between atoms: N3_7  and  C3_9 
REMARK    3  A    between atoms: N6_17  and  C6_19 
REMARK    4  A    between atoms: C6_19  and  C7_20 
REMARK    5  A    between atoms: C6_19  and  C18_37 
REMARK       I    between atoms: C7_20  and  N7_22 
REMARK    6  A    between atoms: N7_22  and  C8_24 
REMARK    7  A    between atoms: C8_24  and  C9_25 
REMARK    8  A    between atoms: C8_24  and  C14_33 
REMARK    9  A    between atoms: C9_25  and  C10_26 
REMARK       I    between atoms: C10_26  and  N8_28 
REMARK   10  A    between atoms: N8_28  and  C11_30 
ROOT
HETATM    1  C6  UNL     1      39.744  -2.178  31.198  1.00  0.00     0.199 C 
ENDROOT
BRANCH   1   2
HETATM    2  N6  UNL     1      40.715  -2.241  30.102  1.00  0.00    -0.211 N 
HETATM    3  C2  UNL     1      41.981  -2.867  30.192  1.00  0.00     0.694 C 
HETATM    4  N2  UNL     1      42.204  -4.079  30.477  1.00  0.00    -0.137 N 
HETATM    5  N3  UNL     1      43.113  -2.013  29.926  1.00  0.00    -0.174 N 
ATOM      6  H2  UNL     1      41.390  -4.665  30.662  1.00  0.00     0.205 HD
ATOM      7  H3  UNL     1      43.642  -1.581  30.683  1.00  0.00     0.186 HD
ATOM      8  H6  UNL     1      40.461  -1.805  29.215  1.00  0.00     0.178 HD
BRANCH   4   9
HETATM    9  N1  UNL     1      43.437  -4.683  30.561  1.00  0.00    -0.327 N 
HETATM   10  C1  UNL     1      43.668  -5.860  31.402  1.00  0.00     0.168 C 
ATOM     11  H1  UNL     1      44.214  -4.300  30.021  1.00  0.00     0.180 HD
ENDBRANCH   4   9
BRANCH   5  12
HETATM   12  C3  UNL     1      43.435  -1.816  28.668  1.00  0.00     0.138 A 
HETATM   13  C4  UNL     1      43.549  -2.758  27.680  1.00  0.00     0.094 A 
HETATM   14  C5  UNL     1      43.905  -2.122  26.509  1.00  0.00     0.121 A 
HETATM   15 CL1  UNL     1      44.194  -2.800  24.913  1.00  0.00    -0.063 Cl
HETATM   16  N4  UNL     1      44.000  -0.818  26.807  1.00  0.00    -0.288 N 
HETATM   17  N5  UNL     1      43.719  -0.630  28.100  1.00  0.00    -0.284 N 
ATOM     18  H4  UNL     1      44.248  -0.081  26.147  1.00  0.00     0.188 HD
ATOM     19  H5  UNL     1      43.719   0.271  28.580  1.00  0.00     0.188 HD
ENDBRANCH   5  12
ENDBRANCH   1   2
BRANCH   1  20
HETATM   20  C7  UNL     1      39.908  -0.975  31.982  1.00  0.00     0.242 C 
HETATM   21  O1  UNL     1      40.391   0.010  31.297  1.00  0.00    -0.271 OA
HETATM   22  N7  UNL     1      39.650  -0.670  33.310  1.00  0.00    -0.353 N 
ATOM     23  H7  UNL     1      39.257  -1.409  33.893  1.00  0.00     0.163 HD
BRANCH  22  24
HETATM   24  C8  UNL     1      39.895   0.622  33.939  1.00  0.00     0.100 C 
BRANCH  24  25
HETATM   25  C9  UNL     1      40.843   0.412  35.092  1.00  0.00     0.128 C 
BRANCH  25  26
HETATM   26  C10 UNL     1      42.230   0.865  34.811  1.00  0.00     0.219 C 
HETATM   27  O2  UNL     1      42.725   0.554  33.705  1.00  0.00    -0.274 OA
HETATM   28  N8  UNL     1      42.997   1.612  35.716  1.00  0.00    -0.356 N 
ATOM     29  H8  UNL     1      42.597   1.866  36.620  1.00  0.00     0.162 HD
BRANCH  28  30
HETATM   30  C11 UNL     1      44.335   2.025  35.396  1.00  0.00     0.084 A 
HETATM   31  C12 UNL     1      45.467   1.288  36.017  1.00  0.00     0.027 A 
HETATM   32  C13 UNL     1      45.170   2.698  36.461  1.00  0.00     0.027 A 
ENDBRANCH  28  30
ENDBRANCH  25  26
ENDBRANCH  24  25
BRANCH  24  33
HETATM   33  C14 UNL     1      38.598   1.233  34.446  1.00  0.00    -0.030 C 
HETATM   34  C15 UNL     1      38.788   2.416  35.338  1.00  0.00     0.016 C 
HETATM   35  C16 UNL     1      37.784   0.140  35.143  1.00  0.00     0.016 C 
HETATM   36  C17 UNL     1      37.758   1.666  33.261  1.00  0.00     0.016 C 
ENDBRANCH  24  33
ENDBRANCH  22  24
ENDBRANCH   1  20
BRANCH   1  37
HETATM   37  C18 UNL     1      38.417  -2.552  30.666  1.00  0.00    -0.022 C 
HETATM   38  C19 UNL     1      37.893  -3.647  31.637  1.00  0.00     0.017 C 
HETATM   39  C20 UNL     1      37.375  -1.460  30.823  1.00  0.00     0.017 C 
HETATM   40  C21 UNL     1      38.412  -3.194  29.311  1.00  0.00     0.017 C 
ENDBRANCH   1  37
TORSDOF 10
ENDMDL
