MODEL 1
REMARK VINA RESULT: -6.220546813      0.000      0.000
REMARK  5 active torsions:
REMARK  status: ('A' for Active; 'I' for Inactive)
REMARK       I    between atoms: C1_2  and  N1_3 
REMARK       I    between atoms: C1_2  and  N4_16 
REMARK    1  A    between atoms: N1_3  and  N2_5 
REMARK    2  A    between atoms: N2_5  and  C2_7 
REMARK    3  A    between atoms: C2_7  and  N3_9 
REMARK       I    between atoms: N3_9  and  C3_11 
REMARK    4  A    between atoms: C3_11  and  C4_13 
REMARK    5  A    between atoms: N4_16  and  C7_18 
ROOT
HETATM    1  N2  UNL     1      42.520  -0.363  30.659  1.00  0.00    -0.272 N 
ATOM      2  H2  UNL     1      42.944   0.514  30.357  1.00  0.00     0.189 HD
ENDROOT
BRANCH   1   3
HETATM    3  N1  UNL     1      42.345  -1.272  29.642  1.00  0.00    -0.249 N 
HETATM    4  C1  UNL     1      43.400  -1.571  28.729  1.00  0.00     0.335 C 
HETATM    5  O1  UNL     1      44.516  -0.996  28.852  1.00  0.00    -0.246 OA
HETATM    6  N4  UNL     1      43.207  -2.498  27.703  1.00  0.00    -0.337 N 
ATOM      7  H4  UNL     1      42.298  -2.954  27.618  1.00  0.00     0.164 HD
ATOM      8  H1  UNL     1      41.445  -1.741  29.538  1.00  0.00     0.192 HD
BRANCH   6   9
HETATM    9  C7  UNL     1      44.258  -2.839  26.746  1.00  0.00     0.086 C 
HETATM   10  C8  UNL     1      43.834  -4.020  25.882  1.00  0.00     0.025 C 
HETATM   11  C9  UNL     1      44.185  -3.222  24.644  1.00  0.00     0.004 C 
HETATM   12  C10 UNL     1      44.333  -1.976  25.528  1.00  0.00     0.025 C 
ENDBRANCH   6   9
ENDBRANCH   1   3
BRANCH   1  13
HETATM   13  C2  UNL     1      42.237  -0.404  31.991  1.00  0.00     0.193 C 
HETATM   14  S1  UNL     1      40.557  -0.428  32.322  1.00  0.00    -0.039 SA
BRANCH  13  15
HETATM   15  N3  UNL     1      43.038  -0.427  33.106  1.00  0.00    -0.302 N 
HETATM   16  C3  UNL     1      44.402  -0.211  33.296  1.00  0.00     0.228 C 
HETATM   17  O2  UNL     1      45.238   0.069  32.421  1.00  0.00    -0.273 OA
ATOM     18  H3  UNL     1      42.535  -0.647  33.966  1.00  0.00     0.171 HD
BRANCH  16  19
HETATM   19  C4  UNL     1      44.986  -0.314  34.688  1.00  0.00     0.078 A 
HETATM   20  C5  UNL     1      46.325   0.229  34.971  1.00  0.00     0.015 A 
HETATM   21  C6  UNL     1      45.126   1.032  35.356  1.00  0.00     0.015 A 
ENDBRANCH  16  19
ENDBRANCH  13  15
ENDBRANCH   1  13
TORSDOF 5
ENDMDL
MODEL 2
REMARK VINA RESULT: -6.041693676      0.991      1.172
REMARK  5 active torsions:
REMARK  status: ('A' for Active; 'I' for Inactive)
REMARK       I    between atoms: C1_2  and  N1_3 
REMARK       I    between atoms: C1_2  and  N4_16 
REMARK    1  A    between atoms: N1_3  and  N2_5 
REMARK    2  A    between atoms: N2_5  and  C2_7 
REMARK    3  A    between atoms: C2_7  and  N3_9 
REMARK       I    between atoms: N3_9  and  C3_11 
REMARK    4  A    between atoms: C3_11  and  C4_13 
REMARK    5  A    between atoms: N4_16  and  C7_18 
ROOT
HETATM    1  N2  UNL     1      42.394  -0.395  30.964  1.00  0.00    -0.272 N 
ATOM      2  H2  UNL     1      42.122   0.574  30.797  1.00  0.00     0.189 HD
ENDROOT
BRANCH   1   3
HETATM    3  N1  UNL     1      42.222  -1.214  29.873  1.00  0.00    -0.249 N 
HETATM    4  C1  UNL     1      43.310  -1.517  29.000  1.00  0.00     0.335 C 
HETATM    5  O1  UNL     1      44.450  -1.030  29.227  1.00  0.00    -0.246 OA
HETATM    6  N4  UNL     1      43.120  -2.352  27.897  1.00  0.00    -0.337 N 
ATOM      7  H4  UNL     1      42.190  -2.738  27.727  1.00  0.00     0.164 HD
ATOM      8  H1  UNL     1      41.302  -1.612  29.684  1.00  0.00     0.192 HD
BRANCH   6   9
HETATM    9  C7  UNL     1      44.202  -2.694  26.977  1.00  0.00     0.086 C 
HETATM   10  C8  UNL     1      43.821  -3.897  26.123  1.00  0.00     0.025 C 
HETATM   11  C9  UNL     1      44.194  -3.117  24.880  1.00  0.00     0.004 C 
HETATM   12  C10 UNL     1      44.298  -1.853  25.744  1.00  0.00     0.025 C 
ENDBRANCH   6   9
ENDBRANCH   1   3
BRANCH   1  13
HETATM   13  C2  UNL     1      42.856  -0.625  32.226  1.00  0.00     0.193 C 
HETATM   14  S1  UNL     1      42.729  -2.265  32.701  1.00  0.00    -0.039 SA
BRANCH  13  15
HETATM   15  N3  UNL     1      43.394   0.205  33.178  1.00  0.00    -0.302 N 
HETATM   16  C3  UNL     1      44.686   0.680  33.398  1.00  0.00     0.228 C 
HETATM   17  O2  UNL     1      45.696   0.426  32.720  1.00  0.00    -0.273 OA
ATOM     18  H3  UNL     1      42.714   0.540  33.861  1.00  0.00     0.171 HD
BRANCH  16  19
HETATM   19  C4  UNL     1      44.952   1.603  34.567  1.00  0.00     0.078 A 
HETATM   20  C5  UNL     1      43.995   1.680  35.683  1.00  0.00     0.015 A 
HETATM   21  C6  UNL     1      45.227   0.851  35.845  1.00  0.00     0.015 A 
ENDBRANCH  16  19
ENDBRANCH  13  15
ENDBRANCH   1  13
TORSDOF 5
ENDMDL
MODEL 3
REMARK VINA RESULT: -5.960005772      1.301      7.644
REMARK  5 active torsions:
REMARK  status: ('A' for Active; 'I' for Inactive)
REMARK       I    between atoms: C1_2  and  N1_3 
REMARK       I    between atoms: C1_2  and  N4_16 
REMARK    1  A    between atoms: N1_3  and  N2_5 
REMARK    2  A    between atoms: N2_5  and  C2_7 
REMARK    3  A    between atoms: C2_7  and  N3_9 
REMARK       I    between atoms: N3_9  and  C3_11 
REMARK    4  A    between atoms: C3_11  and  C4_13 
REMARK    5  A    between atoms: N4_16  and  C7_18 
ROOT
HETATM    1  N2  UNL     1      43.275  -0.745  31.437  1.00  0.00    -0.272 N 
ATOM      2  H2  UNL     1      44.186  -1.190  31.327  1.00  0.00     0.189 HD
ENDROOT
BRANCH   1   3
HETATM    3  N1  UNL     1      43.135  -0.059  32.621  1.00  0.00    -0.249 N 
HETATM    4  C1  UNL     1      44.268   0.481  33.300  1.00  0.00     0.335 C 
HETATM    5  O1  UNL     1      45.421   0.330  32.812  1.00  0.00    -0.246 OA
HETATM    6  N4  UNL     1      44.109   1.177  34.500  1.00  0.00    -0.337 N 
ATOM      7  H4  UNL     1      43.169   1.289  34.881  1.00  0.00     0.164 HD
ATOM      8  H1  UNL     1      42.205   0.067  33.020  1.00  0.00     0.192 HD
BRANCH   6   9
HETATM    9  C7  UNL     1      45.238   1.749  35.231  1.00  0.00     0.086 C 
HETATM   10  C8  UNL     1      44.755   2.787  36.236  1.00  0.00     0.025 C 
HETATM   11  C9  UNL     1      45.545   2.084  37.320  1.00  0.00     0.004 C 
HETATM   12  C10 UNL     1      45.776   0.918  36.350  1.00  0.00     0.025 C 
ENDBRANCH   6   9
ENDBRANCH   1   3
BRANCH   1  13
HETATM   13  C2  UNL     1      42.436  -0.946  30.383  1.00  0.00     0.193 C 
HETATM   14  S1  UNL     1      40.782  -0.801  30.802  1.00  0.00    -0.039 SA
BRANCH  13  15
HETATM   15  N3  UNL     1      42.665  -1.243  29.062  1.00  0.00    -0.302 N 
HETATM   16  C3  UNL     1      43.779  -1.092  28.238  1.00  0.00     0.228 C 
HETATM   17  O2  UNL     1      44.881  -0.617  28.558  1.00  0.00    -0.273 OA
ATOM     18  H3  UNL     1      41.860  -1.656  28.590  1.00  0.00     0.171 HD
BRANCH  16  19
HETATM   19  C4  UNL     1      43.701  -1.531  26.792  1.00  0.00     0.078 A 
HETATM   20  C5  UNL     1      44.933  -1.816  26.037  1.00  0.00     0.015 A 
HETATM   21  C6  UNL     1      44.151  -2.958  26.598  1.00  0.00     0.015 A 
ENDBRANCH  16  19
ENDBRANCH  13  15
ENDBRANCH   1  13
TORSDOF 5
ENDMDL
MODEL 4
REMARK VINA RESULT: -5.930074568      1.026      1.209
REMARK  5 active torsions:
REMARK  status: ('A' for Active; 'I' for Inactive)
REMARK       I    between atoms: C1_2  and  N1_3 
REMARK       I    between atoms: C1_2  and  N4_16 
REMARK    1  A    between atoms: N1_3  and  N2_5 
REMARK    2  A    between atoms: N2_5  and  C2_7 
REMARK    3  A    between atoms: C2_7  and  N3_9 
REMARK       I    between atoms: N3_9  and  C3_11 
REMARK    4  A    between atoms: C3_11  and  C4_13 
REMARK    5  A    between atoms: N4_16  and  C7_18 
ROOT
HETATM    1  N2  UNL     1      42.039  -0.979  31.652  1.00  0.00    -0.272 N 
ATOM      2  H2  UNL     1      41.671  -1.922  31.775  1.00  0.00     0.189 HD
ENDROOT
BRANCH   1   3
HETATM    3  N1  UNL     1      42.317  -0.660  30.343  1.00  0.00    -0.249 N 
HETATM    4  C1  UNL     1      43.214  -1.452  29.565  1.00  0.00     0.335 C 
HETATM    5  O1  UNL     1      43.764  -2.463  30.080  1.00  0.00    -0.246 OA
HETATM    6  N4  UNL     1      43.484  -1.116  28.237  1.00  0.00    -0.337 N 
ATOM      7  H4  UNL     1      43.030  -0.295  27.836  1.00  0.00     0.164 HD
ATOM      8  H1  UNL     1      41.874   0.156  29.921  1.00  0.00     0.192 HD
BRANCH   6   9
HETATM    9  C7  UNL     1      44.393  -1.897  27.400  1.00  0.00     0.086 C 
HETATM   10  C8  UNL     1      43.746  -3.216  26.993  1.00  0.00     0.025 C 
HETATM   11  C9  UNL     1      44.081  -2.917  25.546  1.00  0.00     0.004 C 
HETATM   12  C10 UNL     1      44.464  -1.491  25.963  1.00  0.00     0.025 C 
ENDBRANCH   6   9
ENDBRANCH   1   3
BRANCH   1  13
HETATM   13  C2  UNL     1      42.159  -0.281  32.816  1.00  0.00     0.193 C 
HETATM   14  S1  UNL     1      40.664  -0.046  33.616  1.00  0.00    -0.039 SA
BRANCH  13  15
HETATM   15  N3  UNL     1      43.242   0.264  33.459  1.00  0.00    -0.302 N 
HETATM   16  C3  UNL     1      44.599   0.324  33.144  1.00  0.00     0.228 C 
HETATM   17  O2  UNL     1      45.147  -0.146  32.134  1.00  0.00    -0.273 OA
ATOM     18  H3  UNL     1      43.008   0.716  34.343  1.00  0.00     0.171 HD
BRANCH  16  19
HETATM   19  C4  UNL     1      45.554   1.017  34.091  1.00  0.00     0.078 A 
HETATM   20  C5  UNL     1      45.159   1.274  35.486  1.00  0.00     0.015 A 
HETATM   21  C6  UNL     1      46.041   0.106  35.190  1.00  0.00     0.015 A 
ENDBRANCH  16  19
ENDBRANCH  13  15
ENDBRANCH   1  13
TORSDOF 5
ENDMDL
MODEL 5
REMARK VINA RESULT: -5.891861321      2.687      3.997
REMARK  5 active torsions:
REMARK  status: ('A' for Active; 'I' for Inactive)
REMARK       I    between atoms: C1_2  and  N1_3 
REMARK       I    between atoms: C1_2  and  N4_16 
REMARK    1  A    between atoms: N1_3  and  N2_5 
REMARK    2  A    between atoms: N2_5  and  C2_7 
REMARK    3  A    between atoms: C2_7  and  N3_9 
REMARK       I    between atoms: N3_9  and  C3_11 
REMARK    4  A    between atoms: C3_11  and  C4_13 
REMARK    5  A    between atoms: N4_16  and  C7_18 
ROOT
HETATM    1  N2  UNL     1      42.634  -0.451  31.168  1.00  0.00    -0.272 N 
ATOM      2  H2  UNL     1      43.440   0.011  31.588  1.00  0.00     0.189 HD
ENDROOT
BRANCH   1   3
HETATM    3  N1  UNL     1      42.680  -0.502  29.794  1.00  0.00    -0.249 N 
HETATM    4  C1  UNL     1      43.493  -1.460  29.118  1.00  0.00     0.335 C 
HETATM    5  O1  UNL     1      44.183  -2.278  29.785  1.00  0.00    -0.246 OA
HETATM    6  N4  UNL     1      43.527  -1.500  27.722  1.00  0.00    -0.337 N 
ATOM      7  H4  UNL     1      42.962  -0.832  27.198  1.00  0.00     0.164 HD
ATOM      8  H1  UNL     1      42.123   0.156  29.249  1.00  0.00     0.192 HD
BRANCH   6   9
HETATM    9  C7  UNL     1      44.342  -2.465  26.986  1.00  0.00     0.086 C 
HETATM   10  C8  UNL     1      43.614  -3.798  26.862  1.00  0.00     0.025 C 
HETATM   11  C9  UNL     1      43.859  -3.777  25.368  1.00  0.00     0.004 C 
HETATM   12  C10 UNL     1      44.330  -2.322  25.497  1.00  0.00     0.025 C 
ENDBRANCH   6   9
ENDBRANCH   1   3
BRANCH   1  13
HETATM   13  C2  UNL     1      41.722  -0.897  32.077  1.00  0.00     0.193 C 
HETATM   14  S1  UNL     1      42.359  -2.070  33.149  1.00  0.00    -0.039 SA
BRANCH  13  15
HETATM   15  N3  UNL     1      40.401  -0.587  32.289  1.00  0.00    -0.302 N 
HETATM   16  C3  UNL     1      39.497   0.224  31.605  1.00  0.00     0.228 C 
HETATM   17  O2  UNL     1      39.724   0.886  30.579  1.00  0.00    -0.273 OA
ATOM     18  H3  UNL     1      40.003  -1.039  33.112  1.00  0.00     0.171 HD
BRANCH  16  19
HETATM   19  C4  UNL     1      38.078   0.354  32.114  1.00  0.00     0.078 A 
HETATM   20  C5  UNL     1      37.788   0.187  33.548  1.00  0.00     0.015 A 
HETATM   21  C6  UNL     1      37.888   1.568  32.988  1.00  0.00     0.015 A 
ENDBRANCH  16  19
ENDBRANCH  13  15
ENDBRANCH   1  13
TORSDOF 5
ENDMDL
