MODEL 1
REMARK VINA RESULT: -5.885805204      0.000      0.000
REMARK  5 active torsions:
REMARK  status: ('A' for Active; 'I' for Inactive)
REMARK       I    between atoms: C1_2  and  N1_3 
REMARK       I    between atoms: C1_2  and  N5_16 
REMARK    1  A    between atoms: N1_3  and  N2_5 
REMARK    2  A    between atoms: N2_5  and  C2_7 
REMARK    3  A    between atoms: C2_7  and  N3_9 
REMARK    4  A    between atoms: N3_9  and  N4_11 
REMARK    5  A    between atoms: N5_16  and  C7_17 
ROOT
HETATM    1  N2  UNL     1      43.738  -0.734  31.534  1.00  0.00    -0.270 N 
ATOM      2  H2  UNL     1      44.703  -0.968  31.301  1.00  0.00     0.189 HD
ENDROOT
BRANCH   1   3
HETATM    3  N1  UNL     1      43.421  -0.047  32.699  1.00  0.00    -0.237 N 
HETATM    4  C1  UNL     1      44.486   0.650  33.426  1.00  0.00     0.407 C 
HETATM    5  O1  UNL     1      45.605   0.538  32.806  1.00  0.00    -0.229 OA
HETATM    6  N5  UNL     1      44.229   1.279  34.572  1.00  0.00    -0.390 NA
ATOM      7  H1  UNL     1      42.461  -0.028  33.043  1.00  0.00     0.193 HD
BRANCH   6   8
HETATM    8  C7  UNL     1      43.957   1.943  35.782  1.00  0.00     0.169 A 
HETATM    9  C8  UNL     1      43.891   3.453  35.872  1.00  0.00     0.043 A 
HETATM   10  C9  UNL     1      45.042   2.728  36.472  1.00  0.00     0.043 A 
ENDBRANCH   6   8
ENDBRANCH   1   3
BRANCH   1  11
HETATM   11  C2  UNL     1      42.668  -1.095  30.688  1.00  0.00     0.205 C 
HETATM   12  S1  UNL     1      41.380  -1.877  31.298  1.00  0.00    -0.038 SA
BRANCH  11  13
HETATM   13  N3  UNL     1      42.697  -0.757  29.314  1.00  0.00    -0.277 N 
ATOM     14  H3  UNL     1      42.130   0.030  28.998  1.00  0.00     0.189 HD
BRANCH  13  15
HETATM   15  N4  UNL     1      43.420  -1.409  28.416  1.00  0.00    -0.326 N 
HETATM   16  C3  UNL     1      43.695  -2.795  28.568  1.00  0.00     0.142 C 
HETATM   17  C4  UNL     1      43.779  -3.215  27.086  1.00  0.00     0.023 C 
HETATM   18  C5  UNL     1      44.460  -2.017  26.489  1.00  0.00     0.023 C 
HETATM   19  C6  UNL     1      44.343  -0.892  27.533  1.00  0.00     0.142 C 
ENDBRANCH  13  15
ENDBRANCH  11  13
ENDBRANCH   1  11
TORSDOF 5
ENDMDL
MODEL 2
REMARK VINA RESULT: -5.865644267      3.924      5.841
REMARK  5 active torsions:
REMARK  status: ('A' for Active; 'I' for Inactive)
REMARK       I    between atoms: C1_2  and  N1_3 
REMARK       I    between atoms: C1_2  and  N5_16 
REMARK    1  A    between atoms: N1_3  and  N2_5 
REMARK    2  A    between atoms: N2_5  and  C2_7 
REMARK    3  A    between atoms: C2_7  and  N3_9 
REMARK    4  A    between atoms: N3_9  and  N4_11 
REMARK    5  A    between atoms: N5_16  and  C7_17 
ROOT
HETATM    1  N2  UNL     1      41.993  -0.385  30.049  1.00  0.00    -0.270 N 
ATOM      2  H2  UNL     1      42.043   0.628  29.942  1.00  0.00     0.189 HD
ENDROOT
BRANCH   1   3
HETATM    3  N1  UNL     1      40.802  -1.075  29.862  1.00  0.00    -0.237 N 
HETATM    4  C1  UNL     1      39.587  -0.591  30.525  1.00  0.00     0.407 C 
HETATM    5  O1  UNL     1      39.829   0.485  31.183  1.00  0.00    -0.229 OA
HETATM    6  N5  UNL     1      38.438  -1.254  30.408  1.00  0.00    -0.390 NA
ATOM      7  H1  UNL     1      40.773  -1.906  29.271  1.00  0.00     0.193 HD
BRANCH   6   8
HETATM    8  C7  UNL     1      37.224  -1.954  30.283  1.00  0.00     0.169 A 
HETATM    9  C8  UNL     1      36.997  -2.980  29.192  1.00  0.00     0.043 A 
HETATM   10  C9  UNL     1      36.302  -1.667  29.127  1.00  0.00     0.043 A 
ENDBRANCH   6   8
ENDBRANCH   1   3
BRANCH   1  11
HETATM   11  C2  UNL     1      43.130  -1.145  30.395  1.00  0.00     0.205 C 
HETATM   12  S1  UNL     1      43.233  -1.828  31.866  1.00  0.00    -0.038 SA
BRANCH  11  13
HETATM   13  N3  UNL     1      44.173  -1.340  29.458  1.00  0.00    -0.277 N 
ATOM     14  H3  UNL     1      45.109  -1.015  29.702  1.00  0.00     0.189 HD
BRANCH  13  15
HETATM   15  N4  UNL     1      43.999  -1.920  28.280  1.00  0.00    -0.326 N 
HETATM   16  C3  UNL     1      44.056  -1.164  27.079  1.00  0.00     0.142 C 
HETATM   17  C4  UNL     1      44.601  -2.237  26.113  1.00  0.00     0.023 C 
HETATM   18  C5  UNL     1      43.882  -3.458  26.612  1.00  0.00     0.023 C 
HETATM   19  C6  UNL     1      43.337  -3.097  28.005  1.00  0.00     0.142 C 
ENDBRANCH  13  15
ENDBRANCH  11  13
ENDBRANCH   1  11
TORSDOF 5
ENDMDL
MODEL 3
REMARK VINA RESULT: -5.782627467      2.335      2.822
REMARK  5 active torsions:
REMARK  status: ('A' for Active; 'I' for Inactive)
REMARK       I    between atoms: C1_2  and  N1_3 
REMARK       I    between atoms: C1_2  and  N5_16 
REMARK    1  A    between atoms: N1_3  and  N2_5 
REMARK    2  A    between atoms: N2_5  and  C2_7 
REMARK    3  A    between atoms: C2_7  and  N3_9 
REMARK    4  A    between atoms: N3_9  and  N4_11 
REMARK    5  A    between atoms: N5_16  and  C7_17 
ROOT
HETATM    1  N2  UNL     1      41.665  -2.680  30.462  1.00  0.00    -0.270 N 
ATOM      2  H2  UNL     1      40.707  -2.441  30.210  1.00  0.00     0.189 HD
ENDROOT
BRANCH   1   3
HETATM    3  N1  UNL     1      42.301  -2.084  31.544  1.00  0.00    -0.237 N 
HETATM    4  C1  UNL     1      42.544  -0.637  31.517  1.00  0.00     0.407 C 
HETATM    5  O1  UNL     1      42.064  -0.118  30.446  1.00  0.00    -0.229 OA
HETATM    6  N5  UNL     1      43.192  -0.039  32.515  1.00  0.00    -0.390 NA
ATOM      7  H1  UNL     1      42.593  -2.643  32.345  1.00  0.00     0.193 HD
BRANCH   6   8
HETATM    8  C7  UNL     1      43.877   0.594  33.568  1.00  0.00     0.169 A 
HETATM    9  C8  UNL     1      45.367   0.863  33.510  1.00  0.00     0.043 A 
HETATM   10  C9  UNL     1      44.843  -0.190  34.419  1.00  0.00     0.043 A 
ENDBRANCH   6   8
ENDBRANCH   1   3
BRANCH   1  11
HETATM   11  C2  UNL     1      42.405  -3.629  29.725  1.00  0.00     0.205 C 
HETATM   12  S1  UNL     1      43.308  -4.735  30.503  1.00  0.00    -0.038 SA
BRANCH  11  13
HETATM   13  N3  UNL     1      42.345  -3.643  28.311  1.00  0.00    -0.277 N 
ATOM     14  H3  UNL     1      41.545  -4.093  27.866  1.00  0.00     0.189 HD
BRANCH  13  15
HETATM   15  N4  UNL     1      43.273  -3.104  27.535  1.00  0.00    -0.326 N 
HETATM   16  C3  UNL     1      43.931  -3.877  26.541  1.00  0.00     0.142 C 
HETATM   17  C4  UNL     1      44.211  -2.780  25.492  1.00  0.00     0.023 C 
HETATM   18  C5  UNL     1      44.543  -1.616  26.380  1.00  0.00     0.023 C 
HETATM   19  C6  UNL     1      44.049  -1.995  27.788  1.00  0.00     0.142 C 
ENDBRANCH  13  15
ENDBRANCH  11  13
ENDBRANCH   1  11
TORSDOF 5
ENDMDL
MODEL 4
REMARK VINA RESULT: -5.627646583      3.529      4.095
REMARK  5 active torsions:
REMARK  status: ('A' for Active; 'I' for Inactive)
REMARK       I    between atoms: C1_2  and  N1_3 
REMARK       I    between atoms: C1_2  and  N5_16 
REMARK    1  A    between atoms: N1_3  and  N2_5 
REMARK    2  A    between atoms: N2_5  and  C2_7 
REMARK    3  A    between atoms: C2_7  and  N3_9 
REMARK    4  A    between atoms: N3_9  and  N4_11 
REMARK    5  A    between atoms: N5_16  and  C7_17 
ROOT
HETATM    1  N2  UNL     1      42.421  -0.634  29.650  1.00  0.00    -0.270 N 
ATOM      2  H2  UNL     1      43.105   0.119  29.581  1.00  0.00     0.189 HD
ENDROOT
BRANCH   1   3
HETATM    3  N1  UNL     1      41.175  -0.430  30.230  1.00  0.00    -0.237 N 
HETATM    4  C1  UNL     1      41.097  -0.162  31.670  1.00  0.00     0.407 C 
HETATM    5  O1  UNL     1      42.271  -0.118  32.187  1.00  0.00    -0.229 OA
HETATM    6  N5  UNL     1      39.917  -0.009  32.270  1.00  0.00    -0.390 NA
ATOM      7  H1  UNL     1      40.328  -0.465  29.663  1.00  0.00     0.193 HD
BRANCH   6   8
HETATM    8  C7  UNL     1      38.672   0.152  32.903  1.00  0.00     0.169 A 
HETATM    9  C8  UNL     1      37.382   0.277  32.119  1.00  0.00     0.043 A 
HETATM   10  C9  UNL     1      37.943   1.468  32.811  1.00  0.00     0.043 A 
ENDBRANCH   6   8
ENDBRANCH   1   3
BRANCH   1  11
HETATM   11  C2  UNL     1      42.698  -1.927  29.160  1.00  0.00     0.205 C 
HETATM   12  S1  UNL     1      41.536  -3.064  29.167  1.00  0.00    -0.038 SA
BRANCH  11  13
HETATM   13  N3  UNL     1      43.977  -2.236  28.636  1.00  0.00    -0.277 N 
ATOM     14  H3  UNL     1      44.777  -2.209  29.269  1.00  0.00     0.189 HD
BRANCH  13  15
HETATM   15  N4  UNL     1      44.189  -2.557  27.369  1.00  0.00    -0.326 N 
HETATM   16  C3  UNL     1      44.325  -3.916  26.975  1.00  0.00     0.142 C 
HETATM   17  C4  UNL     1      43.752  -3.837  25.544  1.00  0.00     0.023 C 
HETATM   18  C5  UNL     1      44.281  -2.503  25.100  1.00  0.00     0.023 C 
HETATM   19  C6  UNL     1      44.737  -1.775  26.376  1.00  0.00     0.142 C 
ENDBRANCH  13  15
ENDBRANCH  11  13
ENDBRANCH   1  11
TORSDOF 5
ENDMDL
MODEL 5
REMARK VINA RESULT: -5.602958262      3.812      4.183
REMARK  5 active torsions:
REMARK  status: ('A' for Active; 'I' for Inactive)
REMARK       I    between atoms: C1_2  and  N1_3 
REMARK       I    between atoms: C1_2  and  N5_16 
REMARK    1  A    between atoms: N1_3  and  N2_5 
REMARK    2  A    between atoms: N2_5  and  C2_7 
REMARK    3  A    between atoms: C2_7  and  N3_9 
REMARK    4  A    between atoms: N3_9  and  N4_11 
REMARK    5  A    between atoms: N5_16  and  C7_17 
ROOT
HETATM    1  N2  UNL     1      42.750  -2.648  30.869  1.00  0.00    -0.270 N 
ATOM      2  H2  UNL     1      43.533  -2.395  31.472  1.00  0.00     0.189 HD
ENDROOT
BRANCH   1   3
HETATM    3  N1  UNL     1      41.515  -2.023  30.984  1.00  0.00    -0.237 N 
HETATM    4  C1  UNL     1      41.465  -0.561  31.089  1.00  0.00     0.407 C 
HETATM    5  O1  UNL     1      42.645  -0.061  31.013  1.00  0.00    -0.229 OA
HETATM    6  N5  UNL     1      40.303   0.070  31.250  1.00  0.00    -0.390 NA
ATOM      7  H1  UNL     1      40.656  -2.572  30.995  1.00  0.00     0.193 HD
BRANCH   6   8
HETATM    8  C7  UNL     1      39.075   0.736  31.419  1.00  0.00     0.169 A 
HETATM    9  C8  UNL     1      38.541   1.100  32.788  1.00  0.00     0.043 A 
HETATM   10  C9  UNL     1      37.897   0.008  32.012  1.00  0.00     0.043 A 
ENDBRANCH   6   8
ENDBRANCH   1   3
BRANCH   1  11
HETATM   11  C2  UNL     1      42.875  -3.649  29.882  1.00  0.00     0.205 C 
HETATM   12  S1  UNL     1      43.400  -5.132  30.293  1.00  0.00    -0.038 SA
BRANCH  11  13
HETATM   13  N3  UNL     1      42.522  -3.378  28.539  1.00  0.00    -0.277 N 
ATOM     14  H3  UNL     1      41.558  -3.545  28.250  1.00  0.00     0.189 HD
BRANCH  13  15
HETATM   15  N4  UNL     1      43.376  -2.920  27.636  1.00  0.00    -0.326 N 
HETATM   16  C3  UNL     1      43.997  -3.798  26.708  1.00  0.00     0.142 C 
HETATM   17  C4  UNL     1      44.166  -2.842  25.508  1.00  0.00     0.023 C 
HETATM   18  C5  UNL     1      44.512  -1.562  26.213  1.00  0.00     0.023 C 
HETATM   19  C6  UNL     1      44.126  -1.765  27.689  1.00  0.00     0.142 C 
ENDBRANCH  13  15
ENDBRANCH  11  13
ENDBRANCH   1  11
TORSDOF 5
ENDMDL
