MODEL 1
REMARK VINA RESULT: -5.872717172      0.000      0.000
REMARK  2 active torsions:
REMARK  status: ('A' for Active; 'I' for Inactive)
REMARK    1  A    between atoms: C2_2  and  N1_3 
REMARK       I    between atoms: N1_3  and  C3_5 
REMARK       I    between atoms: C3_5  and  N3_9 
REMARK       I    between atoms: N3_9  and  C5_11 
REMARK       I    between atoms: C5_11  and  N5_15 
REMARK    2  A    between atoms: N5_15  and  C6_17 
ROOT
HETATM    1  N1  UNL     1      43.724  -2.568  27.231  1.00  0.00    -0.226 N 
ATOM      2  H1  UNL     1      43.693  -1.594  26.929  1.00  0.00     0.177 HD
HETATM    3  C3  UNL     1      43.286  -2.919  28.538  1.00  0.00     0.688 C 
HETATM    4  N2  UNL     1      42.458  -2.135  29.135  1.00  0.00    -0.230 N 
ATOM      5  H2  UNL     1      42.148  -1.294  28.648  1.00  0.00     0.177 HD
HETATM    6  C4  UNL     1      41.948  -2.392  30.461  1.00  0.00     0.165 C 
HETATM    7  N3  UNL     1      43.765  -4.103  29.138  1.00  0.00    -0.023 N 
ATOM      8  H3  UNL     1      44.733  -4.117  29.459  1.00  0.00     0.203 HD
HETATM    9  C5  UNL     1      42.987  -5.278  29.324  1.00  0.00     0.686 C 
HETATM   10  N4  UNL     1      42.061  -5.636  28.527  1.00  0.00    -0.234 N 
ATOM     11  H41 UNL     1      41.502  -6.479  28.660  1.00  0.00     0.174 HD
ATOM     12  H42 UNL     1      41.863  -5.057  27.712  1.00  0.00     0.174 HD
HETATM   13  N5  UNL     1      43.262  -6.083  30.457  1.00  0.00    -0.221 N 
ATOM     14  H5  UNL     1      42.704  -5.991  31.306  1.00  0.00     0.178 HD
ENDROOT
BRANCH  13  15
HETATM   15  C6  UNL     1      44.362  -7.052  30.391  1.00  0.00     0.103 C 
HETATM   16  C7  UNL     1      45.296  -6.860  31.522  1.00  0.00     0.031 C 
HETATM   17  C8  UNL     1      45.932  -8.053  32.086  1.00  0.00    -0.006 C 
HETATM   18  C9  UNL     1      45.244  -8.458  33.399  1.00  0.00     0.026 C 
HETATM   19  C14 UNL     1      45.561  -9.368  31.547  1.00  0.00     0.009 C 
HETATM   20  C10 UNL     1      44.390  -9.394  32.538  1.00  0.00     0.023 C 
HETATM   21 BR1  UNL     1      44.053 -11.080  33.348  1.00  0.00    -0.085 Br
HETATM   22  C11 UNL     1      43.268  -8.739  31.813  1.00  0.00     0.028 C 
HETATM   23  C12 UNL     1      43.751  -8.435  30.402  1.00  0.00     0.011 C 
HETATM   24  C13 UNL     1      44.943  -9.379  30.194  1.00  0.00     0.013 C 
ENDBRANCH  13  15
BRANCH   1  25
HETATM   25  C2  UNL     1      44.210  -3.578  26.333  1.00  0.00     0.133 C 
HETATM   26  C1  UNL     1      44.475  -3.011  24.980  1.00  0.00     0.027 C 
ENDBRANCH   1  25
TORSDOF 2
ENDMDL
MODEL 2
REMARK VINA RESULT: -5.860249592      1.424      1.518
REMARK  2 active torsions:
REMARK  status: ('A' for Active; 'I' for Inactive)
REMARK    1  A    between atoms: C2_2  and  N1_3 
REMARK       I    between atoms: N1_3  and  C3_5 
REMARK       I    between atoms: C3_5  and  N3_9 
REMARK       I    between atoms: N3_9  and  C5_11 
REMARK       I    between atoms: C5_11  and  N5_15 
REMARK    2  A    between atoms: N5_15  and  C6_17 
ROOT
HETATM    1  N1  UNL     1      44.047  -0.998  28.187  1.00  0.00    -0.226 N 
ATOM      2  H1  UNL     1      44.226   0.005  28.133  1.00  0.00     0.177 HD
HETATM    3  C3  UNL     1      43.376  -1.536  29.321  1.00  0.00     0.688 C 
HETATM    4  N2  UNL     1      42.619  -0.756  30.009  1.00  0.00    -0.230 N 
ATOM      5  H2  UNL     1      42.528   0.217  29.716  1.00  0.00     0.177 HD
HETATM    6  C4  UNL     1      41.891  -1.195  31.177  1.00  0.00     0.165 C 
HETATM    7  N3  UNL     1      43.556  -2.896  29.656  1.00  0.00    -0.023 N 
ATOM      8  H3  UNL     1      44.452  -3.173  30.055  1.00  0.00     0.203 HD
HETATM    9  C5  UNL     1      42.570  -3.903  29.473  1.00  0.00     0.686 C 
HETATM   10  N4  UNL     1      41.717  -3.883  28.527  1.00  0.00    -0.234 N 
ATOM     11  H41 UNL     1      41.009  -4.605  28.396  1.00  0.00     0.174 HD
ATOM     12  H42 UNL     1      41.738  -3.109  27.863  1.00  0.00     0.174 HD
HETATM   13  N5  UNL     1      42.541  -4.978  30.395  1.00  0.00    -0.221 N 
ATOM     14  H5  UNL     1      41.893  -4.967  31.183  1.00  0.00     0.178 HD
ENDROOT
BRANCH  13  15
HETATM   15  C6  UNL     1      43.457  -6.107  30.200  1.00  0.00     0.103 C 
HETATM   16  C7  UNL     1      44.586  -6.035  31.152  1.00  0.00     0.031 C 
HETATM   17  C8  UNL     1      45.123  -7.298  31.665  1.00  0.00    -0.006 C 
HETATM   18  C9  UNL     1      44.614  -7.559  33.091  1.00  0.00     0.026 C 
HETATM   19  C14 UNL     1      44.475  -8.552  31.260  1.00  0.00     0.009 C 
HETATM   20  C10 UNL     1      43.497  -8.371  32.428  1.00  0.00     0.023 C 
HETATM   21 BR1  UNL     1      43.054  -9.964  33.366  1.00  0.00    -0.085 Br
HETATM   22  C11 UNL     1      42.379  -7.568  31.864  1.00  0.00     0.028 C 
HETATM   23  C12 UNL     1      42.658  -7.378  30.380  1.00  0.00     0.011 C 
HETATM   24  C13 UNL     1      43.643  -8.501  30.028  1.00  0.00     0.013 C 
ENDBRANCH  13  15
BRANCH   1  25
HETATM   25  C2  UNL     1      44.474  -1.859  27.121  1.00  0.00     0.133 C 
HETATM   26  C1  UNL     1      44.474  -1.138  25.817  1.00  0.00     0.027 C 
ENDBRANCH   1  25
TORSDOF 2
ENDMDL
MODEL 3
REMARK VINA RESULT: -5.815773727      4.434      7.683
REMARK  2 active torsions:
REMARK  status: ('A' for Active; 'I' for Inactive)
REMARK    1  A    between atoms: C2_2  and  N1_3 
REMARK       I    between atoms: N1_3  and  C3_5 
REMARK       I    between atoms: C3_5  and  N3_9 
REMARK       I    between atoms: N3_9  and  C5_11 
REMARK       I    between atoms: C5_11  and  N5_15 
REMARK    2  A    between atoms: N5_15  and  C6_17 
ROOT
HETATM    1  N1  UNL     1      43.499  -3.386  27.276  1.00  0.00    -0.226 N 
ATOM      2  H1  UNL     1      43.959  -3.917  26.537  1.00  0.00     0.177 HD
HETATM    3  C3  UNL     1      42.589  -4.038  28.155  1.00  0.00     0.688 C 
HETATM    4  N2  UNL     1      42.701  -5.310  28.314  1.00  0.00    -0.230 N 
ATOM      5  H2  UNL     1      43.436  -5.801  27.806  1.00  0.00     0.177 HD
HETATM    6  C4  UNL     1      41.833  -6.073  29.181  1.00  0.00     0.165 C 
HETATM    7  N3  UNL     1      41.602  -3.281  28.822  1.00  0.00    -0.023 N 
ATOM      8  H3  UNL     1      40.818  -2.930  28.271  1.00  0.00     0.203 HD
HETATM    9  C5  UNL     1      41.628  -2.975  30.209  1.00  0.00     0.686 C 
HETATM   10  N4  UNL     1      42.705  -2.807  30.868  1.00  0.00    -0.234 N 
ATOM     11  H41 UNL     1      42.724  -2.587  31.864  1.00  0.00     0.174 HD
ATOM     12  H42 UNL     1      43.597  -2.892  30.381  1.00  0.00     0.174 HD
HETATM   13  N5  UNL     1      40.389  -2.855  30.886  1.00  0.00    -0.221 N 
ATOM     14  H5  UNL     1      40.010  -3.640  31.415  1.00  0.00     0.178 HD
ENDROOT
BRANCH  13  15
HETATM   15  C6  UNL     1      39.660  -1.584  30.814  1.00  0.00     0.103 C 
HETATM   16  C7  UNL     1      38.221  -1.820  30.566  1.00  0.00     0.031 C 
HETATM   17  C8  UNL     1      37.265  -0.903  31.191  1.00  0.00    -0.006 C 
HETATM   18  C9  UNL     1      36.626  -1.555  32.428  1.00  0.00     0.026 C 
HETATM   19  C14 UNL     1      37.779   0.151  32.075  1.00  0.00     0.009 C 
HETATM   20  C10 UNL     1      37.730  -0.858  33.231  1.00  0.00     0.023 C 
HETATM   21 BR1  UNL     1      37.134  -0.154  34.893  1.00  0.00    -0.085 Br
HETATM   22  C11 UNL     1      39.056  -1.530  33.201  1.00  0.00     0.028 C 
HETATM   23  C12 UNL     1      39.886  -0.855  32.119  1.00  0.00     0.011 C 
HETATM   24  C13 UNL     1      39.214   0.509  31.915  1.00  0.00     0.013 C 
ENDBRANCH  13  15
BRANCH   1  25
HETATM   25  C2  UNL     1      43.772  -1.984  27.424  1.00  0.00     0.133 C 
HETATM   26  C1  UNL     1      44.639  -1.486  26.319  1.00  0.00     0.027 C 
ENDBRANCH   1  25
TORSDOF 2
ENDMDL
MODEL 4
REMARK VINA RESULT: -5.805003278      0.997      1.065
REMARK  2 active torsions:
REMARK  status: ('A' for Active; 'I' for Inactive)
REMARK    1  A    between atoms: C2_2  and  N1_3 
REMARK       I    between atoms: N1_3  and  C3_5 
REMARK       I    between atoms: C3_5  and  N3_9 
REMARK       I    between atoms: N3_9  and  C5_11 
REMARK       I    between atoms: C5_11  and  N5_15 
REMARK    2  A    between atoms: N5_15  and  C6_17 
ROOT
HETATM    1  N1  UNL     1      44.080  -2.515  26.628  1.00  0.00    -0.226 N 
ATOM      2  H1  UNL     1      44.323  -1.622  26.198  1.00  0.00     0.177 HD
HETATM    3  C3  UNL     1      43.781  -2.573  28.018  1.00  0.00     0.688 C 
HETATM    4  N2  UNL     1      43.375  -1.499  28.600  1.00  0.00    -0.230 N 
ATOM      5  H2  UNL     1      43.283  -0.649  28.043  1.00  0.00     0.177 HD
HETATM    6  C4  UNL     1      43.044  -1.443  30.004  1.00  0.00     0.165 C 
HETATM    7  N3  UNL     1      43.935  -3.792  28.713  1.00  0.00    -0.023 N 
ATOM      8  H3  UNL     1      44.883  -4.115  28.904  1.00  0.00     0.203 HD
HETATM    9  C5  UNL     1      42.855  -4.598  29.164  1.00  0.00     0.686 C 
HETATM   10  N4  UNL     1      41.740  -4.679  28.554  1.00  0.00    -0.234 N 
ATOM     11  H41 UNL     1      40.965  -5.257  28.877  1.00  0.00     0.174 HD
ATOM     12  H42 UNL     1      41.609  -4.141  27.697  1.00  0.00     0.174 HD
HETATM   13  N5  UNL     1      43.036  -5.345  30.355  1.00  0.00    -0.221 N 
ATOM     14  H5  UNL     1      42.694  -4.988  31.247  1.00  0.00     0.178 HD
ENDROOT
BRANCH  13  15
HETATM   15  C6  UNL     1      43.724  -6.639  30.284  1.00  0.00     0.103 C 
HETATM   16  C7  UNL     1      44.884  -6.665  31.201  1.00  0.00     0.031 C 
HETATM   17  C8  UNL     1      45.203  -7.936  31.857  1.00  0.00    -0.006 C 
HETATM   18  C9  UNL     1      44.712  -7.927  33.313  1.00  0.00     0.026 C 
HETATM   19  C14 UNL     1      44.321  -9.087  31.621  1.00  0.00     0.009 C 
HETATM   20  C10 UNL     1      43.440  -8.591  32.775  1.00  0.00     0.023 C 
HETATM   21 BR1  UNL     1      42.753  -9.952  33.911  1.00  0.00    -0.085 Br
HETATM   22  C11 UNL     1      42.465  -7.668  32.135  1.00  0.00     0.028 C 
HETATM   23  C12 UNL     1      42.714  -7.709  30.635  1.00  0.00     0.011 C 
HETATM   24  C13 UNL     1      43.465  -9.029  30.407  1.00  0.00     0.013 C 
ENDBRANCH  13  15
BRANCH   1  25
HETATM   25  C2  UNL     1      44.042  -3.707  25.828  1.00  0.00     0.133 C 
HETATM   26  C1  UNL     1      44.369  -3.409  24.406  1.00  0.00     0.027 C 
ENDBRANCH   1  25
TORSDOF 2
ENDMDL
MODEL 5
REMARK VINA RESULT: -5.722377114      1.801      2.073
REMARK  2 active torsions:
REMARK  status: ('A' for Active; 'I' for Inactive)
REMARK    1  A    between atoms: C2_2  and  N1_3 
REMARK       I    between atoms: N1_3  and  C3_5 
REMARK       I    between atoms: C3_5  and  N3_9 
REMARK       I    between atoms: N3_9  and  C5_11 
REMARK       I    between atoms: C5_11  and  N5_15 
REMARK    2  A    between atoms: N5_15  and  C6_17 
ROOT
HETATM    1  N1  UNL     1      43.810  -0.888  28.298  1.00  0.00    -0.226 N 
ATOM      2  H1  UNL     1      43.926   0.112  28.136  1.00  0.00     0.177 HD
HETATM    3  C3  UNL     1      42.965  -1.342  29.349  1.00  0.00     0.688 C 
HETATM    4  N2  UNL     1      42.034  -0.557  29.765  1.00  0.00    -0.230 N 
ATOM      5  H2  UNL     1      41.936   0.358  29.325  1.00  0.00     0.177 HD
HETATM    6  C4  UNL     1      41.121  -0.913  30.825  1.00  0.00     0.165 C 
HETATM    7  N3  UNL     1      43.169  -2.625  29.901  1.00  0.00    -0.023 N 
ATOM      8  H3  UNL     1      43.985  -2.763  30.497  1.00  0.00     0.203 HD
HETATM    9  C5  UNL     1      42.311  -3.736  29.681  1.00  0.00     0.686 C 
HETATM   10  N4  UNL     1      41.665  -3.917  28.599  1.00  0.00    -0.234 N 
ATOM     11  H41 UNL     1      41.049  -4.715  28.440  1.00  0.00     0.174 HD
ATOM     12  H42 UNL     1      41.764  -3.234  27.848  1.00  0.00     0.174 HD
HETATM   13  N5  UNL     1      42.174  -4.686  30.724  1.00  0.00    -0.221 N 
ATOM     14  H5  UNL     1      41.383  -4.638  31.366  1.00  0.00     0.178 HD
ENDROOT
BRANCH  13  15
HETATM   15  C6  UNL     1      43.187  -5.737  30.866  1.00  0.00     0.103 C 
HETATM   16  C7  UNL     1      43.440  -6.030  32.294  1.00  0.00     0.031 C 
HETATM   17  C8  UNL     1      43.744  -7.416  32.659  1.00  0.00    -0.006 C 
HETATM   18  C9  UNL     1      42.509  -8.092  33.275  1.00  0.00     0.026 C 
HETATM   19  C14 UNL     1      43.717  -8.441  31.607  1.00  0.00     0.009 C 
HETATM   20  C10 UNL     1      42.211  -8.593  31.859  1.00  0.00     0.023 C 
HETATM   21 BR1  UNL     1      41.559 -10.378  31.804  1.00  0.00    -0.085 Br
HETATM   22  C11 UNL     1      41.575  -7.598  30.955  1.00  0.00     0.028 C 
HETATM   23  C12 UNL     1      42.681  -6.957  30.130  1.00  0.00     0.011 C 
HETATM   24  C13 UNL     1      43.844  -7.957  30.207  1.00  0.00     0.013 C 
ENDBRANCH  13  15
BRANCH   1  25
HETATM   25  C2  UNL     1      44.499  -1.832  27.463  1.00  0.00     0.133 C 
HETATM   26  C1  UNL     1      44.550  -1.361  26.050  1.00  0.00     0.027 C 
ENDBRANCH   1  25
TORSDOF 2
ENDMDL
