MODEL 1
REMARK VINA RESULT: -7.852448135      0.000      0.000
REMARK  2 active torsions:
REMARK  status: ('A' for Active; 'I' for Inactive)
REMARK    1  A    between atoms: C4_4  and  N1_5 
REMARK       I    between atoms: N1_5  and  C5_7 
REMARK       I    between atoms: C5_7  and  N2_9 
REMARK    2  A    between atoms: N2_9  and  C6_11 
ROOT
HETATM    1  N1  UNL     1      43.078  -6.452  30.134  1.00  0.00    -0.332 N 
ATOM      2  H1  UNL     1      42.611  -6.944  29.371  1.00  0.00     0.165 HD
HETATM    3  C5  UNL     1      43.062  -5.043  30.161  1.00  0.00     0.322 C 
HETATM    4  O1  UNL     1      43.630  -4.429  31.089  1.00  0.00    -0.247 OA
HETATM    5  N2  UNL     1      42.411  -4.288  29.149  1.00  0.00    -0.293 N 
ATOM      6  H2  UNL     1      41.442  -4.000  29.287  1.00  0.00     0.172 HD
ENDROOT
BRANCH   1   7
HETATM    7  C4  UNL     1      43.733  -7.202  31.149  1.00  0.00     0.059 C 
HETATM    8  C3  UNL     1      43.739  -8.691  30.881  1.00  0.00     0.044 C 
HETATM    9  C2  UNL     1      44.827  -9.149  31.826  1.00  0.00    -0.008 C 
HETATM   10  C1  UNL     1      45.168 -10.563  31.569  1.00  0.00     0.018 C 
HETATM   11  C13 UNL     1      44.553  -8.830  33.270  1.00  0.00     0.212 C 
HETATM   12  C16 UNL     1      45.938  -8.183  31.505  1.00  0.00    -0.000 C 
HETATM   13  N5  UNL     1      44.116  -7.487  33.474  1.00  0.00    -0.066 N 
HETATM   14  C14 UNL     1      45.983  -8.887  33.835  1.00  0.00     0.114 C 
HETATM   15  C12 UNL     1      43.115  -7.039  32.537  1.00  0.00     0.263 C 
ATOM     16  H52 UNL     1      44.912  -6.850  33.475  1.00  0.00     0.277 HD
ATOM     17  H51 UNL     1      43.789  -7.360  34.431  1.00  0.00     0.277 HD
HETATM   18 CL1  UNL     1      46.524 -10.518  34.133  1.00  0.00    -0.123 Cl
HETATM   19  C15 UNL     1      46.750  -8.154  32.778  1.00  0.00     0.028 C 
HETATM   20  C17 UNL     1      45.218  -6.902  31.228  1.00  0.00     0.038 C 
ENDBRANCH   1   7
BRANCH   5  21
HETATM   21  C6  UNL     1      43.019  -3.959  28.058  1.00  0.00     0.132 A 
HETATM   22  N3  UNL     1      43.057  -4.639  26.908  1.00  0.00    -0.285 N 
HETATM   23  N4  UNL     1      43.784  -3.966  26.035  1.00  0.00    -0.303 N 
ATOM     24  H3  UNL     1      42.599  -5.534  26.732  1.00  0.00     0.188 HD
HETATM   25  C7  UNL     1      44.229  -2.838  26.605  1.00  0.00     0.036 A 
ATOM     26  H4  UNL     1      43.976  -4.259  25.077  1.00  0.00     0.186 HD
HETATM   27  C8  UNL     1      43.752  -2.800  27.917  1.00  0.00     0.011 A 
HETATM   28  C11 UNL     1      45.042  -1.636  26.322  1.00  0.00     0.059 C 
HETATM   29  C9  UNL     1      44.258  -1.541  28.533  1.00  0.00     0.045 C 
HETATM   30  C10 UNL     1      44.558  -0.646  27.338  1.00  0.00     0.011 C 
ENDBRANCH   5  21
TORSDOF 2
ENDMDL
MODEL 2
REMARK VINA RESULT: -7.739166433      1.501      1.872
REMARK  2 active torsions:
REMARK  status: ('A' for Active; 'I' for Inactive)
REMARK    1  A    between atoms: C4_4  and  N1_5 
REMARK       I    between atoms: N1_5  and  C5_7 
REMARK       I    between atoms: C5_7  and  N2_9 
REMARK    2  A    between atoms: N2_9  and  C6_11 
ROOT
HETATM    1  N1  UNL     1      42.794  -5.109  30.258  1.00  0.00    -0.332 N 
ATOM      2  H1  UNL     1      42.414  -5.329  29.338  1.00  0.00     0.165 HD
HETATM    3  C5  UNL     1      42.779  -3.774  30.713  1.00  0.00     0.322 C 
HETATM    4  O1  UNL     1      43.241  -3.491  31.838  1.00  0.00    -0.247 OA
HETATM    5  N2  UNL     1      42.247  -2.725  29.916  1.00  0.00    -0.293 N 
ATOM      6  H2  UNL     1      41.270  -2.456  30.032  1.00  0.00     0.172 HD
ENDROOT
BRANCH   1   7
HETATM    7  C4  UNL     1      43.328  -6.154  31.060  1.00  0.00     0.059 C 
HETATM    8  C3  UNL     1      43.115  -7.530  30.466  1.00  0.00     0.044 C 
HETATM    9  C2  UNL     1      44.122  -8.340  31.251  1.00  0.00    -0.008 C 
HETATM   10  C1  UNL     1      44.251  -9.695  30.674  1.00  0.00     0.018 C 
HETATM   11  C13 UNL     1      43.895  -8.319  32.737  1.00  0.00     0.212 C 
HETATM   12  C16 UNL     1      45.364  -7.498  31.119  1.00  0.00    -0.000 C 
HETATM   13  N5  UNL     1      43.660  -7.008  33.249  1.00  0.00    -0.066 N 
HETATM   14  C14 UNL     1      45.300  -8.708  33.231  1.00  0.00     0.114 C 
HETATM   15  C12 UNL     1      42.738  -6.221  32.468  1.00  0.00     0.263 C 
ATOM     16  H52 UNL     1      44.542  -6.509  33.368  1.00  0.00     0.277 HD
ATOM     17  H51 UNL     1      43.354  -7.054  34.221  1.00  0.00     0.277 HD
HETATM   18 CL1  UNL     1      45.593 -10.424  33.141  1.00  0.00    -0.123 Cl
HETATM   19  C15 UNL     1      46.169  -7.875  32.341  1.00  0.00     0.028 C 
HETATM   20  C17 UNL     1      44.841  -6.097  31.158  1.00  0.00     0.038 C 
ENDBRANCH   1   7
BRANCH   5  21
HETATM   21  C6  UNL     1      42.974  -2.103  29.049  1.00  0.00     0.132 A 
HETATM   22  N3  UNL     1      43.470  -0.864  29.137  1.00  0.00    -0.285 N 
HETATM   23  N4  UNL     1      44.160  -0.599  28.043  1.00  0.00    -0.303 N 
ATOM     24  H3  UNL     1      43.337  -0.227  29.922  1.00  0.00     0.188 HD
HETATM   25  C7  UNL     1      44.122  -1.661  27.227  1.00  0.00     0.036 A 
ATOM     26  H4  UNL     1      44.646   0.277  27.850  1.00  0.00     0.186 HD
HETATM   27  C8  UNL     1      43.362  -2.655  27.847  1.00  0.00     0.011 A 
HETATM   28  C11 UNL     1      44.605  -2.134  25.911  1.00  0.00     0.059 C 
HETATM   29  C9  UNL     1      43.332  -3.826  26.924  1.00  0.00     0.045 C 
HETATM   30  C10 UNL     1      44.556  -3.626  26.042  1.00  0.00     0.011 C 
ENDBRANCH   5  21
TORSDOF 2
ENDMDL
MODEL 3
REMARK VINA RESULT: -7.532060889      5.603      6.585
REMARK  2 active torsions:
REMARK  status: ('A' for Active; 'I' for Inactive)
REMARK    1  A    between atoms: C4_4  and  N1_5 
REMARK       I    between atoms: N1_5  and  C5_7 
REMARK       I    between atoms: C5_7  and  N2_9 
REMARK    2  A    between atoms: N2_9  and  C6_11 
ROOT
HETATM    1  N1  UNL     1      42.723  -0.772  29.280  1.00  0.00    -0.332 N 
ATOM      2  H1  UNL     1      42.515   0.114  28.819  1.00  0.00     0.165 HD
HETATM    3  C5  UNL     1      43.891  -1.479  28.927  1.00  0.00     0.322 C 
HETATM    4  O1  UNL     1      44.157  -2.565  29.484  1.00  0.00    -0.247 OA
HETATM    5  N2  UNL     1      44.787  -0.986  27.940  1.00  0.00    -0.293 N 
ATOM      6  H2  UNL     1      45.583  -0.417  28.228  1.00  0.00     0.172 HD
ENDROOT
BRANCH   1   7
HETATM    7  C4  UNL     1      41.830  -1.271  30.268  1.00  0.00     0.059 C 
HETATM    8  C3  UNL     1      40.580  -0.431  30.419  1.00  0.00     0.044 C 
HETATM    9  C2  UNL     1      39.676  -1.393  31.156  1.00  0.00    -0.008 C 
HETATM   10  C1  UNL     1      38.299  -0.860  31.216  1.00  0.00     0.018 C 
HETATM   11  C13 UNL     1      40.222  -1.850  32.481  1.00  0.00     0.212 C 
HETATM   12  C16 UNL     1      39.813  -2.642  30.323  1.00  0.00    -0.000 C 
HETATM   13  N5  UNL     1      41.590  -2.253  32.414  1.00  0.00    -0.066 N 
HETATM   14  C14 UNL     1      39.420  -3.148  32.672  1.00  0.00     0.114 C 
HETATM   15  C12 UNL     1      42.438  -1.357  31.667  1.00  0.00     0.263 C 
ATOM     16  H52 UNL     1      41.664  -3.201  32.048  1.00  0.00     0.277 HD
ATOM     17  H51 UNL     1      41.964  -2.398  33.352  1.00  0.00     0.277 HD
HETATM   18 CL1  UNL     1      37.803  -2.860  33.258  1.00  0.00    -0.123 Cl
HETATM   19  C15 UNL     1      39.493  -3.748  31.301  1.00  0.00     0.028 C 
HETATM   20  C17 UNL     1      41.246  -2.620  29.895  1.00  0.00     0.038 C 
ENDBRANCH   1   7
BRANCH   5  21
HETATM   21  C6  UNL     1      44.615  -1.244  26.686  1.00  0.00     0.132 A 
HETATM   22  N3  UNL     1      44.590  -0.374  25.671  1.00  0.00    -0.285 N 
HETATM   23  N4  UNL     1      44.391  -1.035  24.545  1.00  0.00    -0.303 N 
ATOM     24  H3  UNL     1      44.705   0.636  25.752  1.00  0.00     0.188 HD
HETATM   25  C7  UNL     1      44.283  -2.344  24.812  1.00  0.00     0.036 A 
ATOM     26  H4  UNL     1      44.329  -0.614  23.617  1.00  0.00     0.186 HD
HETATM   27  C8  UNL     1      44.424  -2.516  26.190  1.00  0.00     0.011 A 
HETATM   28  C11 UNL     1      44.069  -3.650  24.153  1.00  0.00     0.059 C 
HETATM   29  C9  UNL     1      44.301  -3.975  26.467  1.00  0.00     0.045 C 
HETATM   30  C10 UNL     1      44.642  -4.628  25.134  1.00  0.00     0.011 C 
ENDBRANCH   5  21
TORSDOF 2
ENDMDL
MODEL 4
REMARK VINA RESULT: -7.468141268      5.886      7.216
REMARK  2 active torsions:
REMARK  status: ('A' for Active; 'I' for Inactive)
REMARK    1  A    between atoms: C4_4  and  N1_5 
REMARK       I    between atoms: N1_5  and  C5_7 
REMARK       I    between atoms: C5_7  and  N2_9 
REMARK    2  A    between atoms: N2_9  and  C6_11 
ROOT
HETATM    1  N1  UNL     1      42.202  -0.631  29.681  1.00  0.00    -0.332 N 
ATOM      2  H1  UNL     1      42.265   0.320  29.319  1.00  0.00     0.165 HD
HETATM    3  C5  UNL     1      43.236  -1.549  29.404  1.00  0.00     0.322 C 
HETATM    4  O1  UNL     1      43.170  -2.717  29.842  1.00  0.00    -0.247 OA
HETATM    5  N2  UNL     1      44.368  -1.179  28.629  1.00  0.00    -0.293 N 
ATOM      6  H2  UNL     1      45.206  -0.840  29.100  1.00  0.00     0.172 HD
ENDROOT
BRANCH   1   7
HETATM    7  C4  UNL     1      41.071  -1.008  30.457  1.00  0.00     0.059 C 
HETATM    8  C3  UNL     1      41.399  -1.230  31.918  1.00  0.00     0.044 C 
HETATM    9  C2  UNL     1      40.019  -1.171  32.534  1.00  0.00    -0.008 C 
HETATM   10  C1  UNL     1      40.116  -1.138  34.008  1.00  0.00     0.018 C 
HETATM   11  C13 UNL     1      39.068  -2.205  31.998  1.00  0.00     0.212 C 
HETATM   12  C16 UNL     1      39.467   0.094  31.929  1.00  0.00    -0.000 C 
HETATM   13  N5  UNL     1      39.079  -2.291  30.574  1.00  0.00    -0.066 N 
HETATM   14  C14 UNL     1      37.724  -1.549  32.359  1.00  0.00     0.114 C 
HETATM   15  C12 UNL     1      40.398  -2.296  29.989  1.00  0.00     0.263 C 
ATOM     16  H52 UNL     1      38.512  -1.548  30.167  1.00  0.00     0.277 HD
ATOM     17  H51 UNL     1      38.549  -3.105  30.261  1.00  0.00     0.277 HD
HETATM   18 CL1  UNL     1      37.288  -1.785  34.031  1.00  0.00    -0.123 Cl
HETATM   19  C15 UNL     1      37.973  -0.125  31.971  1.00  0.00     0.028 C 
HETATM   20  C17 UNL     1      40.032   0.094  30.544  1.00  0.00     0.038 C 
ENDBRANCH   1   7
BRANCH   5  21
HETATM   21  C6  UNL     1      44.358  -1.264  27.340  1.00  0.00     0.132 A 
HETATM   22  N3  UNL     1      44.429  -0.264  26.456  1.00  0.00    -0.285 N 
HETATM   23  N4  UNL     1      44.388  -0.766  25.236  1.00  0.00    -0.303 N 
ATOM     24  H3  UNL     1      44.502   0.727  26.686  1.00  0.00     0.188 HD
HETATM   25  C7  UNL     1      44.289  -2.101  25.308  1.00  0.00     0.036 A 
ATOM     26  H4  UNL     1      44.426  -0.223  24.372  1.00  0.00     0.186 HD
HETATM   27  C8  UNL     1      44.267  -2.459  26.658  1.00  0.00     0.011 A 
HETATM   28  C11 UNL     1      44.198  -3.307  24.458  1.00  0.00     0.059 C 
HETATM   29  C9  UNL     1      44.157  -3.944  26.717  1.00  0.00     0.045 C 
HETATM   30  C10 UNL     1      44.677  -4.402  25.362  1.00  0.00     0.011 C 
ENDBRANCH   5  21
TORSDOF 2
ENDMDL
MODEL 5
REMARK VINA RESULT: -7.448910293      5.833      7.883
REMARK  2 active torsions:
REMARK  status: ('A' for Active; 'I' for Inactive)
REMARK    1  A    between atoms: C4_4  and  N1_5 
REMARK       I    between atoms: N1_5  and  C5_7 
REMARK       I    between atoms: C5_7  and  N2_9 
REMARK    2  A    between atoms: N2_9  and  C6_11 
ROOT
HETATM    1  N1  UNL     1      41.956  -1.634  31.936  1.00  0.00    -0.332 N 
ATOM      2  H1  UNL     1      42.805  -1.209  32.310  1.00  0.00     0.165 HD
HETATM    3  C5  UNL     1      42.054  -2.570  30.886  1.00  0.00     0.322 C 
HETATM    4  O1  UNL     1      41.021  -3.096  30.420  1.00  0.00    -0.247 OA
HETATM    5  N2  UNL     1      43.310  -2.936  30.333  1.00  0.00    -0.293 N 
ATOM      6  H2  UNL     1      43.798  -3.752  30.700  1.00  0.00     0.172 HD
ENDROOT
BRANCH   1   7
HETATM    7  C4  UNL     1      40.696  -1.271  32.485  1.00  0.00     0.059 C 
HETATM    8  C3  UNL     1      40.802  -0.253  33.600  1.00  0.00     0.044 C 
HETATM    9  C2  UNL     1      39.377   0.248  33.668  1.00  0.00    -0.008 C 
HETATM   10  C1  UNL     1      39.291   1.430  34.551  1.00  0.00     0.018 C 
HETATM   11  C13 UNL     1      38.367  -0.825  33.968  1.00  0.00     0.212 C 
HETATM   12  C16 UNL     1      39.087   0.544  32.219  1.00  0.00    -0.000 C 
HETATM   13  N5  UNL     1      38.546  -1.999  33.177  1.00  0.00    -0.066 N 
HETATM   14  C14 UNL     1      37.092  -0.155  33.427  1.00  0.00     0.114 C 
HETATM   15  C12 UNL     1      39.914  -2.444  33.075  1.00  0.00     0.263 C 
ATOM     16  H52 UNL     1      38.144  -1.869  32.250  1.00  0.00     0.277 HD
ATOM     17  H51 UNL     1      37.951  -2.754  33.520  1.00  0.00     0.277 HD
HETATM   18 CL1  UNL     1      36.421   1.009  34.537  1.00  0.00    -0.123 Cl
HETATM   19  C15 UNL     1      37.584   0.421  32.135  1.00  0.00     0.028 C 
HETATM   20  C17 UNL     1      39.816  -0.538  31.489  1.00  0.00     0.038 C 
ENDBRANCH   1   7
BRANCH   5  21
HETATM   21  C6  UNL     1      43.847  -2.258  29.374  1.00  0.00     0.132 A 
HETATM   22  N3  UNL     1      44.485  -1.086  29.461  1.00  0.00    -0.285 N 
HETATM   23  N4  UNL     1      44.886  -0.725  28.256  1.00  0.00    -0.303 N 
ATOM     24  H3  UNL     1      44.637  -0.556  30.319  1.00  0.00     0.188 HD
HETATM   25  C7  UNL     1      44.514  -1.656  27.367  1.00  0.00     0.036 A 
ATOM     26  H4  UNL     1      45.399   0.130  28.037  1.00  0.00     0.186 HD
HETATM   27  C8  UNL     1      43.838  -2.665  28.057  1.00  0.00     0.011 A 
HETATM   28  C11 UNL     1      44.575  -1.976  25.925  1.00  0.00     0.059 C 
HETATM   29  C9  UNL     1      43.433  -3.689  27.053  1.00  0.00     0.045 C 
HETATM   30  C10 UNL     1      44.395  -3.463  25.894  1.00  0.00     0.011 C 
ENDBRANCH   5  21
TORSDOF 2
ENDMDL
