MODEL 1
REMARK VINA RESULT: -7.014938396      0.000      0.000
REMARK  6 active torsions:
REMARK  status: ('A' for Active; 'I' for Inactive)
REMARK    1  A    between atoms: C5_8  and  N2_9 
REMARK    2  A    between atoms: N2_9  and  C6_11 
REMARK    3  A    between atoms: C6_11  and  N3_13 
REMARK    4  A    between atoms: N3_13  and  C7_15 
REMARK    5  A    between atoms: C7_15  and  C8_16 
REMARK    6  A    between atoms: C8_16  and  C9_17 
ROOT
HETATM    1  C6  UNL     1       8.927   5.235  23.331  1.00  0.00     0.168 C 
HETATM    2  S1  UNL     1       9.783   6.541  23.911  1.00  0.00    -0.041 SA
ENDROOT
BRANCH   1   3
HETATM    3  N2  UNL     1       9.454   3.975  23.599  1.00  0.00    -0.354 N 
ATOM      4  H2  UNL     1      10.428   3.801  23.351  1.00  0.00     0.162 HD
BRANCH   3   5
HETATM    5  C5  UNL     1       8.714   2.906  24.203  1.00  0.00     0.176 C 
HETATM    6  C4  UNL     1       8.871   2.817  25.679  1.00  0.00     0.240 C 
HETATM    7  N1  UNL     1       8.442   1.613  26.356  1.00  0.00    -0.359 N 
HETATM    8  O1  UNL     1       9.359   3.732  26.379  1.00  0.00    -0.271 OA
HETATM    9  C3  UNL     1       8.011   0.488  25.502  1.00  0.00     0.127 C 
ATOM     10  H1  UNL     1       8.437   1.545  27.374  1.00  0.00     0.162 HD
HETATM   11  C2  UNL     1       9.036   0.458  24.389  1.00  0.00     0.002 C 
HETATM   12  C1  UNL     1       8.846  -0.871  23.647  1.00  0.00     0.011 C 
HETATM   13  C17 UNL     1       9.016   1.622  23.489  1.00  0.00     0.040 C 
ENDBRANCH   3   5
ENDBRANCH   1   3
BRANCH   1  14
HETATM   14  N3  UNL     1       7.768   5.476  22.593  1.00  0.00    -0.367 N 
ATOM     15  H3  UNL     1       7.683   5.101  21.649  1.00  0.00     0.161 HD
BRANCH  14  16
HETATM   16  C7  UNL     1       6.678   6.260  23.160  1.00  0.00     0.122 C 
BRANCH  16  17
HETATM   17  C8  UNL     1       6.068   5.544  24.316  1.00  0.00     0.024 C 
BRANCH  17  18
HETATM   18  C9  UNL     1       4.984   6.415  24.942  1.00  0.00    -0.013 C 
HETATM   19  C10 UNL     1       4.909   7.747  24.217  1.00  0.00     0.005 C 
HETATM   20  C11 UNL     1       3.440   8.190  24.172  1.00  0.00     0.000 C 
HETATM   21  C12 UNL     1       2.944   8.670  25.495  1.00  0.00     0.000 C 
HETATM   22  C13 UNL     1       2.414   7.628  26.413  1.00  0.00     0.000 C 
HETATM   23  C14 UNL     1       3.344   7.282  27.560  1.00  0.00     0.000 C 
HETATM   24  C15 UNL     1       4.239   6.083  27.225  1.00  0.00     0.000 C 
HETATM   25  C16 UNL     1       5.364   6.627  26.397  1.00  0.00     0.005 C 
ENDBRANCH  17  18
ENDBRANCH  16  17
ENDBRANCH  14  16
ENDBRANCH   1  14
TORSDOF 6
ENDMDL
MODEL 2
REMARK VINA RESULT: -6.893004968      3.714      6.004
REMARK  6 active torsions:
REMARK  status: ('A' for Active; 'I' for Inactive)
REMARK    1  A    between atoms: C5_8  and  N2_9 
REMARK    2  A    between atoms: N2_9  and  C6_11 
REMARK    3  A    between atoms: C6_11  and  N3_13 
REMARK    4  A    between atoms: N3_13  and  C7_15 
REMARK    5  A    between atoms: C7_15  and  C8_16 
REMARK    6  A    between atoms: C8_16  and  C9_17 
ROOT
HETATM    1  C6  UNL     1       8.444   4.609  23.675  1.00  0.00     0.168 C 
HETATM    2  S1  UNL     1       7.082   5.007  24.546  1.00  0.00    -0.041 SA
ENDROOT
BRANCH   1   3
HETATM    3  N2  UNL     1       9.114   3.450  24.058  1.00  0.00    -0.354 N 
ATOM      4  H2  UNL     1      10.134   3.455  24.028  1.00  0.00     0.162 HD
BRANCH   3   5
HETATM    5  C5  UNL     1       8.462   2.251  24.494  1.00  0.00     0.176 C 
HETATM    6  C4  UNL     1       8.700   1.915  25.923  1.00  0.00     0.240 C 
HETATM    7  N1  UNL     1       8.367   0.588  26.393  1.00  0.00    -0.359 N 
HETATM    8  O1  UNL     1       9.177   2.721  26.752  1.00  0.00    -0.271 OA
HETATM    9  C3  UNL     1       7.949  -0.393  25.372  1.00  0.00     0.127 C 
ATOM     10  H1  UNL     1       8.419   0.343  27.382  1.00  0.00     0.162 HD
HETATM   11  C2  UNL     1       8.916  -0.169  24.230  1.00  0.00     0.002 C 
HETATM   12  C1  UNL     1       8.754  -1.357  23.272  1.00  0.00     0.011 C 
HETATM   13  C17 UNL     1       8.790   1.132  23.551  1.00  0.00     0.040 C 
ENDBRANCH   3   5
ENDBRANCH   1   3
BRANCH   1  14
HETATM   14  N3  UNL     1       8.848   5.463  22.649  1.00  0.00    -0.367 N 
ATOM     15  H3  UNL     1       9.022   5.087  21.717  1.00  0.00     0.161 HD
BRANCH  14  16
HETATM   16  C7  UNL     1       9.025   6.888  22.896  1.00  0.00     0.122 C 
BRANCH  16  17
HETATM   17  C8  UNL     1      10.267   7.130  23.683  1.00  0.00     0.024 C 
BRANCH  17  18
HETATM   18  C9  UNL     1      11.238   7.971  22.860  1.00  0.00    -0.013 C 
HETATM   19  C10 UNL     1      12.663   7.517  23.120  1.00  0.00     0.005 C 
HETATM   20  C11 UNL     1      13.455   7.641  21.812  1.00  0.00     0.000 C 
HETATM   21  C12 UNL     1      13.772   9.058  21.463  1.00  0.00     0.000 C 
HETATM   22  C13 UNL     1      12.733   9.791  20.694  1.00  0.00     0.000 C 
HETATM   23  C14 UNL     1      11.948  10.796  21.514  1.00  0.00     0.000 C 
HETATM   24  C15 UNL     1      10.655  10.189  22.072  1.00  0.00     0.000 C 
HETATM   25  C16 UNL     1      11.056   9.416  23.292  1.00  0.00     0.005 C 
ENDBRANCH  17  18
ENDBRANCH  16  17
ENDBRANCH  14  16
ENDBRANCH   1  14
TORSDOF 6
ENDMDL
MODEL 3
REMARK VINA RESULT: -6.882093555      0.828      1.733
REMARK  6 active torsions:
REMARK  status: ('A' for Active; 'I' for Inactive)
REMARK    1  A    between atoms: C5_8  and  N2_9 
REMARK    2  A    between atoms: N2_9  and  C6_11 
REMARK    3  A    between atoms: C6_11  and  N3_13 
REMARK    4  A    between atoms: N3_13  and  C7_15 
REMARK    5  A    between atoms: C7_15  and  C8_16 
REMARK    6  A    between atoms: C8_16  and  C9_17 
ROOT
HETATM    1  C6  UNL     1       9.329   5.257  23.381  1.00  0.00     0.168 C 
HETATM    2  S1  UNL     1      10.091   6.493  24.196  1.00  0.00    -0.041 SA
ENDROOT
BRANCH   1   3
HETATM    3  N2  UNL     1       9.744   3.962  23.682  1.00  0.00    -0.354 N 
ATOM      4  H2  UNL     1      10.719   3.719  23.506  1.00  0.00     0.162 HD
BRANCH   3   5
HETATM    5  C5  UNL     1       8.888   2.949  24.225  1.00  0.00     0.176 C 
HETATM    6  C4  UNL     1       8.912   2.865  25.709  1.00  0.00     0.240 C 
HETATM    7  N1  UNL     1       8.349   1.698  26.352  1.00  0.00    -0.359 N 
HETATM    8  O1  UNL     1       9.396   3.754  26.444  1.00  0.00    -0.271 OA
HETATM    9  C3  UNL     1       7.920   0.595  25.469  1.00  0.00     0.127 C 
ATOM     10  H1  UNL     1       8.253   1.640  27.366  1.00  0.00     0.162 HD
HETATM   11  C2  UNL     1       9.033   0.488  24.449  1.00  0.00     0.002 C 
HETATM   12  C1  UNL     1       8.820  -0.834  23.699  1.00  0.00     0.011 C 
HETATM   13  C17 UNL     1       9.165   1.642  23.545  1.00  0.00     0.040 C 
ENDBRANCH   3   5
ENDBRANCH   1   3
BRANCH   1  14
HETATM   14  N3  UNL     1       8.359   5.585  22.435  1.00  0.00    -0.367 N 
ATOM     15  H3  UNL     1       8.331   5.087  21.546  1.00  0.00     0.161 HD
BRANCH  14  16
HETATM   16  C7  UNL     1       7.384   6.634  22.705  1.00  0.00     0.122 C 
BRANCH  16  17
HETATM   17  C8  UNL     1       6.072   6.039  23.088  1.00  0.00     0.024 C 
BRANCH  17  18
HETATM   18  C9  UNL     1       5.687   6.506  24.488  1.00  0.00    -0.013 C 
HETATM   19  C10 UNL     1       6.505   5.757  25.524  1.00  0.00     0.005 C 
HETATM   20  C11 UNL     1       6.813   6.717  26.682  1.00  0.00     0.000 C 
HETATM   21  C12 UNL     1       5.622   6.982  27.542  1.00  0.00     0.000 C 
HETATM   22  C13 UNL     1       4.729   8.085  27.100  1.00  0.00     0.000 C 
HETATM   23  C14 UNL     1       3.428   7.619  26.476  1.00  0.00     0.000 C 
HETATM   24  C15 UNL     1       3.534   7.519  24.950  1.00  0.00     0.000 C 
HETATM   25  C16 UNL     1       4.208   6.211  24.668  1.00  0.00     0.005 C 
ENDBRANCH  17  18
ENDBRANCH  16  17
ENDBRANCH  14  16
ENDBRANCH   1  14
TORSDOF 6
ENDMDL
MODEL 4
REMARK VINA RESULT: -6.830194291      0.774      1.767
REMARK  6 active torsions:
REMARK  status: ('A' for Active; 'I' for Inactive)
REMARK    1  A    between atoms: C5_8  and  N2_9 
REMARK    2  A    between atoms: N2_9  and  C6_11 
REMARK    3  A    between atoms: C6_11  and  N3_13 
REMARK    4  A    between atoms: N3_13  and  C7_15 
REMARK    5  A    between atoms: C7_15  and  C8_16 
REMARK    6  A    between atoms: C8_16  and  C9_17 
ROOT
HETATM    1  C6  UNL     1       9.255   5.203  23.412  1.00  0.00     0.168 C 
HETATM    2  S1  UNL     1       9.961   6.490  24.198  1.00  0.00    -0.041 SA
ENDROOT
BRANCH   1   3
HETATM    3  N2  UNL     1       9.697   3.933  23.771  1.00  0.00    -0.354 N 
ATOM      4  H2  UNL     1      10.688   3.720  23.652  1.00  0.00     0.162 HD
BRANCH   3   5
HETATM    5  C5  UNL     1       8.849   2.906  24.299  1.00  0.00     0.176 C 
HETATM    6  C4  UNL     1       8.884   2.791  25.781  1.00  0.00     0.240 C 
HETATM    7  N1  UNL     1       8.330   1.608  26.404  1.00  0.00    -0.359 N 
HETATM    8  O1  UNL     1       9.370   3.666  26.531  1.00  0.00    -0.271 OA
HETATM    9  C3  UNL     1       7.900   0.522  25.501  1.00  0.00     0.127 C 
ATOM     10  H1  UNL     1       8.242   1.529  27.417  1.00  0.00     0.162 HD
HETATM   11  C2  UNL     1       9.006   0.440  24.471  1.00  0.00     0.002 C 
HETATM   12  C1  UNL     1       8.793  -0.867  23.695  1.00  0.00     0.011 C 
HETATM   13  C17 UNL     1       9.127   1.613  23.590  1.00  0.00     0.040 C 
ENDBRANCH   3   5
ENDBRANCH   1   3
BRANCH   1  14
HETATM   14  N3  UNL     1       8.300   5.468  22.431  1.00  0.00    -0.367 N 
ATOM     15  H3  UNL     1       8.435   5.113  21.485  1.00  0.00     0.161 HD
BRANCH  14  16
HETATM   16  C7  UNL     1       7.111   6.249  22.746  1.00  0.00     0.122 C 
BRANCH  16  17
HETATM   17  C8  UNL     1       6.401   5.666  23.919  1.00  0.00     0.024 C 
BRANCH  17  18
HETATM   18  C9  UNL     1       5.351   6.652  24.423  1.00  0.00    -0.013 C 
HETATM   19  C10 UNL     1       4.175   5.896  25.015  1.00  0.00     0.005 C 
HETATM   20  C11 UNL     1       3.641   6.695  26.211  1.00  0.00     0.000 C 
HETATM   21  C12 UNL     1       2.887   7.915  25.798  1.00  0.00     0.000 C 
HETATM   22  C13 UNL     1       3.699   9.140  25.571  1.00  0.00     0.000 C 
HETATM   23  C14 UNL     1       3.894   9.494  24.110  1.00  0.00     0.000 C 
HETATM   24  C15 UNL     1       5.197   8.910  23.552  1.00  0.00     0.000 C 
HETATM   25  C16 UNL     1       4.901   7.477  23.229  1.00  0.00     0.005 C 
ENDBRANCH  17  18
ENDBRANCH  16  17
ENDBRANCH  14  16
ENDBRANCH   1  14
TORSDOF 6
ENDMDL
MODEL 5
REMARK VINA RESULT: -6.824175363      4.086      6.542
REMARK  6 active torsions:
REMARK  status: ('A' for Active; 'I' for Inactive)
REMARK    1  A    between atoms: C5_8  and  N2_9 
REMARK    2  A    between atoms: N2_9  and  C6_11 
REMARK    3  A    between atoms: C6_11  and  N3_13 
REMARK    4  A    between atoms: N3_13  and  C7_15 
REMARK    5  A    between atoms: C7_15  and  C8_16 
REMARK    6  A    between atoms: C8_16  and  C9_17 
ROOT
HETATM    1  C6  UNL     1       8.799   5.314  23.551  1.00  0.00     0.168 C 
HETATM    2  S1  UNL     1       7.175   5.536  23.843  1.00  0.00    -0.041 SA
ENDROOT
BRANCH   1   3
HETATM    3  N2  UNL     1       9.392   4.199  24.138  1.00  0.00    -0.354 N 
ATOM      4  H2  UNL     1      10.403   4.211  24.275  1.00  0.00     0.162 HD
BRANCH   3   5
HETATM    5  C5  UNL     1       8.672   3.036  24.564  1.00  0.00     0.176 C 
HETATM    6  C4  UNL     1       8.820   2.725  26.010  1.00  0.00     0.240 C 
HETATM    7  N1  UNL     1       8.412   1.423  26.491  1.00  0.00    -0.359 N 
HETATM    8  O1  UNL     1       9.282   3.532  26.847  1.00  0.00    -0.271 OA
HETATM    9  C3  UNL     1       8.012   0.433  25.470  1.00  0.00     0.127 C 
ATOM     10  H1  UNL     1       8.401   1.200  27.486  1.00  0.00     0.162 HD
HETATM   11  C2  UNL     1       9.046   0.595  24.377  1.00  0.00     0.002 C 
HETATM   12  C1  UNL     1       8.891  -0.609  23.439  1.00  0.00     0.011 C 
HETATM   13  C17 UNL     1       9.007   1.882  23.665  1.00  0.00     0.040 C 
ENDBRANCH   3   5
ENDBRANCH   1   3
BRANCH   1  14
HETATM   14  N3  UNL     1       9.469   6.259  22.775  1.00  0.00    -0.367 N 
ATOM     15  H3  UNL     1       9.400   6.219  21.759  1.00  0.00     0.161 HD
BRANCH  14  16
HETATM   16  C7  UNL     1      10.267   7.304  23.403  1.00  0.00     0.122 C 
BRANCH  16  17
HETATM   17  C8  UNL     1      11.718   6.980  23.306  1.00  0.00     0.024 C 
BRANCH  17  18
HETATM   18  C9  UNL     1      12.482   8.200  22.800  1.00  0.00    -0.013 C 
HETATM   19  C10 UNL     1      12.849   8.009  21.339  1.00  0.00     0.005 C 
HETATM   20  C11 UNL     1      12.761   9.372  20.639  1.00  0.00     0.000 C 
HETATM   21  C12 UNL     1      13.893  10.277  20.998  1.00  0.00     0.000 C 
HETATM   22  C13 UNL     1      13.712  11.097  22.224  1.00  0.00     0.000 C 
HETATM   23  C14 UNL     1      14.507  10.610  23.420  1.00  0.00     0.000 C 
HETATM   24  C15 UNL     1      13.682   9.671  24.308  1.00  0.00     0.000 C 
HETATM   25  C16 UNL     1      13.736   8.326  23.648  1.00  0.00     0.005 C 
ENDBRANCH  17  18
ENDBRANCH  16  17
ENDBRANCH  14  16
ENDBRANCH   1  14
TORSDOF 6
ENDMDL
