MODEL 1
REMARK VINA RESULT: -7.807917821      0.000      0.000
REMARK  8 active torsions:
REMARK  status: ('A' for Active; 'I' for Inactive)
REMARK    1  A    between atoms: N1_1  and  C1_4 
REMARK    2  A    between atoms: C3_8  and  C4_9 
REMARK    3  A    between atoms: C5_10  and  C6_11 
REMARK    4  A    between atoms: C6_11  and  C7_12 
REMARK    5  A    between atoms: C7_12  and  N3_13 
REMARK    6  A    between atoms: N3_13  and  C8_14 
REMARK       I    between atoms: N3_13  and  C9_16 
REMARK    7  A    between atoms: C9_16  and  C10_18 
REMARK    8  A    between atoms: C20_28  and  N4_29 
ROOT
HETATM    1  C6  UNL     1      10.125   6.278  23.993  1.00  0.00     0.114 C 
ENDROOT
BRANCH   1   2
HETATM    2  C5  UNL     1       9.759   4.909  24.251  1.00  0.00    -0.099 C 
HETATM    3  C4  UNL     1       9.486   3.761  24.495  1.00  0.00    -0.062 C 
BRANCH   3   4
HETATM    4  C3  UNL     1       9.162   2.391  24.775  1.00  0.00     0.077 A 
HETATM    5  C2  UNL     1       9.587   1.355  23.967  1.00  0.00     0.130 A 
HETATM    6  N2  UNL     1       9.257   0.069  24.269  1.00  0.00    -0.201 N 
HETATM    7  C1  UNL     1       8.517  -0.240  25.349  1.00  0.00     0.677 A 
ATOM      8  H2  UNL     1       9.579  -0.682  23.658  1.00  0.00     0.183 HD
HETATM    9  N5  UNL     1       8.097   0.759  26.145  1.00  0.00    -0.176 N 
HETATM   10  C20 UNL     1       8.404   2.041  25.877  1.00  0.00     0.135 A 
ATOM     11  H5  UNL     1       7.535   0.541  26.968  1.00  0.00     0.186 HD
BRANCH   7  12
HETATM   12  N1  UNL     1       8.193  -1.463  25.652  1.00  0.00    -0.234 N 
ATOM     13  H12 UNL     1       8.462  -2.215  25.019  1.00  0.00     0.174 HD
ATOM     14  H11 UNL     1       7.680  -1.702  26.501  1.00  0.00     0.174 HD
ENDBRANCH   7  12
BRANCH  10  15
HETATM   15  N4  UNL     1       7.997   2.998  26.646  1.00  0.00    -0.384 N 
ATOM     16  H42 UNL     1       8.606   3.784  26.873  1.00  0.00     0.157 HD
ATOM     17  H41 UNL     1       7.048   2.932  27.014  1.00  0.00     0.157 HD
ENDBRANCH  10  15
ENDBRANCH   3   4
ENDBRANCH   1   2
BRANCH   1  18
HETATM   18  C7  UNL     1       9.237   7.355  24.455  1.00  0.00     0.144 C 
BRANCH  18  19
HETATM   19  N3  UNL     1       8.530   8.164  23.519  1.00  0.00    -0.317 N 
HETATM   20  C9  UNL     1       7.108   8.127  23.470  1.00  0.00     0.229 C 
HETATM   21  O1  UNL     1       6.549   8.920  22.637  1.00  0.00    -0.273 OA
BRANCH  19  22
HETATM   22  C8  UNL     1       9.189   8.963  22.520  1.00  0.00     0.179 C 
HETATM   23 CL1  UNL     1      10.711   9.680  22.961  1.00  0.00    -0.078 Cl
ENDBRANCH  19  22
BRANCH  20  24
HETATM   24  C10 UNL     1       6.204   7.296  24.247  1.00  0.00     0.086 C 
HETATM   25  C11 UNL     1       5.903   7.836  25.627  1.00  0.00    -0.000 C 
HETATM   26  C12 UNL     1       5.408   6.628  26.436  1.00  0.00     0.010 C 
HETATM   27  C16 UNL     1       4.879   8.903  25.696  1.00  0.00     0.010 C 
HETATM   28  C13 UNL     1       4.164   6.104  25.764  1.00  0.00    -0.013 C 
HETATM   29  C14 UNL     1       3.096   7.168  25.862  1.00  0.00     0.009 C 
HETATM   30  C19 UNL     1       4.409   5.678  24.337  1.00  0.00     0.010 C 
HETATM   31  C15 UNL     1       3.590   8.379  25.096  1.00  0.00    -0.013 C 
HETATM   32  C17 UNL     1       3.820   7.931  23.669  1.00  0.00     0.010 C 
HETATM   33  C18 UNL     1       4.918   6.906  23.563  1.00  0.00    -0.000 C 
ENDBRANCH  20  24
ENDBRANCH  18  19
ENDBRANCH   1  18
TORSDOF 8
ENDMDL
MODEL 2
REMARK VINA RESULT: -7.754949634      0.802      1.199
REMARK  8 active torsions:
REMARK  status: ('A' for Active; 'I' for Inactive)
REMARK    1  A    between atoms: N1_1  and  C1_4 
REMARK    2  A    between atoms: C3_8  and  C4_9 
REMARK    3  A    between atoms: C5_10  and  C6_11 
REMARK    4  A    between atoms: C6_11  and  C7_12 
REMARK    5  A    between atoms: C7_12  and  N3_13 
REMARK    6  A    between atoms: N3_13  and  C8_14 
REMARK       I    between atoms: N3_13  and  C9_16 
REMARK    7  A    between atoms: C9_16  and  C10_18 
REMARK    8  A    between atoms: C20_28  and  N4_29 
ROOT
HETATM    1  C6  UNL     1      10.242   6.065  23.886  1.00  0.00     0.114 C 
ENDROOT
BRANCH   1   2
HETATM    2  C5  UNL     1       9.864   4.703  24.157  1.00  0.00    -0.099 C 
HETATM    3  C4  UNL     1       9.537   3.574  24.424  1.00  0.00    -0.062 C 
BRANCH   3   4
HETATM    4  C3  UNL     1       9.157   2.226  24.741  1.00  0.00     0.077 A 
HETATM    5  C2  UNL     1       9.489   1.159  23.929  1.00  0.00     0.130 A 
HETATM    6  N2  UNL     1       9.109  -0.104  24.266  1.00  0.00    -0.201 N 
HETATM    7  C1  UNL     1       8.407  -0.360  25.385  1.00  0.00     0.677 A 
ATOM      8  H2  UNL     1       9.363  -0.878  23.652  1.00  0.00     0.183 HD
HETATM    9  N5  UNL     1       8.077   0.669  26.184  1.00  0.00    -0.176 N 
HETATM   10  C20 UNL     1       8.436   1.930  25.882  1.00  0.00     0.135 A 
ATOM     11  H5  UNL     1       7.544   0.491  27.035  1.00  0.00     0.186 HD
BRANCH   7  12
HETATM   12  N1  UNL     1       8.035  -1.560  25.721  1.00  0.00    -0.234 N 
ATOM     13  H12 UNL     1       7.721  -2.201  24.992  1.00  0.00     0.174 HD
ATOM     14  H11 UNL     1       8.046  -1.890  26.686  1.00  0.00     0.174 HD
ENDBRANCH   7  12
BRANCH  10  15
HETATM   15  N4  UNL     1       8.115   2.916  26.654  1.00  0.00    -0.384 N 
ATOM     16  H42 UNL     1       7.232   2.917  27.165  1.00  0.00     0.157 HD
ATOM     17  H41 UNL     1       8.778   3.688  26.729  1.00  0.00     0.157 HD
ENDBRANCH  10  15
ENDBRANCH   3   4
ENDBRANCH   1   2
BRANCH   1  18
HETATM   18  C7  UNL     1       9.493   6.829  22.878  1.00  0.00     0.144 C 
BRANCH  18  19
HETATM   19  N3  UNL     1       9.071   8.164  23.145  1.00  0.00    -0.317 N 
HETATM   20  C9  UNL     1       7.731   8.425  23.547  1.00  0.00     0.229 C 
HETATM   21  O1  UNL     1       7.447   9.643  23.815  1.00  0.00    -0.273 OA
BRANCH  19  22
HETATM   22  C8  UNL     1       9.914   9.309  22.927  1.00  0.00     0.179 C 
HETATM   23 CL1  UNL     1      11.312   9.466  23.950  1.00  0.00    -0.078 Cl
ENDBRANCH  19  22
BRANCH  20  24
HETATM   24  C10 UNL     1       6.635   7.480  23.687  1.00  0.00     0.086 C 
HETATM   25  C11 UNL     1       6.791   6.525  24.850  1.00  0.00    -0.000 C 
HETATM   26  C12 UNL     1       5.875   5.337  24.523  1.00  0.00     0.010 C 
HETATM   27  C16 UNL     1       6.419   7.058  26.180  1.00  0.00     0.010 C 
HETATM   28  C13 UNL     1       4.464   5.859  24.421  1.00  0.00    -0.013 C 
HETATM   29  C14 UNL     1       4.055   6.369  25.783  1.00  0.00     0.009 C 
HETATM   30  C19 UNL     1       4.309   6.913  23.352  1.00  0.00     0.010 C 
HETATM   31  C15 UNL     1       4.977   7.522  26.131  1.00  0.00    -0.013 C 
HETATM   32  C17 UNL     1       4.798   8.568  25.053  1.00  0.00     0.010 C 
HETATM   33  C18 UNL     1       5.251   8.077  23.702  1.00  0.00    -0.000 C 
ENDBRANCH  20  24
ENDBRANCH  18  19
ENDBRANCH   1  18
TORSDOF 8
ENDMDL
MODEL 3
REMARK VINA RESULT: -7.732791447      2.168      2.865
REMARK  8 active torsions:
REMARK  status: ('A' for Active; 'I' for Inactive)
REMARK    1  A    between atoms: N1_1  and  C1_4 
REMARK    2  A    between atoms: C3_8  and  C4_9 
REMARK    3  A    between atoms: C5_10  and  C6_11 
REMARK    4  A    between atoms: C6_11  and  C7_12 
REMARK    5  A    between atoms: C7_12  and  N3_13 
REMARK    6  A    between atoms: N3_13  and  C8_14 
REMARK       I    between atoms: N3_13  and  C9_16 
REMARK    7  A    between atoms: C9_16  and  C10_18 
REMARK    8  A    between atoms: C20_28  and  N4_29 
ROOT
HETATM    1  C6  UNL     1       9.527   6.495  24.830  1.00  0.00     0.114 C 
ENDROOT
BRANCH   1   2
HETATM    2  C5  UNL     1       9.389   5.061  24.815  1.00  0.00    -0.099 C 
HETATM    3  C4  UNL     1       9.243   3.865  24.834  1.00  0.00    -0.062 C 
BRANCH   3   4
HETATM    4  C3  UNL     1       9.079   2.439  24.859  1.00  0.00     0.077 A 
HETATM    5  C2  UNL     1       9.635   1.618  23.896  1.00  0.00     0.130 A 
HETATM    6  N2  UNL     1       9.455   0.270  23.957  1.00  0.00    -0.201 N 
HETATM    7  C1  UNL     1       8.741  -0.307  24.940  1.00  0.00     0.677 A 
ATOM      8  H2  UNL     1       9.872  -0.318  23.236  1.00  0.00     0.183 HD
HETATM    9  N5  UNL     1       8.195   0.479  25.884  1.00  0.00    -0.176 N 
HETATM   10  C20 UNL     1       8.352   1.815  25.855  1.00  0.00     0.135 A 
ATOM     11  H5  UNL     1       7.650   0.056  26.635  1.00  0.00     0.186 HD
BRANCH   7  12
HETATM   12  N1  UNL     1       8.559  -1.594  25.013  1.00  0.00    -0.234 N 
ATOM     13  H12 UNL     1       9.321  -2.215  24.743  1.00  0.00     0.174 HD
ATOM     14  H11 UNL     1       7.683  -2.008  25.331  1.00  0.00     0.174 HD
ENDBRANCH   7  12
BRANCH  10  15
HETATM   15  N4  UNL     1       7.824   2.567  26.765  1.00  0.00    -0.384 N 
ATOM     16  H42 UNL     1       7.330   3.425  26.515  1.00  0.00     0.157 HD
ATOM     17  H41 UNL     1       7.923   2.269  27.735  1.00  0.00     0.157 HD
ENDBRANCH  10  15
ENDBRANCH   3   4
ENDBRANCH   1   2
BRANCH   1  18
HETATM   18  C7  UNL     1       9.110   7.242  26.025  1.00  0.00     0.144 C 
BRANCH  18  19
HETATM   19  N3  UNL     1       8.142   6.699  26.919  1.00  0.00    -0.317 N 
HETATM   20  C9  UNL     1       6.765   6.675  26.558  1.00  0.00     0.229 C 
HETATM   21  O1  UNL     1       5.969   6.126  27.394  1.00  0.00    -0.273 OA
BRANCH  19  22
HETATM   22  C8  UNL     1       8.467   6.254  28.248  1.00  0.00     0.179 C 
HETATM   23 CL1  UNL     1       9.546   4.896  28.384  1.00  0.00    -0.078 Cl
ENDBRANCH  19  22
BRANCH  20  24
HETATM   24  C10 UNL     1       6.144   7.202  25.353  1.00  0.00     0.086 C 
HETATM   25  C11 UNL     1       5.072   6.308  24.772  1.00  0.00    -0.000 C 
HETATM   26  C12 UNL     1       4.933   6.743  23.306  1.00  0.00     0.010 C 
HETATM   27  C16 UNL     1       3.742   6.389  25.417  1.00  0.00     0.010 C 
HETATM   28  C13 UNL     1       4.514   8.192  23.294  1.00  0.00    -0.013 C 
HETATM   29  C14 UNL     1       3.139   8.285  23.913  1.00  0.00     0.009 C 
HETATM   30  C19 UNL     1       5.508   9.091  23.986  1.00  0.00     0.010 C 
HETATM   31  C15 UNL     1       3.257   7.823  25.353  1.00  0.00    -0.013 C 
HETATM   32  C17 UNL     1       4.251   8.744  26.028  1.00  0.00     0.010 C 
HETATM   33  C18 UNL     1       5.633   8.617  25.444  1.00  0.00    -0.000 C 
ENDBRANCH  20  24
ENDBRANCH  18  19
ENDBRANCH   1  18
TORSDOF 8
ENDMDL
MODEL 4
REMARK VINA RESULT: -7.692881787      2.273      3.144
REMARK  8 active torsions:
REMARK  status: ('A' for Active; 'I' for Inactive)
REMARK    1  A    between atoms: N1_1  and  C1_4 
REMARK    2  A    between atoms: C3_8  and  C4_9 
REMARK    3  A    between atoms: C5_10  and  C6_11 
REMARK    4  A    between atoms: C6_11  and  C7_12 
REMARK    5  A    between atoms: C7_12  and  N3_13 
REMARK    6  A    between atoms: N3_13  and  C8_14 
REMARK       I    between atoms: N3_13  and  C9_16 
REMARK    7  A    between atoms: C9_16  and  C10_18 
REMARK    8  A    between atoms: C20_28  and  N4_29 
ROOT
HETATM    1  C6  UNL     1       9.495   6.474  24.889  1.00  0.00     0.114 C 
ENDROOT
BRANCH   1   2
HETATM    2  C5  UNL     1       9.333   5.043  24.866  1.00  0.00    -0.099 C 
HETATM    3  C4  UNL     1       9.187   3.847  24.888  1.00  0.00    -0.062 C 
BRANCH   3   4
HETATM    4  C3  UNL     1       9.022   2.421  24.913  1.00  0.00     0.077 A 
HETATM    5  C2  UNL     1       8.723   1.735  26.074  1.00  0.00     0.130 A 
HETATM    6  N2  UNL     1       8.576   0.382  26.054  1.00  0.00    -0.201 N 
HETATM    7  C1  UNL     1       8.712  -0.330  24.920  1.00  0.00     0.677 A 
ATOM      8  H2  UNL     1       8.356  -0.106  26.922  1.00  0.00     0.183 HD
HETATM    9  N5  UNL     1       9.003   0.325  23.783  1.00  0.00    -0.176 N 
HETATM   10  C20 UNL     1       9.155   1.661  23.766  1.00  0.00     0.135 A 
ATOM     11  H5  UNL     1       9.110  -0.202  22.916  1.00  0.00     0.186 HD
BRANCH   7  12
HETATM   12  N1  UNL     1       8.575  -1.623  24.883  1.00  0.00    -0.234 N 
ATOM     13  H12 UNL     1       7.722  -2.039  25.257  1.00  0.00     0.174 HD
ATOM     14  H11 UNL     1       9.286  -2.241  24.492  1.00  0.00     0.174 HD
ENDBRANCH   7  12
BRANCH  10  15
HETATM   15  N4  UNL     1       9.435   2.285  22.669  1.00  0.00    -0.384 N 
ATOM     16  H42 UNL     1      10.227   2.002  22.091  1.00  0.00     0.157 HD
ATOM     17  H41 UNL     1       8.836   3.068  22.409  1.00  0.00     0.157 HD
ENDBRANCH  10  15
ENDBRANCH   3   4
ENDBRANCH   1   2
BRANCH   1  18
HETATM   18  C7  UNL     1       9.094   7.220  26.091  1.00  0.00     0.144 C 
BRANCH  18  19
HETATM   19  N3  UNL     1       8.123   6.686  26.986  1.00  0.00    -0.317 N 
HETATM   20  C9  UNL     1       6.745   6.676  26.629  1.00  0.00     0.229 C 
HETATM   21  O1  UNL     1       5.945   6.134  27.466  1.00  0.00    -0.273 OA
BRANCH  19  22
HETATM   22  C8  UNL     1       8.447   6.235  28.314  1.00  0.00     0.179 C 
HETATM   23 CL1  UNL     1       9.252   4.699  28.451  1.00  0.00    -0.078 Cl
ENDBRANCH  19  22
BRANCH  20  24
HETATM   24  C10 UNL     1       6.126   7.212  25.427  1.00  0.00     0.086 C 
HETATM   25  C11 UNL     1       5.087   6.302  24.811  1.00  0.00    -0.000 C 
HETATM   26  C12 UNL     1       4.957   6.765  23.353  1.00  0.00     0.010 C 
HETATM   27  C16 UNL     1       3.747   6.331  25.438  1.00  0.00     0.010 C 
HETATM   28  C13 UNL     1       4.496   8.201  23.367  1.00  0.00    -0.013 C 
HETATM   29  C14 UNL     1       3.111   8.242  23.968  1.00  0.00     0.009 C 
HETATM   30  C19 UNL     1       5.455   9.112  24.092  1.00  0.00     0.010 C 
HETATM   31  C15 UNL     1       3.222   7.752  25.399  1.00  0.00    -0.013 C 
HETATM   32  C17 UNL     1       4.180   8.685  26.108  1.00  0.00     0.010 C 
HETATM   33  C18 UNL     1       5.574   8.610  25.541  1.00  0.00    -0.000 C 
ENDBRANCH  20  24
ENDBRANCH  18  19
ENDBRANCH   1  18
TORSDOF 8
ENDMDL
MODEL 5
REMARK VINA RESULT: -7.678135740      2.978      6.073
REMARK  8 active torsions:
REMARK  status: ('A' for Active; 'I' for Inactive)
REMARK    1  A    between atoms: N1_1  and  C1_4 
REMARK    2  A    between atoms: C3_8  and  C4_9 
REMARK    3  A    between atoms: C5_10  and  C6_11 
REMARK    4  A    between atoms: C6_11  and  C7_12 
REMARK    5  A    between atoms: C7_12  and  N3_13 
REMARK    6  A    between atoms: N3_13  and  C8_14 
REMARK       I    between atoms: N3_13  and  C9_16 
REMARK    7  A    between atoms: C9_16  and  C10_18 
REMARK    8  A    between atoms: C20_28  and  N4_29 
ROOT
HETATM    1  C6  UNL     1       9.759   6.352  24.322  1.00  0.00     0.114 C 
ENDROOT
BRANCH   1   2
HETATM    2  C5  UNL     1       9.517   4.948  24.535  1.00  0.00    -0.099 C 
HETATM    3  C4  UNL     1       9.320   3.767  24.671  1.00  0.00    -0.062 C 
BRANCH   3   4
HETATM    4  C3  UNL     1       9.076   2.362  24.837  1.00  0.00     0.077 A 
HETATM    5  C2  UNL     1       9.507   1.427  23.916  1.00  0.00     0.130 A 
HETATM    6  N2  UNL     1       9.255   0.104  24.110  1.00  0.00    -0.201 N 
HETATM    7  C1  UNL     1       8.588  -0.340  25.191  1.00  0.00     0.677 A 
ATOM      8  H2  UNL     1       9.580  -0.570  23.418  1.00  0.00     0.183 HD
HETATM    9  N5  UNL     1       8.163   0.559  26.097  1.00  0.00    -0.176 N 
HETATM   10  C20 UNL     1       8.395   1.874  25.936  1.00  0.00     0.135 A 
ATOM     11  H5  UNL     1       7.655   0.237  26.920  1.00  0.00     0.186 HD
BRANCH   7  12
HETATM   12  N1  UNL     1       8.338  -1.601  25.393  1.00  0.00    -0.234 N 
ATOM     13  H12 UNL     1       8.204  -2.211  24.587  1.00  0.00     0.174 HD
ATOM     14  H11 UNL     1       8.271  -2.006  26.326  1.00  0.00     0.174 HD
ENDBRANCH   7  12
BRANCH  10  15
HETATM   15  N4  UNL     1       7.983   2.734  26.810  1.00  0.00    -0.384 N 
ATOM     16  H42 UNL     1       8.511   2.906  27.666  1.00  0.00     0.157 HD
ATOM     17  H41 UNL     1       7.114   3.228  26.608  1.00  0.00     0.157 HD
ENDBRANCH  10  15
ENDBRANCH   3   4
ENDBRANCH   1   2
BRANCH   1  18
HETATM   18  C7  UNL     1       9.555   6.917  22.980  1.00  0.00     0.144 C 
BRANCH  18  19
HETATM   19  N3  UNL     1       9.207   8.289  22.816  1.00  0.00    -0.317 N 
HETATM   20  C9  UNL     1      10.223   9.280  22.707  1.00  0.00     0.229 C 
HETATM   21  O1  UNL     1       9.826  10.480  22.512  1.00  0.00    -0.273 OA
BRANCH  19  22
HETATM   22  C8  UNL     1       7.848   8.761  22.858  1.00  0.00     0.179 C 
HETATM   23 CL1  UNL     1       6.614   7.586  23.209  1.00  0.00    -0.078 Cl
ENDBRANCH  19  22
BRANCH  20  24
HETATM   24  C10 UNL     1      11.663   9.102  22.795  1.00  0.00     0.086 C 
HETATM   25  C11 UNL     1      12.305   8.637  21.508  1.00  0.00    -0.000 C 
HETATM   26  C12 UNL     1      13.648   8.021  21.925  1.00  0.00     0.010 C 
HETATM   27  C16 UNL     1      12.561   9.687  20.496  1.00  0.00     0.010 C 
HETATM   28  C13 UNL     1      14.463   9.102  22.592  1.00  0.00    -0.013 C 
HETATM   29  C14 UNL     1      14.766  10.162  21.559  1.00  0.00     0.009 C 
HETATM   30  C19 UNL     1      13.781   9.676  23.809  1.00  0.00     0.010 C 
HETATM   31  C15 UNL     1      13.442  10.754  21.113  1.00  0.00    -0.013 C 
HETATM   32  C17 UNL     1      12.783  11.330  22.347  1.00  0.00     0.010 C 
HETATM   33  C18 UNL     1      12.435  10.268  23.358  1.00  0.00    -0.000 C 
ENDBRANCH  20  24
ENDBRANCH  18  19
ENDBRANCH   1  18
TORSDOF 8
ENDMDL
