MODEL 1
REMARK VINA RESULT: -8.096983558      0.000      0.000
REMARK  8 active torsions:
REMARK  status: ('A' for Active; 'I' for Inactive)
REMARK    1  A    between atoms: C2_2  and  C3_3 
REMARK    2  A    between atoms: C8_8  and  C9_9 
REMARK    3  A    between atoms: C9_9  and  N1_10 
REMARK       I    between atoms: N1_10  and  C10_12 
REMARK    4  A    between atoms: C10_12  and  C11_14 
REMARK       I    between atoms: C11_14  and  N2_16 
REMARK    5  A    between atoms: N2_16  and  N3_18 
REMARK    6  A    between atoms: N3_18  and  C12_20 
REMARK    7  A    between atoms: C12_20  and  N4_22 
REMARK    8  A    between atoms: N4_22  and  C13_24 
ROOT
HETATM    1  C11 UNL     1      11.689   7.586  22.516  1.00  0.00     0.328 C 
HETATM    2  O2  UNL     1      10.854   8.471  22.296  1.00  0.00    -0.261 OA
HETATM    3  N2  UNL     1      11.359   6.408  23.242  1.00  0.00    -0.260 N 
ATOM      4  H2  UNL     1      12.046   5.668  23.378  1.00  0.00     0.190 HD
ENDROOT
BRANCH   1   5
HETATM    5  C10 UNL     1      13.106   7.800  22.019  1.00  0.00     0.315 C 
HETATM    6  N1  UNL     1      13.301   9.036  21.372  1.00  0.00    -0.328 N 
ATOM      7  H1  UNL     1      12.382   9.476  21.415  1.00  0.00     0.168 HD
HETATM    8  O1  UNL     1      13.961   6.965  22.196  1.00  0.00    -0.262 OA
BRANCH   6   9
HETATM    9  C9  UNL     1      14.070   9.962  20.715  1.00  0.00     0.103 C 
BRANCH   9  10
HETATM   10  C8  UNL     1      13.682  11.276  20.230  1.00  0.00    -0.011 A 
HETATM   11  C3  UNL     1      14.769  12.183  20.102  1.00  0.00    -0.025 A 
HETATM   12  C4  UNL     1      14.645  13.376  19.507  1.00  0.00     0.012 A 
HETATM   13  C5  UNL     1      13.404  13.777  18.983  1.00  0.00     0.001 A 
HETATM   14  C6  UNL     1      12.308  12.906  19.096  1.00  0.00     0.001 A 
HETATM   15  C7  UNL     1      12.516  11.661  19.730  1.00  0.00     0.013 A 
BRANCH  11  16
HETATM   16  C2  UNL     1      15.955  11.718  20.829  1.00  0.00     0.002 C 
HETATM   17  C1  UNL     1      16.997  12.456  20.923  1.00  0.00     0.012 C 
ENDBRANCH  11  16
ENDBRANCH   9  10
ENDBRANCH   6   9
ENDBRANCH   1   5
BRANCH   3  18
HETATM   18  N3  UNL     1      10.038   6.289  23.774  1.00  0.00    -0.273 N 
ATOM     19  H3  UNL     1       9.818   6.754  24.656  1.00  0.00     0.189 HD
BRANCH  18  20
HETATM   20  C12 UNL     1       9.047   5.566  23.134  1.00  0.00     0.191 C 
HETATM   21  S1  UNL     1       7.610   6.320  22.816  1.00  0.00    -0.039 SA
BRANCH  20  22
HETATM   22  N4  UNL     1       9.229   4.245  22.784  1.00  0.00    -0.332 N 
ATOM     23  H4  UNL     1       9.511   4.104  21.815  1.00  0.00     0.168 HD
BRANCH  22  24
HETATM   24  C13 UNL     1       9.093   3.050  23.531  1.00  0.00     0.034 A 
HETATM   25  C14 UNL     1       8.555   3.129  24.848  1.00  0.00     0.031 A 
HETATM   26  C15 UNL     1       8.302   2.036  25.597  1.00  0.00     0.026 A 
HETATM   27  C16 UNL     1       8.541   0.761  25.136  1.00  0.00     0.034 A 
HETATM   28 CL1  UNL     1       8.168  -0.653  26.058  1.00  0.00    -0.084 Cl
HETATM   29  C17 UNL     1       9.078   0.676  23.839  1.00  0.00     0.026 A 
HETATM   30  C18 UNL     1       9.332   1.790  23.094  1.00  0.00     0.031 A 
ENDBRANCH  22  24
ENDBRANCH  20  22
ENDBRANCH  18  20
ENDBRANCH   3  18
TORSDOF 8
ENDMDL
MODEL 2
REMARK VINA RESULT: -7.969747961      1.166      1.458
REMARK  8 active torsions:
REMARK  status: ('A' for Active; 'I' for Inactive)
REMARK    1  A    between atoms: C2_2  and  C3_3 
REMARK    2  A    between atoms: C8_8  and  C9_9 
REMARK    3  A    between atoms: C9_9  and  N1_10 
REMARK       I    between atoms: N1_10  and  C10_12 
REMARK    4  A    between atoms: C10_12  and  C11_14 
REMARK       I    between atoms: C11_14  and  N2_16 
REMARK    5  A    between atoms: N2_16  and  N3_18 
REMARK    6  A    between atoms: N3_18  and  C12_20 
REMARK    7  A    between atoms: C12_20  and  N4_22 
REMARK    8  A    between atoms: N4_22  and  C13_24 
ROOT
HETATM    1  C11 UNL     1      12.838   7.761  22.215  1.00  0.00     0.328 C 
HETATM    2  O2  UNL     1      13.810   7.339  22.852  1.00  0.00    -0.261 OA
HETATM    3  N2  UNL     1      11.521   7.279  22.452  1.00  0.00    -0.260 N 
ATOM      4  H2  UNL     1      10.723   7.668  21.950  1.00  0.00     0.190 HD
ENDROOT
BRANCH   1   5
HETATM    5  C10 UNL     1      13.086   8.796  21.134  1.00  0.00     0.315 C 
HETATM    6  N1  UNL     1      14.152   9.671  21.417  1.00  0.00    -0.328 N 
ATOM      7  H1  UNL     1      14.487   9.353  22.327  1.00  0.00     0.168 HD
HETATM    8  O1  UNL     1      12.413   8.821  20.131  1.00  0.00    -0.262 OA
BRANCH   6   9
HETATM    9  C9  UNL     1      14.979  10.723  21.120  1.00  0.00     0.103 C 
BRANCH   9  10
HETATM   10  C8  UNL     1      14.660  11.948  20.406  1.00  0.00    -0.011 A 
HETATM   11  C3  UNL     1      15.796  12.748  20.105  1.00  0.00    -0.025 A 
HETATM   12  C4  UNL     1      15.730  13.818  19.302  1.00  0.00     0.012 A 
HETATM   13  C5  UNL     1      14.505  14.191  18.724  1.00  0.00     0.001 A 
HETATM   14  C6  UNL     1      13.363  13.425  19.005  1.00  0.00     0.001 A 
HETATM   15  C7  UNL     1      13.510  12.306  19.854  1.00  0.00     0.013 A 
BRANCH  11  16
HETATM   16  C2  UNL     1      16.967  12.352  20.895  1.00  0.00     0.002 C 
HETATM   17  C1  UNL     1      17.964  13.143  21.030  1.00  0.00     0.012 C 
ENDBRANCH  11  16
ENDBRANCH   9  10
ENDBRANCH   6   9
ENDBRANCH   1   5
BRANCH   3  18
HETATM   18  N3  UNL     1      11.345   6.236  23.414  1.00  0.00    -0.273 N 
ATOM     19  H3  UNL     1      12.168   5.745  23.764  1.00  0.00     0.189 HD
BRANCH  18  20
HETATM   20  C12 UNL     1      10.096   5.870  23.884  1.00  0.00     0.191 C 
HETATM   21  S1  UNL     1       9.469   6.703  25.167  1.00  0.00    -0.039 SA
BRANCH  20  22
HETATM   22  N4  UNL     1       9.390   4.827  23.323  1.00  0.00    -0.332 N 
ATOM     23  H4  UNL     1       8.857   5.081  22.492  1.00  0.00     0.168 HD
BRANCH  22  24
HETATM   24  C13 UNL     1       9.274   3.467  23.696  1.00  0.00     0.034 A 
HETATM   25  C14 UNL     1       8.723   3.157  24.973  1.00  0.00     0.031 A 
HETATM   26  C15 UNL     1       8.487   1.891  25.376  1.00  0.00     0.026 A 
HETATM   27  C16 UNL     1       8.756   0.805  24.574  1.00  0.00     0.034 A 
HETATM   28 CL1  UNL     1       8.405  -0.819  25.049  1.00  0.00    -0.084 Cl
HETATM   29  C17 UNL     1       9.305   1.103  23.314  1.00  0.00     0.026 A 
HETATM   30  C18 UNL     1       9.541   2.388  22.921  1.00  0.00     0.031 A 
ENDBRANCH  22  24
ENDBRANCH  20  22
ENDBRANCH  18  20
ENDBRANCH   3  18
TORSDOF 8
ENDMDL
MODEL 3
REMARK VINA RESULT: -7.934389703      0.524      1.038
REMARK  8 active torsions:
REMARK  status: ('A' for Active; 'I' for Inactive)
REMARK    1  A    between atoms: C2_2  and  C3_3 
REMARK    2  A    between atoms: C8_8  and  C9_9 
REMARK    3  A    between atoms: C9_9  and  N1_10 
REMARK       I    between atoms: N1_10  and  C10_12 
REMARK    4  A    between atoms: C10_12  and  C11_14 
REMARK       I    between atoms: C11_14  and  N2_16 
REMARK    5  A    between atoms: N2_16  and  N3_18 
REMARK    6  A    between atoms: N3_18  and  C12_20 
REMARK    7  A    between atoms: C12_20  and  N4_22 
REMARK    8  A    between atoms: N4_22  and  C13_24 
ROOT
HETATM    1  C11 UNL     1      11.888   7.745  22.338  1.00  0.00     0.328 C 
HETATM    2  O2  UNL     1      11.028   8.582  22.039  1.00  0.00    -0.261 OA
HETATM    3  N2  UNL     1      11.584   6.617  23.150  1.00  0.00    -0.260 N 
ATOM      4  H2  UNL     1      12.293   5.913  23.353  1.00  0.00     0.190 HD
ENDROOT
BRANCH   1   5
HETATM    5  C10 UNL     1      13.305   7.967  21.844  1.00  0.00     0.315 C 
HETATM    6  N1  UNL     1      13.505   9.223  21.238  1.00  0.00    -0.328 N 
ATOM      7  H1  UNL     1      12.589   9.667  21.299  1.00  0.00     0.168 HD
HETATM    8  O1  UNL     1      14.155   7.122  21.991  1.00  0.00    -0.262 OA
BRANCH   6   9
HETATM    9  C9  UNL     1      14.278  10.165  20.610  1.00  0.00     0.103 C 
BRANCH   9  10
HETATM   10  C8  UNL     1      13.879  11.468  20.104  1.00  0.00    -0.011 A 
HETATM   11  C3  UNL     1      14.949  12.398  20.007  1.00  0.00    -0.025 A 
HETATM   12  C4  UNL     1      14.820  13.585  19.400  1.00  0.00     0.012 A 
HETATM   13  C5  UNL     1      13.589  13.954  18.831  1.00  0.00     0.001 A 
HETATM   14  C6  UNL     1      12.509  13.061  18.914  1.00  0.00     0.001 A 
HETATM   15  C7  UNL     1      12.723  11.824  19.562  1.00  0.00     0.013 A 
BRANCH  11  16
HETATM   16  C2  UNL     1      16.120  11.963  20.776  1.00  0.00     0.002 C 
HETATM   17  C1  UNL     1      17.176  12.686  20.827  1.00  0.00     0.012 C 
ENDBRANCH  11  16
ENDBRANCH   9  10
ENDBRANCH   6   9
ENDBRANCH   1   5
BRANCH   3  18
HETATM   18  N3  UNL     1      10.260   6.496  23.673  1.00  0.00    -0.273 N 
ATOM     19  H3  UNL     1       9.873   7.267  24.218  1.00  0.00     0.189 HD
BRANCH  18  20
HETATM   20  C12 UNL     1       9.485   5.369  23.465  1.00  0.00     0.191 C 
HETATM   21  S1  UNL     1       7.870   5.572  23.173  1.00  0.00    -0.039 SA
BRANCH  20  22
HETATM   22  N4  UNL     1      10.026   4.101  23.518  1.00  0.00    -0.332 N 
ATOM     23  H4  UNL     1      10.976   4.036  23.154  1.00  0.00     0.168 HD
BRANCH  22  24
HETATM   24  C13 UNL     1       9.497   2.876  23.987  1.00  0.00     0.034 A 
HETATM   25  C14 UNL     1       9.473   1.761  23.099  1.00  0.00     0.031 A 
HETATM   26  C15 UNL     1       9.075   0.531  23.485  1.00  0.00     0.026 A 
HETATM   27  C16 UNL     1       8.669   0.264  24.774  1.00  0.00     0.034 A 
HETATM   28 CL1  UNL     1       8.213  -1.317  25.302  1.00  0.00    -0.084 Cl
HETATM   29  C17 UNL     1       8.683   1.361  25.654  1.00  0.00     0.026 A 
HETATM   30  C18 UNL     1       9.086   2.599  25.248  1.00  0.00     0.031 A 
ENDBRANCH  22  24
ENDBRANCH  20  22
ENDBRANCH  18  20
ENDBRANCH   3  18
TORSDOF 8
ENDMDL
MODEL 4
REMARK VINA RESULT: -7.858653475      1.261      2.389
REMARK  8 active torsions:
REMARK  status: ('A' for Active; 'I' for Inactive)
REMARK    1  A    between atoms: C2_2  and  C3_3 
REMARK    2  A    between atoms: C8_8  and  C9_9 
REMARK    3  A    between atoms: C9_9  and  N1_10 
REMARK       I    between atoms: N1_10  and  C10_12 
REMARK    4  A    between atoms: C10_12  and  C11_14 
REMARK       I    between atoms: C11_14  and  N2_16 
REMARK    5  A    between atoms: N2_16  and  N3_18 
REMARK    6  A    between atoms: N3_18  and  C12_20 
REMARK    7  A    between atoms: C12_20  and  N4_22 
REMARK    8  A    between atoms: N4_22  and  C13_24 
ROOT
HETATM    1  C11 UNL     1      12.520   7.373  22.790  1.00  0.00     0.328 C 
HETATM    2  O2  UNL     1      12.897   6.195  22.778  1.00  0.00    -0.261 OA
HETATM    3  N2  UNL     1      11.141   7.717  22.852  1.00  0.00    -0.260 N 
ATOM      4  H2  UNL     1      10.847   8.692  22.905  1.00  0.00     0.190 HD
ENDROOT
BRANCH   1   5
HETATM    5  C10 UNL     1      13.572   8.462  22.700  1.00  0.00     0.315 C 
HETATM    6  N1  UNL     1      13.131   9.626  22.042  1.00  0.00    -0.328 N 
ATOM      7  H1  UNL     1      12.168   9.407  21.788  1.00  0.00     0.168 HD
HETATM    8  O1  UNL     1      14.671   8.306  23.177  1.00  0.00    -0.262 OA
BRANCH   6   9
HETATM    9  C9  UNL     1      13.308  10.898  21.561  1.00  0.00     0.103 C 
BRANCH   9  10
HETATM   10  C8  UNL     1      14.517  11.497  21.018  1.00  0.00    -0.011 A 
HETATM   11  C3  UNL     1      14.275  12.417  19.962  1.00  0.00    -0.025 A 
HETATM   12  C4  UNL     1      15.237  13.200  19.456  1.00  0.00     0.012 A 
HETATM   13  C5  UNL     1      16.545  13.128  19.964  1.00  0.00     0.001 A 
HETATM   14  C6  UNL     1      16.818  12.225  21.004  1.00  0.00     0.001 A 
HETATM   15  C7  UNL     1      15.753  11.437  21.493  1.00  0.00     0.013 A 
BRANCH  11  16
HETATM   16  C2  UNL     1      12.921  12.278  19.417  1.00  0.00     0.002 C 
HETATM   17  C1  UNL     1      12.290  13.295  18.962  1.00  0.00     0.012 C 
ENDBRANCH  11  16
ENDBRANCH   9  10
ENDBRANCH   6   9
ENDBRANCH   1   5
BRANCH   3  18
HETATM   18  N3  UNL     1      10.178   6.661  22.839  1.00  0.00    -0.273 N 
ATOM     19  H3  UNL     1       9.597   6.533  22.009  1.00  0.00     0.189 HD
BRANCH  18  20
HETATM   20  C12 UNL     1      10.008   5.806  23.913  1.00  0.00     0.191 C 
HETATM   21  S1  UNL     1       9.300   6.403  25.283  1.00  0.00    -0.039 SA
BRANCH  20  22
HETATM   22  N4  UNL     1      10.431   4.494  23.866  1.00  0.00    -0.332 N 
ATOM     23  H4  UNL     1      11.394   4.376  23.553  1.00  0.00     0.168 HD
BRANCH  22  24
HETATM   24  C13 UNL     1       9.767   3.283  24.175  1.00  0.00     0.034 A 
HETATM   25  C14 UNL     1       9.798   2.228  23.218  1.00  0.00     0.031 A 
HETATM   26  C15 UNL     1       9.276   1.009  23.462  1.00  0.00     0.026 A 
HETATM   27  C16 UNL     1       8.679   0.695  24.663  1.00  0.00     0.034 A 
HETATM   28 CL1  UNL     1       8.057  -0.879  25.016  1.00  0.00    -0.084 Cl
HETATM   29  C17 UNL     1       8.639   1.734  25.610  1.00  0.00     0.026 A 
HETATM   30  C18 UNL     1       9.169   2.963  25.348  1.00  0.00     0.031 A 
ENDBRANCH  22  24
ENDBRANCH  20  22
ENDBRANCH  18  20
ENDBRANCH   3  18
TORSDOF 8
ENDMDL
MODEL 5
REMARK VINA RESULT: -7.818030310      4.368     10.816
REMARK  8 active torsions:
REMARK  status: ('A' for Active; 'I' for Inactive)
REMARK    1  A    between atoms: C2_2  and  C3_3 
REMARK    2  A    between atoms: C8_8  and  C9_9 
REMARK    3  A    between atoms: C9_9  and  N1_10 
REMARK       I    between atoms: N1_10  and  C10_12 
REMARK    4  A    between atoms: C10_12  and  C11_14 
REMARK       I    between atoms: C11_14  and  N2_16 
REMARK    5  A    between atoms: N2_16  and  N3_18 
REMARK    6  A    between atoms: N3_18  and  C12_20 
REMARK    7  A    between atoms: C12_20  and  N4_22 
REMARK    8  A    between atoms: N4_22  and  C13_24 
ROOT
HETATM    1  C11 UNL     1      12.451   7.402  22.846  1.00  0.00     0.328 C 
HETATM    2  O2  UNL     1      13.115   6.361  22.770  1.00  0.00    -0.261 OA
HETATM    3  N2  UNL     1      13.070   8.681  22.911  1.00  0.00    -0.260 N 
ATOM      4  H2  UNL     1      12.510   9.533  22.930  1.00  0.00     0.190 HD
ENDROOT
BRANCH   1   5
HETATM    5  C10 UNL     1      10.940   7.284  22.904  1.00  0.00     0.315 C 
HETATM    6  N1  UNL     1      10.485   6.135  23.579  1.00  0.00    -0.328 N 
ATOM      7  H1  UNL     1      11.346   5.666  23.861  1.00  0.00     0.168 HD
HETATM    8  O1  UNL     1      10.231   8.131  22.415  1.00  0.00    -0.262 OA
BRANCH   6   9
HETATM    9  C9  UNL     1       9.499   5.312  24.059  1.00  0.00     0.103 C 
BRANCH   9  10
HETATM   10  C8  UNL     1       9.564   3.884  24.324  1.00  0.00    -0.011 A 
HETATM   11  C3  UNL     1       9.065   3.515  25.602  1.00  0.00    -0.025 A 
HETATM   12  C4  UNL     1       8.876   2.238  25.960  1.00  0.00     0.012 A 
HETATM   13  C5  UNL     1       9.179   1.202  25.059  1.00  0.00     0.001 A 
HETATM   14  C6  UNL     1       9.679   1.533  23.790  1.00  0.00     0.001 A 
HETATM   15  C7  UNL     1       9.844   2.901  23.480  1.00  0.00     0.013 A 
BRANCH  11  16
HETATM   16  C2  UNL     1       8.946   4.672  26.496  1.00  0.00     0.002 C 
HETATM   17  C1  UNL     1       9.105   4.542  27.759  1.00  0.00     0.012 C 
ENDBRANCH  11  16
ENDBRANCH   9  10
ENDBRANCH   6   9
ENDBRANCH   1   5
BRANCH   3  18
HETATM   18  N3  UNL     1      14.498   8.741  22.949  1.00  0.00    -0.273 N 
ATOM     19  H3  UNL     1      15.029   7.871  22.912  1.00  0.00     0.189 HD
BRANCH  18  20
HETATM   20  C12 UNL     1      15.183   9.940  23.035  1.00  0.00     0.191 C 
HETATM   21  S1  UNL     1      14.985  10.858  24.397  1.00  0.00    -0.039 SA
BRANCH  20  22
HETATM   22  N4  UNL     1      15.995  10.383  22.012  1.00  0.00    -0.332 N 
ATOM     23  H4  UNL     1      16.832   9.820  21.869  1.00  0.00     0.168 HD
BRANCH  22  24
HETATM   24  C13 UNL     1      15.873  11.480  21.127  1.00  0.00     0.034 A 
HETATM   25  C14 UNL     1      16.974  12.376  20.998  1.00  0.00     0.031 A 
HETATM   26  C15 UNL     1      16.985  13.393  20.113  1.00  0.00     0.026 A 
HETATM   27  C16 UNL     1      15.930  13.633  19.261  1.00  0.00     0.034 A 
HETATM   28 CL1  UNL     1      15.951  14.895  18.079  1.00  0.00    -0.084 Cl
HETATM   29  C17 UNL     1      14.837  12.758  19.387  1.00  0.00     0.026 A 
HETATM   30  C18 UNL     1      14.839  11.735  20.289  1.00  0.00     0.031 A 
ENDBRANCH  22  24
ENDBRANCH  20  22
ENDBRANCH  18  20
ENDBRANCH   3  18
TORSDOF 8
ENDMDL
