MODEL 1
REMARK VINA RESULT: -8.568833260      0.000      0.000
REMARK  4 active torsions:
REMARK  status: ('A' for Active; 'I' for Inactive)
REMARK       I    between atoms: C1_2  and  N1_3 
REMARK       I    between atoms: C1_2  and  N5_18 
REMARK    1  A    between atoms: N1_3  and  C2_5 
REMARK    2  A    between atoms: C5_12  and  C6_13 
REMARK    3  A    between atoms: N5_18  and  C8_20 
REMARK    4  A    between atoms: C8_20  and  C9_21 
ROOT
HETATM    1  O1  UNL     1      14.528  -3.721  29.713  1.00  0.00    -0.247 OA
HETATM    2  C1  UNL     1      15.512  -3.163  29.191  1.00  0.00     0.325 C 
HETATM    3  N1  UNL     1      15.731  -3.500  27.814  1.00  0.00    -0.291 N 
ATOM      4  H1  UNL     1      15.348  -2.892  27.091  1.00  0.00     0.172 HD
HETATM    5  N5  UNL     1      16.363  -2.278  29.843  1.00  0.00    -0.322 N 
ATOM      6  H5  UNL     1      17.130  -1.928  29.270  1.00  0.00     0.169 HD
ENDROOT
BRANCH   3   7
HETATM    7  C2  UNL     1      16.393  -4.538  27.462  1.00  0.00     0.153 A 
HETATM    8  N2  UNL     1      17.458  -5.047  28.106  1.00  0.00    -0.283 N 
HETATM    9  N3  UNL     1      17.888  -6.119  27.463  1.00  0.00    -0.297 N 
ATOM     10  H2  UNL     1      17.870  -4.664  28.957  1.00  0.00     0.188 HD
HETATM   11  C3  UNL     1      17.139  -6.368  26.379  1.00  0.00     0.080 A 
ATOM     12  H3  UNL     1      18.686  -6.683  27.754  1.00  0.00     0.187 HD
HETATM   13  C4  UNL     1      16.892  -7.158  25.285  1.00  0.00     0.059 A 
HETATM   14  C7  UNL     1      16.176  -5.355  26.374  1.00  0.00     0.107 A 
HETATM   15  C5  UNL     1      15.800  -6.648  24.614  1.00  0.00     0.025 A 
HETATM   16  N4  UNL     1      15.395  -5.565  25.296  1.00  0.00    -0.354 N 
ATOM     17  H4  UNL     1      14.603  -4.979  25.033  1.00  0.00     0.166 HD
BRANCH  15  18
HETATM   18  C6  UNL     1      15.206  -7.226  23.359  1.00  0.00     0.171 C 
HETATM   19 CL1  UNL     1      13.464  -6.887  23.267  1.00  0.00    -0.124 Cl
ENDBRANCH  15  18
ENDBRANCH   3   7
BRANCH   5  20
HETATM   20  C8  UNL     1      16.344  -1.787  31.154  1.00  0.00     0.075 C 
BRANCH  20  21
HETATM   21  C9  UNL     1      15.847  -0.405  31.445  1.00  0.00    -0.007 C 
HETATM   22  C10 UNL     1      15.193   0.351  30.366  1.00  0.00     0.019 C 
HETATM   23  C11 UNL     1      14.580   1.633  30.943  1.00  0.00    -0.013 C 
HETATM   24  C12 UNL     1      13.593   1.324  32.012  1.00  0.00     0.009 C 
HETATM   25  C16 UNL     1      15.742   2.481  31.398  1.00  0.00     0.009 C 
HETATM   26  C13 UNL     1      14.330   0.656  33.150  1.00  0.00    -0.013 C 
HETATM   27  C14 UNL     1      15.421   1.552  33.630  1.00  0.00     0.009 C 
HETATM   28  C18 UNL     1      14.882  -0.620  32.639  1.00  0.00     0.019 C 
HETATM   29  C15 UNL     1      16.443   1.742  32.518  1.00  0.00    -0.013 C 
HETATM   30  C17 UNL     1      16.986   0.440  32.015  1.00  0.00     0.019 C 
ENDBRANCH  20  21
ENDBRANCH   5  20
TORSDOF 4
ENDMDL
MODEL 2
REMARK VINA RESULT: -8.480822096      0.196      1.471
REMARK  4 active torsions:
REMARK  status: ('A' for Active; 'I' for Inactive)
REMARK       I    between atoms: C1_2  and  N1_3 
REMARK       I    between atoms: C1_2  and  N5_18 
REMARK    1  A    between atoms: N1_3  and  C2_5 
REMARK    2  A    between atoms: C5_12  and  C6_13 
REMARK    3  A    between atoms: N5_18  and  C8_20 
REMARK    4  A    between atoms: C8_20  and  C9_21 
ROOT
HETATM    1  O1  UNL     1      14.543  -3.785  29.713  1.00  0.00    -0.247 OA
HETATM    2  C1  UNL     1      15.550  -3.240  29.222  1.00  0.00     0.325 C 
HETATM    3  N1  UNL     1      15.776  -3.536  27.837  1.00  0.00    -0.291 N 
ATOM      4  H1  UNL     1      15.421  -2.892  27.131  1.00  0.00     0.172 HD
HETATM    5  N5  UNL     1      16.421  -2.406  29.914  1.00  0.00    -0.322 N 
ATOM      6  H5  UNL     1      17.206  -2.061  29.362  1.00  0.00     0.169 HD
ENDROOT
BRANCH   3   7
HETATM    7  C2  UNL     1      16.409  -4.583  27.457  1.00  0.00     0.153 A 
HETATM    8  N2  UNL     1      17.476  -5.122  28.070  1.00  0.00    -0.283 N 
HETATM    9  N3  UNL     1      17.871  -6.193  27.403  1.00  0.00    -0.297 N 
ATOM     10  H2  UNL     1      17.914  -4.760  28.918  1.00  0.00     0.188 HD
HETATM   11  C3  UNL     1      17.094  -6.411  26.332  1.00  0.00     0.080 A 
ATOM     12  H3  UNL     1      18.663  -6.778  27.670  1.00  0.00     0.187 HD
HETATM   13  C4  UNL     1      16.809  -7.181  25.233  1.00  0.00     0.059 A 
HETATM   14  C7  UNL     1      16.153  -5.379  26.362  1.00  0.00     0.107 A 
HETATM   15  C5  UNL     1      15.714  -6.639  24.592  1.00  0.00     0.025 A 
HETATM   16  N4  UNL     1      15.345  -5.558  25.297  1.00  0.00    -0.354 N 
ATOM     17  H4  UNL     1      14.560  -4.953  25.060  1.00  0.00     0.166 HD
BRANCH  15  18
HETATM   18  C6  UNL     1      15.082  -7.186  23.341  1.00  0.00     0.171 C 
HETATM   19 CL1  UNL     1      13.345  -6.812  23.292  1.00  0.00    -0.124 Cl
ENDBRANCH  15  18
ENDBRANCH   3   7
BRANCH   5  20
HETATM   20  C8  UNL     1      16.401  -1.960  31.241  1.00  0.00     0.075 C 
BRANCH  20  21
HETATM   21  C9  UNL     1      15.742  -0.665  31.602  1.00  0.00    -0.007 C 
HETATM   22  C10 UNL     1      14.688  -0.672  32.628  1.00  0.00     0.019 C 
HETATM   23  C11 UNL     1      14.317   0.773  32.986  1.00  0.00    -0.013 C 
HETATM   24  C12 UNL     1      15.499   1.525  33.483  1.00  0.00     0.009 C 
HETATM   25  C16 UNL     1      13.685   1.358  31.746  1.00  0.00     0.009 C 
HETATM   26  C13 UNL     1      16.506   1.610  32.358  1.00  0.00    -0.013 C 
HETATM   27  C14 UNL     1      15.875   2.265  31.176  1.00  0.00     0.009 C 
HETATM   28  C18 UNL     1      16.932   0.230  32.031  1.00  0.00     0.019 C 
HETATM   29  C15 UNL     1      14.740   1.390  30.661  1.00  0.00    -0.013 C 
HETATM   30  C17 UNL     1      15.193  -0.000  30.340  1.00  0.00     0.019 C 
ENDBRANCH  20  21
ENDBRANCH   5  20
TORSDOF 4
ENDMDL
MODEL 3
REMARK VINA RESULT: -8.440781059      0.768      1.776
REMARK  4 active torsions:
REMARK  status: ('A' for Active; 'I' for Inactive)
REMARK       I    between atoms: C1_2  and  N1_3 
REMARK       I    between atoms: C1_2  and  N5_18 
REMARK    1  A    between atoms: N1_3  and  C2_5 
REMARK    2  A    between atoms: C5_12  and  C6_13 
REMARK    3  A    between atoms: N5_18  and  C8_20 
REMARK    4  A    between atoms: C8_20  and  C9_21 
ROOT
HETATM    1  O1  UNL     1      14.603  -3.982  29.300  1.00  0.00    -0.247 OA
HETATM    2  C1  UNL     1      15.721  -3.611  28.895  1.00  0.00     0.325 C 
HETATM    3  N1  UNL     1      15.975  -3.880  27.510  1.00  0.00    -0.291 N 
ATOM      4  H1  UNL     1      15.788  -3.150  26.823  1.00  0.00     0.172 HD
HETATM    5  N5  UNL     1      16.683  -2.984  29.678  1.00  0.00    -0.322 N 
ATOM      6  H5  UNL     1      17.550  -2.764  29.189  1.00  0.00     0.169 HD
ENDROOT
BRANCH   3   7
HETATM    7  C2  UNL     1      16.431  -5.007  27.105  1.00  0.00     0.153 A 
HETATM    8  N2  UNL     1      17.371  -5.742  27.724  1.00  0.00    -0.283 N 
HETATM    9  N3  UNL     1      17.596  -6.843  27.027  1.00  0.00    -0.297 N 
ATOM     10  H2  UNL     1      17.838  -5.489  28.595  1.00  0.00     0.188 HD
HETATM   11  C3  UNL     1      16.827  -6.888  25.929  1.00  0.00     0.080 A 
ATOM     12  H3  UNL     1      18.268  -7.563  27.290  1.00  0.00     0.187 HD
HETATM   13  C4  UNL     1      16.447  -7.559  24.795  1.00  0.00     0.059 A 
HETATM   14  C7  UNL     1      16.075  -5.711  25.975  1.00  0.00     0.107 A 
HETATM   15  C5  UNL     1      15.481  -6.816  24.148  1.00  0.00     0.025 A 
HETATM   16  N4  UNL     1      15.282  -5.712  24.886  1.00  0.00    -0.354 N 
ATOM     17  H4  UNL     1      14.619  -4.973  24.652  1.00  0.00     0.166 HD
BRANCH  15  18
HETATM   18  C6  UNL     1      14.803  -7.205  22.863  1.00  0.00     0.171 C 
HETATM   19 CL1  UNL     1      13.069  -6.819  22.919  1.00  0.00    -0.124 Cl
ENDBRANCH  15  18
ENDBRANCH   3   7
BRANCH   5  20
HETATM   20  C8  UNL     1      16.661  -2.602  31.025  1.00  0.00     0.075 C 
BRANCH  20  21
HETATM   21  C9  UNL     1      16.329  -1.195  31.416  1.00  0.00    -0.007 C 
HETATM   22  C10 UNL     1      17.307  -0.434  32.209  1.00  0.00     0.019 C 
HETATM   23  C11 UNL     1      16.856   1.029  32.302  1.00  0.00    -0.013 C 
HETATM   24  C12 UNL     1      16.718   1.637  30.953  1.00  0.00     0.009 C 
HETATM   25  C16 UNL     1      15.583   1.019  33.113  1.00  0.00     0.009 C 
HETATM   26  C13 UNL     1      15.621   0.901  30.218  1.00  0.00    -0.013 C 
HETATM   27  C14 UNL     1      14.357   0.978  31.005  1.00  0.00     0.009 C 
HETATM   28  C18 UNL     1      16.055  -0.506  30.055  1.00  0.00     0.019 C 
HETATM   29  C15 UNL     1      14.542   0.249  32.329  1.00  0.00    -0.013 C 
HETATM   30  C17 UNL     1      14.984  -1.169  32.141  1.00  0.00     0.019 C 
ENDBRANCH  20  21
ENDBRANCH   5  20
TORSDOF 4
ENDMDL
MODEL 4
REMARK VINA RESULT: -8.121608500      1.219      2.125
REMARK  4 active torsions:
REMARK  status: ('A' for Active; 'I' for Inactive)
REMARK       I    between atoms: C1_2  and  N1_3 
REMARK       I    between atoms: C1_2  and  N5_18 
REMARK    1  A    between atoms: N1_3  and  C2_5 
REMARK    2  A    between atoms: C5_12  and  C6_13 
REMARK    3  A    between atoms: N5_18  and  C8_20 
REMARK    4  A    between atoms: C8_20  and  C9_21 
ROOT
HETATM    1  O1  UNL     1      14.636  -3.207  30.836  1.00  0.00    -0.247 OA
HETATM    2  C1  UNL     1      15.550  -2.559  30.291  1.00  0.00     0.325 C 
HETATM    3  N1  UNL     1      15.745  -2.853  28.901  1.00  0.00    -0.291 N 
ATOM      4  H1  UNL     1      15.285  -2.268  28.204  1.00  0.00     0.172 HD
HETATM    5  N5  UNL     1      16.347  -1.616  30.929  1.00  0.00    -0.322 N 
ATOM      6  H5  UNL     1      17.060  -1.192  30.335  1.00  0.00     0.169 HD
ENDROOT
BRANCH   3   7
HETATM    7  C2  UNL     1      16.478  -3.826  28.505  1.00  0.00     0.153 A 
HETATM    8  N2  UNL     1      17.581  -4.281  29.124  1.00  0.00    -0.283 N 
HETATM    9  N3  UNL     1      18.084  -5.293  28.437  1.00  0.00    -0.297 N 
ATOM     10  H2  UNL     1      17.969  -3.904  29.989  1.00  0.00     0.188 HD
HETATM   11  C3  UNL     1      17.348  -5.552  27.346  1.00  0.00     0.080 A 
ATOM     12  H3  UNL     1      18.922  -5.809  28.703  1.00  0.00     0.187 HD
HETATM   13  C4  UNL     1      17.152  -6.313  26.222  1.00  0.00     0.059 A 
HETATM   14  C7  UNL     1      16.314  -4.612  27.385  1.00  0.00     0.107 A 
HETATM   15  C5  UNL     1      16.022  -5.857  25.575  1.00  0.00     0.025 A 
HETATM   16  N4  UNL     1      15.544  -4.835  26.301  1.00  0.00    -0.354 N 
ATOM     17  H4  UNL     1      14.710  -4.298  26.065  1.00  0.00     0.166 HD
BRANCH  15  18
HETATM   18  C6  UNL     1      15.464  -6.426  24.299  1.00  0.00     0.171 C 
HETATM   19 CL1  UNL     1      16.154  -8.029  23.964  1.00  0.00    -0.124 Cl
ENDBRANCH  15  18
ENDBRANCH   3   7
BRANCH   5  20
HETATM   20  C8  UNL     1      16.336  -1.149  32.249  1.00  0.00     0.075 C 
BRANCH  20  21
HETATM   21  C9  UNL     1      15.923   0.256  32.560  1.00  0.00    -0.007 C 
HETATM   22  C10 UNL     1      16.477   0.905  33.758  1.00  0.00     0.019 C 
HETATM   23  C11 UNL     1      16.093   2.390  33.755  1.00  0.00    -0.013 C 
HETATM   24  C12 UNL     1      16.595   3.074  32.534  1.00  0.00     0.009 C 
HETATM   25  C16 UNL     1      14.593   2.431  33.917  1.00  0.00     0.009 C 
HETATM   26  C13 UNL     1      15.910   2.455  31.336  1.00  0.00    -0.013 C 
HETATM   27  C14 UNL     1      14.432   2.583  31.488  1.00  0.00     0.009 C 
HETATM   28  C18 UNL     1      16.313   1.031  31.275  1.00  0.00     0.019 C 
HETATM   29  C15 UNL     1      13.979   1.777  32.698  1.00  0.00    -0.013 C 
HETATM   30  C17 UNL     1      14.399   0.342  32.616  1.00  0.00     0.019 C 
ENDBRANCH  20  21
ENDBRANCH   5  20
TORSDOF 4
ENDMDL
MODEL 5
REMARK VINA RESULT: -8.057531111      4.026      5.265
REMARK  4 active torsions:
REMARK  status: ('A' for Active; 'I' for Inactive)
REMARK       I    between atoms: C1_2  and  N1_3 
REMARK       I    between atoms: C1_2  and  N5_18 
REMARK    1  A    between atoms: N1_3  and  C2_5 
REMARK    2  A    between atoms: C5_12  and  C6_13 
REMARK    3  A    between atoms: N5_18  and  C8_20 
REMARK    4  A    between atoms: C8_20  and  C9_21 
ROOT
HETATM    1  O1  UNL     1      17.322  -5.415  30.794  1.00  0.00    -0.247 OA
HETATM    2  C1  UNL     1      16.874  -6.299  30.039  1.00  0.00     0.325 C 
HETATM    3  N1  UNL     1      17.307  -6.198  28.676  1.00  0.00    -0.291 N 
ATOM      4  H1  UNL     1      18.119  -6.737  28.376  1.00  0.00     0.172 HD
HETATM    5  N5  UNL     1      16.018  -7.322  30.431  1.00  0.00    -0.322 N 
ATOM      6  H5  UNL     1      15.734  -7.948  29.679  1.00  0.00     0.169 HD
ENDROOT
BRANCH   3   7
HETATM    7  C2  UNL     1      16.709  -5.453  27.822  1.00  0.00     0.153 A 
HETATM    8  N2  UNL     1      16.415  -4.152  27.984  1.00  0.00    -0.283 N 
HETATM    9  N3  UNL     1      15.798  -3.704  26.905  1.00  0.00    -0.297 N 
ATOM     10  H2  UNL     1      16.633  -3.597  28.812  1.00  0.00     0.188 HD
HETATM   11  C3  UNL     1      15.656  -4.674  25.989  1.00  0.00     0.080 A 
ATOM     12  H3  UNL     1      15.472  -2.745  26.784  1.00  0.00     0.187 HD
HETATM   13  C4  UNL     1      15.203  -5.056  24.752  1.00  0.00     0.059 A 
HETATM   14  C7  UNL     1      16.241  -5.800  26.573  1.00  0.00     0.107 A 
HETATM   15  C5  UNL     1      15.499  -6.391  24.570  1.00  0.00     0.025 A 
HETATM   16  N4  UNL     1      16.122  -6.806  25.684  1.00  0.00    -0.354 N 
ATOM     17  H4  UNL     1      16.461  -7.756  25.838  1.00  0.00     0.166 HD
BRANCH  15  18
HETATM   18  C6  UNL     1      15.168  -7.193  23.342  1.00  0.00     0.171 C 
HETATM   19 CL1  UNL     1      13.497  -6.892  22.817  1.00  0.00    -0.124 Cl
ENDBRANCH  15  18
ENDBRANCH   3   7
BRANCH   5  20
HETATM   20  C8  UNL     1      15.482  -7.637  31.686  1.00  0.00     0.075 C 
BRANCH  20  21
HETATM   21  C9  UNL     1      14.272  -6.920  32.201  1.00  0.00    -0.007 C 
HETATM   22  C10 UNL     1      13.105  -7.714  32.613  1.00  0.00     0.019 C 
HETATM   23  C11 UNL     1      12.085  -6.798  33.301  1.00  0.00    -0.013 C 
HETATM   24  C12 UNL     1      12.679  -6.125  34.485  1.00  0.00     0.009 C 
HETATM   25  C16 UNL     1      11.588  -5.854  32.233  1.00  0.00     0.009 C 
HETATM   26  C13 UNL     1      13.796  -5.228  34.001  1.00  0.00    -0.013 C 
HETATM   27  C14 UNL     1      13.258  -4.255  33.008  1.00  0.00     0.009 C 
HETATM   28  C18 UNL     1      14.830  -6.092  33.387  1.00  0.00     0.019 C 
HETATM   29  C15 UNL     1      12.761  -5.009  31.783  1.00  0.00    -0.013 C 
HETATM   30  C17 UNL     1      13.821  -5.878  31.179  1.00  0.00     0.019 C 
ENDBRANCH  20  21
ENDBRANCH   5  20
TORSDOF 4
ENDMDL
