MODEL 1
REMARK VINA RESULT: -7.157472775      0.000      0.000
REMARK  7 active torsions:
REMARK  status: ('A' for Active; 'I' for Inactive)
REMARK    1  A    between atoms: C3_3  and  C4_4 
REMARK    2  A    between atoms: C4_4  and  C6_6 
REMARK    3  A    between atoms: N1_7  and  N2_9 
REMARK    4  A    between atoms: N2_9  and  C7_11 
REMARK    5  A    between atoms: C7_11  and  N3_13 
REMARK    6  A    between atoms: N3_13  and  N4_15 
REMARK       I    between atoms: N4_15  and  C8_17 
REMARK       I    between atoms: C8_17  and  N5_19 
REMARK    7  A    between atoms: N5_19  and  C9_21 
ROOT
HETATM    1  C1  UNL     1      20.254 -12.972  16.423  1.00  0.00     0.012 C 
HETATM    2  C2  UNL     1      20.070 -13.685  17.381  1.00  0.00    -0.113 C 
HETATM    3  C3  UNL     1      19.872 -14.547  18.547  1.00  0.00     0.132 C 
ENDROOT
BRANCH   3   4
HETATM    4  C4  UNL     1      19.819 -13.697  19.771  1.00  0.00    -0.040 C 
HETATM    5  C5  UNL     1      20.872 -12.978  20.079  1.00  0.00     0.021 C 
BRANCH   4   6
HETATM    6  C6  UNL     1      18.599 -13.700  20.572  1.00  0.00     0.114 C 
HETATM    7  N1  UNL     1      17.941 -12.599  20.668  1.00  0.00    -0.309 N 
ATOM      8  H1  UNL     1      18.267 -11.756  20.197  1.00  0.00     0.186 HD
BRANCH   7   9
HETATM    9  N2  UNL     1      16.768 -12.578  21.432  1.00  0.00    -0.275 N 
ATOM     10  H2  UNL     1      16.809 -12.192  22.375  1.00  0.00     0.189 HD
BRANCH   9  11
HETATM   11  C7  UNL     1      15.533 -13.065  20.959  1.00  0.00     0.205 C 
HETATM   12  S1  UNL     1      14.968 -14.475  21.536  1.00  0.00    -0.038 SA
BRANCH  11  13
HETATM   13  N3  UNL     1      14.796 -12.356  20.012  1.00  0.00    -0.271 N 
ATOM     14  H3  UNL     1      14.317 -11.496  20.280  1.00  0.00     0.189 HD
BRANCH  13  15
HETATM   15  N4  UNL     1      14.711 -12.818  18.703  1.00  0.00    -0.249 N 
HETATM   16  C8  UNL     1      15.760 -12.556  17.742  1.00  0.00     0.339 C 
HETATM   17  O1  UNL     1      16.746 -11.890  18.155  1.00  0.00    -0.245 OA
HETATM   18  N5  UNL     1      15.597 -13.060  16.439  1.00  0.00    -0.308 N 
ATOM     19  H5  UNL     1      14.739 -13.584  16.265  1.00  0.00     0.170 HD
ATOM     20  H4  UNL     1      13.892 -13.353  18.414  1.00  0.00     0.192 HD
BRANCH  18  21
HETATM   21  C9  UNL     1      16.470 -12.933  15.350  1.00  0.00     0.036 A 
HETATM   22  C10 UNL     1      16.708 -11.663  14.824  1.00  0.00     0.031 A 
HETATM   23  C11 UNL     1      17.551 -11.441  13.763  1.00  0.00     0.021 A 
HETATM   24  C12 UNL     1      18.197 -12.492  13.180  1.00  0.00     0.011 A 
HETATM   25 BR1  UNL     1      19.365 -12.128  11.699  1.00  0.00    -0.051 Br
HETATM   26  C13 UNL     1      17.993 -13.749  13.664  1.00  0.00     0.021 A 
HETATM   27  C14 UNL     1      17.122 -13.962  14.756  1.00  0.00     0.031 A 
ENDBRANCH  18  21
ENDBRANCH  13  15
ENDBRANCH  11  13
ENDBRANCH   9  11
ENDBRANCH   7   9
ENDBRANCH   4   6
ENDBRANCH   3   4
TORSDOF 7
ENDMDL
MODEL 2
REMARK VINA RESULT: -7.142545750      6.407      8.885
REMARK  7 active torsions:
REMARK  status: ('A' for Active; 'I' for Inactive)
REMARK    1  A    between atoms: C3_3  and  C4_4 
REMARK    2  A    between atoms: C4_4  and  C6_6 
REMARK    3  A    between atoms: N1_7  and  N2_9 
REMARK    4  A    between atoms: N2_9  and  C7_11 
REMARK    5  A    between atoms: C7_11  and  N3_13 
REMARK    6  A    between atoms: N3_13  and  N4_15 
REMARK       I    between atoms: N4_15  and  C8_17 
REMARK       I    between atoms: C8_17  and  N5_19 
REMARK    7  A    between atoms: N5_19  and  C9_21 
ROOT
HETATM    1  C1  UNL     1      11.831  -8.602  24.919  1.00  0.00     0.012 C 
HETATM    2  C2  UNL     1      11.518  -9.720  24.586  1.00  0.00    -0.113 C 
HETATM    3  C3  UNL     1      11.124 -11.065  24.165  1.00  0.00     0.132 C 
ENDROOT
BRANCH   3   4
HETATM    4  C4  UNL     1      11.883 -11.426  22.932  1.00  0.00    -0.040 C 
HETATM    5  C5  UNL     1      12.683 -10.529  22.406  1.00  0.00     0.021 C 
BRANCH   4   6
HETATM    6  C6  UNL     1      11.704 -12.759  22.365  1.00  0.00     0.114 C 
HETATM    7  N1  UNL     1      12.508 -13.687  22.747  1.00  0.00    -0.309 N 
ATOM      8  H1  UNL     1      13.244 -13.489  23.425  1.00  0.00     0.186 HD
BRANCH   7   9
HETATM    9  N2  UNL     1      12.356 -14.973  22.217  1.00  0.00    -0.275 N 
ATOM     10  H2  UNL     1      11.910 -15.687  22.794  1.00  0.00     0.189 HD
BRANCH   9  11
HETATM   11  C7  UNL     1      12.789 -15.329  20.925  1.00  0.00     0.205 C 
HETATM   12  S1  UNL     1      11.835 -16.267  20.003  1.00  0.00    -0.038 SA
BRANCH  11  13
HETATM   13  N3  UNL     1      14.015 -14.888  20.431  1.00  0.00    -0.271 N 
ATOM     14  H3  UNL     1      14.046 -14.137  19.741  1.00  0.00     0.189 HD
BRANCH  13  15
HETATM   15  N4  UNL     1      15.198 -15.468  20.875  1.00  0.00    -0.249 N 
HETATM   16  C8  UNL     1      15.943 -14.910  21.982  1.00  0.00     0.339 C 
HETATM   17  O1  UNL     1      15.463 -13.874  22.516  1.00  0.00    -0.245 OA
HETATM   18  N5  UNL     1      17.129 -15.559  22.370  1.00  0.00    -0.308 N 
ATOM     19  H5  UNL     1      17.379 -16.391  21.835  1.00  0.00     0.170 HD
ATOM     20  H4  UNL     1      15.548 -16.306  20.411  1.00  0.00     0.192 HD
BRANCH  18  21
HETATM   21  C9  UNL     1      18.008 -15.205  23.402  1.00  0.00     0.036 A 
HETATM   22  C10 UNL     1      19.122 -14.424  23.097  1.00  0.00     0.031 A 
HETATM   23  C11 UNL     1      20.034 -14.023  24.042  1.00  0.00     0.021 A 
HETATM   24  C12 UNL     1      19.865 -14.392  25.345  1.00  0.00     0.011 A 
HETATM   25 BR1  UNL     1      21.169 -13.806  26.629  1.00  0.00    -0.051 Br
HETATM   26  C13 UNL     1      18.788 -15.155  25.686  1.00  0.00     0.021 A 
HETATM   27  C14 UNL     1      17.859 -15.559  24.701  1.00  0.00     0.031 A 
ENDBRANCH  18  21
ENDBRANCH  13  15
ENDBRANCH  11  13
ENDBRANCH   9  11
ENDBRANCH   7   9
ENDBRANCH   4   6
ENDBRANCH   3   4
TORSDOF 7
ENDMDL
MODEL 3
REMARK VINA RESULT: -7.134311050      3.669      6.327
REMARK  7 active torsions:
REMARK  status: ('A' for Active; 'I' for Inactive)
REMARK    1  A    between atoms: C3_3  and  C4_4 
REMARK    2  A    between atoms: C4_4  and  C6_6 
REMARK    3  A    between atoms: N1_7  and  N2_9 
REMARK    4  A    between atoms: N2_9  and  C7_11 
REMARK    5  A    between atoms: C7_11  and  N3_13 
REMARK    6  A    between atoms: N3_13  and  N4_15 
REMARK       I    between atoms: N4_15  and  C8_17 
REMARK       I    between atoms: C8_17  and  N5_19 
REMARK    7  A    between atoms: N5_19  and  C9_21 
ROOT
HETATM    1  C1  UNL     1      11.858  -8.528  24.922  1.00  0.00     0.012 C 
HETATM    2  C2  UNL     1      11.544  -9.633  24.548  1.00  0.00    -0.113 C 
HETATM    3  C3  UNL     1      11.147 -10.962  24.079  1.00  0.00     0.132 C 
ENDROOT
BRANCH   3   4
HETATM    4  C4  UNL     1      11.871 -11.260  22.810  1.00  0.00    -0.040 C 
HETATM    5  C5  UNL     1      11.877 -10.350  21.865  1.00  0.00     0.021 C 
BRANCH   4   6
HETATM    6  C6  UNL     1      12.542 -12.549  22.673  1.00  0.00     0.114 C 
HETATM    7  N1  UNL     1      11.828 -13.612  22.791  1.00  0.00    -0.309 N 
ATOM      8  H1  UNL     1      10.827 -13.548  22.973  1.00  0.00     0.186 HD
BRANCH   7   9
HETATM    9  N2  UNL     1      12.449 -14.860  22.664  1.00  0.00    -0.275 N 
ATOM     10  H2  UNL     1      12.292 -15.558  23.392  1.00  0.00     0.189 HD
BRANCH   9  11
HETATM   11  C7  UNL     1      13.282 -15.199  21.580  1.00  0.00     0.205 C 
HETATM   12  S1  UNL     1      12.615 -15.451  20.120  1.00  0.00    -0.038 SA
BRANCH  11  13
HETATM   13  N3  UNL     1      14.662 -15.317  21.743  1.00  0.00    -0.271 N 
ATOM     14  H3  UNL     1      15.051 -16.144  22.196  1.00  0.00     0.189 HD
BRANCH  13  15
HETATM   15  N4  UNL     1      15.508 -14.312  21.289  1.00  0.00    -0.249 N 
HETATM   16  C8  UNL     1      16.350 -14.501  20.129  1.00  0.00     0.339 C 
HETATM   17  O1  UNL     1      16.273 -15.622  19.557  1.00  0.00    -0.245 OA
HETATM   18  N5  UNL     1      17.176 -13.433  19.735  1.00  0.00    -0.308 N 
ATOM     19  H5  UNL     1      17.118 -12.589  20.305  1.00  0.00     0.170 HD
ATOM     20  H4  UNL     1      15.536 -13.421  21.786  1.00  0.00     0.192 HD
BRANCH  18  21
HETATM   21  C9  UNL     1      18.068 -13.386  18.655  1.00  0.00     0.036 A 
HETATM   22  C10 UNL     1      17.600 -12.953  17.415  1.00  0.00     0.031 A 
HETATM   23  C11 UNL     1      18.402 -12.868  16.303  1.00  0.00     0.021 A 
HETATM   24  C12 UNL     1      19.718 -13.216  16.390  1.00  0.00     0.011 A 
HETATM   25 BR1  UNL     1      20.797 -13.080  14.805  1.00  0.00    -0.051 Br
HETATM   26  C13 UNL     1      20.216 -13.644  17.584  1.00  0.00     0.021 A 
HETATM   27  C14 UNL     1      19.378 -13.726  18.719  1.00  0.00     0.031 A 
ENDBRANCH  18  21
ENDBRANCH  13  15
ENDBRANCH  11  13
ENDBRANCH   9  11
ENDBRANCH   7   9
ENDBRANCH   4   6
ENDBRANCH   3   4
TORSDOF 7
ENDMDL
MODEL 4
REMARK VINA RESULT: -6.944559818      6.310      8.709
REMARK  7 active torsions:
REMARK  status: ('A' for Active; 'I' for Inactive)
REMARK    1  A    between atoms: C3_3  and  C4_4 
REMARK    2  A    between atoms: C4_4  and  C6_6 
REMARK    3  A    between atoms: N1_7  and  N2_9 
REMARK    4  A    between atoms: N2_9  and  C7_11 
REMARK    5  A    between atoms: C7_11  and  N3_13 
REMARK    6  A    between atoms: N3_13  and  N4_15 
REMARK       I    between atoms: N4_15  and  C8_17 
REMARK       I    between atoms: C8_17  and  N5_19 
REMARK    7  A    between atoms: N5_19  and  C9_21 
ROOT
HETATM    1  C1  UNL     1      11.866  -8.511  24.914  1.00  0.00     0.012 C 
HETATM    2  C2  UNL     1      11.534  -9.615  24.554  1.00  0.00    -0.113 C 
HETATM    3  C3  UNL     1      11.117 -10.943  24.101  1.00  0.00     0.132 C 
ENDROOT
BRANCH   3   4
HETATM    4  C4  UNL     1      11.853 -11.277  22.848  1.00  0.00    -0.040 C 
HETATM    5  C5  UNL     1      11.872 -10.393  21.879  1.00  0.00     0.021 C 
BRANCH   4   6
HETATM    6  C6  UNL     1      12.521 -12.572  22.754  1.00  0.00     0.114 C 
HETATM    7  N1  UNL     1      11.785 -13.623  22.672  1.00  0.00    -0.309 N 
ATOM      8  H1  UNL     1      10.768 -13.546  22.673  1.00  0.00     0.186 HD
BRANCH   7   9
HETATM    9  N2  UNL     1      12.402 -14.875  22.581  1.00  0.00    -0.275 N 
ATOM     10  H2  UNL     1      12.161 -15.588  23.270  1.00  0.00     0.189 HD
BRANCH   9  11
HETATM   11  C7  UNL     1      13.342 -15.199  21.583  1.00  0.00     0.205 C 
HETATM   12  S1  UNL     1      12.916 -15.059  20.021  1.00  0.00    -0.038 SA
BRANCH  11  13
HETATM   13  N3  UNL     1      14.625 -15.632  21.917  1.00  0.00    -0.271 N 
ATOM     14  H3  UNL     1      14.833 -16.630  21.946  1.00  0.00     0.189 HD
BRANCH  13  15
HETATM   15  N4  UNL     1      15.621 -14.707  22.209  1.00  0.00    -0.249 N 
HETATM   16  C8  UNL     1      16.956 -15.127  22.574  1.00  0.00     0.339 C 
HETATM   17  O1  UNL     1      17.163 -16.369  22.611  1.00  0.00    -0.245 OA
HETATM   18  N5  UNL     1      17.906 -14.127  22.852  1.00  0.00    -0.308 N 
ATOM     19  H5  UNL     1      17.579 -13.164  22.774  1.00  0.00     0.170 HD
ATOM     20  H4  UNL     1      15.406 -13.711  22.166  1.00  0.00     0.192 HD
BRANCH  18  21
HETATM   21  C9  UNL     1      19.247 -14.292  23.224  1.00  0.00     0.036 A 
HETATM   22  C10 UNL     1      20.211 -14.420  22.224  1.00  0.00     0.031 A 
HETATM   23  C11 UNL     1      21.548 -14.579  22.493  1.00  0.00     0.021 A 
HETATM   24  C12 UNL     1      21.979 -14.616  23.787  1.00  0.00     0.011 A 
HETATM   25 BR1  UNL     1      23.860 -14.840  24.110  1.00  0.00    -0.051 Br
HETATM   26  C13 UNL     1      21.069 -14.494  24.794  1.00  0.00     0.021 A 
HETATM   27  C14 UNL     1      19.697 -14.331  24.502  1.00  0.00     0.031 A 
ENDBRANCH  18  21
ENDBRANCH  13  15
ENDBRANCH  11  13
ENDBRANCH   9  11
ENDBRANCH   7   9
ENDBRANCH   4   6
ENDBRANCH   3   4
TORSDOF 7
ENDMDL
MODEL 5
REMARK VINA RESULT: -6.817205244      3.418      5.904
REMARK  7 active torsions:
REMARK  status: ('A' for Active; 'I' for Inactive)
REMARK    1  A    between atoms: C3_3  and  C4_4 
REMARK    2  A    between atoms: C4_4  and  C6_6 
REMARK    3  A    between atoms: N1_7  and  N2_9 
REMARK    4  A    between atoms: N2_9  and  C7_11 
REMARK    5  A    between atoms: C7_11  and  N3_13 
REMARK    6  A    between atoms: N3_13  and  N4_15 
REMARK       I    between atoms: N4_15  and  C8_17 
REMARK       I    between atoms: C8_17  and  N5_19 
REMARK    7  A    between atoms: N5_19  and  C9_21 
ROOT
HETATM    1  C1  UNL     1      20.225 -13.349  17.124  1.00  0.00     0.012 C 
HETATM    2  C2  UNL     1      20.554 -13.173  15.975  1.00  0.00    -0.113 C 
HETATM    3  C3  UNL     1      20.951 -12.985  14.579  1.00  0.00     0.132 C 
ENDROOT
BRANCH   3   4
HETATM    4  C4  UNL     1      19.730 -13.014  13.723  1.00  0.00    -0.040 C 
HETATM    5  C5  UNL     1      19.578 -14.012  12.885  1.00  0.00     0.021 C 
BRANCH   4   6
HETATM    6  C6  UNL     1      18.758 -11.934  13.855  1.00  0.00     0.114 C 
HETATM    7  N1  UNL     1      17.514 -12.252  13.931  1.00  0.00    -0.309 N 
ATOM      8  H1  UNL     1      17.225 -13.229  13.900  1.00  0.00     0.186 HD
BRANCH   7   9
HETATM    9  N2  UNL     1      16.563 -11.233  14.058  1.00  0.00    -0.275 N 
ATOM     10  H2  UNL     1      16.844 -10.276  13.841  1.00  0.00     0.189 HD
BRANCH   9  11
HETATM   11  C7  UNL     1      15.237 -11.465  14.470  1.00  0.00     0.205 C 
HETATM   12  S1  UNL     1      14.192 -12.142  13.427  1.00  0.00    -0.038 SA
BRANCH  11  13
HETATM   13  N3  UNL     1      14.813 -11.124  15.754  1.00  0.00    -0.271 N 
ATOM     14  H3  UNL     1      14.456 -10.188  15.941  1.00  0.00     0.189 HD
BRANCH  13  15
HETATM   15  N4  UNL     1      14.877 -12.059  16.782  1.00  0.00    -0.249 N 
HETATM   16  C8  UNL     1      16.120 -12.346  17.463  1.00  0.00     0.339 C 
HETATM   17  O1  UNL     1      17.134 -11.707  17.075  1.00  0.00    -0.245 OA
HETATM   18  N5  UNL     1      16.098 -13.304  18.494  1.00  0.00    -0.308 N 
ATOM     19  H5  UNL     1      15.193 -13.731  18.689  1.00  0.00     0.170 HD
ATOM     20  H4  UNL     1      14.030 -12.552  17.061  1.00  0.00     0.192 HD
BRANCH  18  21
HETATM   21  C9  UNL     1      17.168 -13.744  19.285  1.00  0.00     0.036 A 
HETATM   22  C10 UNL     1      17.680 -12.887  20.259  1.00  0.00     0.031 A 
HETATM   23  C11 UNL     1      18.722 -13.234  21.085  1.00  0.00     0.021 A 
HETATM   24  C12 UNL     1      19.298 -14.464  20.967  1.00  0.00     0.011 A 
HETATM   25 BR1  UNL     1      20.752 -14.900  22.145  1.00  0.00    -0.051 Br
HETATM   26  C13 UNL     1      18.827 -15.332  20.028  1.00  0.00     0.021 A 
HETATM   27  C14 UNL     1      17.755 -14.961  19.186  1.00  0.00     0.031 A 
ENDBRANCH  18  21
ENDBRANCH  13  15
ENDBRANCH  11  13
ENDBRANCH   9  11
ENDBRANCH   7   9
ENDBRANCH   4   6
ENDBRANCH   3   4
TORSDOF 7
ENDMDL
