MODEL 1
REMARK VINA RESULT: -5.780494246      0.000      0.000
REMARK  7 active torsions:
REMARK  status: ('A' for Active; 'I' for Inactive)
REMARK    1  A    between atoms: N1_1  and  C1_4 
REMARK    2  A    between atoms: C1_4  and  C2_5 
REMARK    3  A    between atoms: C1_4  and  N5_14 
REMARK    4  A    between atoms: C2_5  and  C3_6 
REMARK    5  A    between atoms: C3_6  and  N2_7 
REMARK    6  A    between atoms: N5_14  and  C6_16 
REMARK    7  A    between atoms: C7_21  and  N8_22 
ROOT
HETATM    1  C1  UNL     1      -0.804  -5.977   0.893  1.00  0.00     0.092 C 
ENDROOT
BRANCH   1   2
HETATM    2  N1  UNL     1      -0.495  -5.046   0.064  1.00  0.00    -0.388 N 
ATOM      3  H12 UNL     1      -1.222  -4.375  -0.182  1.00  0.00     0.157 HD
ATOM      4  H11 UNL     1       0.448  -4.996  -0.322  1.00  0.00     0.157 HD
ENDBRANCH   1   2
BRANCH   1   5
HETATM    5  C2  UNL     1      -2.210  -6.245   1.209  1.00  0.00     0.097 C 
BRANCH   5   6
HETATM    6  C3  UNL     1      -2.392  -7.324   2.249  1.00  0.00     0.138 C 
BRANCH   6   7
HETATM    7  N2  UNL     1      -2.892  -8.501   1.574  1.00  0.00    -0.337 N 
HETATM    8  C4  UNL     1      -3.340  -9.600   2.204  1.00  0.00     0.200 A 
HETATM    9  N3  UNL     1      -3.728 -10.504   1.279  1.00  0.00    -0.295 N 
HETATM   10  N4  UNL     1      -3.505  -9.927   0.110  1.00  0.00    -0.295 N 
ATOM     11  H3  UNL     1      -4.112 -11.434   1.447  1.00  0.00     0.187 HD
HETATM   12  C5  UNL     1      -2.991  -8.696   0.257  1.00  0.00     0.200 A 
ATOM     13  H4  UNL     1      -3.699 -10.364  -0.792  1.00  0.00     0.187 HD
ENDBRANCH   6   7
ENDBRANCH   5   6
ENDBRANCH   1   5
BRANCH   1  14
HETATM   14  N5  UNL     1       0.257  -6.714   1.472  1.00  0.00    -0.179 N 
ATOM     15  H5  UNL     1       0.240  -7.729   1.371  1.00  0.00     0.185 HD
BRANCH  14  16
HETATM   16  C6  UNL     1       1.231  -6.197   2.110  1.00  0.00     0.713 A 
HETATM   17  N6  UNL     1       2.510  -6.580   1.964  1.00  0.00    -0.117 N 
HETATM   18  N7  UNL     1       3.273  -5.853   2.760  1.00  0.00    -0.118 N 
ATOM     19  H6  UNL     1       2.840  -7.316   1.338  1.00  0.00     0.206 HD
HETATM   20  C7  UNL     1       2.502  -4.982   3.442  1.00  0.00     0.705 A 
ATOM     21  H7  UNL     1       4.287  -5.938   2.846  1.00  0.00     0.206 HD
HETATM   22  N9  UNL     1       1.240  -5.214   3.021  1.00  0.00    -0.020 N 
ATOM     23  H9  UNL     1       0.414  -4.714   3.349  1.00  0.00     0.203 HD
BRANCH  20  24
HETATM   24  N8  UNL     1       2.956  -4.144   4.291  1.00  0.00    -0.233 N 
ATOM     25  H82 UNL     1       3.458  -3.266   4.155  1.00  0.00     0.174 HD
ATOM     26  H81 UNL     1       2.866  -4.253   5.301  1.00  0.00     0.174 HD
ENDBRANCH  20  24
ENDBRANCH  14  16
ENDBRANCH   1  14
TORSDOF 7
ENDMDL
MODEL 2
REMARK VINA RESULT: -5.738125027      1.874      2.975
REMARK  7 active torsions:
REMARK  status: ('A' for Active; 'I' for Inactive)
REMARK    1  A    between atoms: N1_1  and  C1_4 
REMARK    2  A    between atoms: C1_4  and  C2_5 
REMARK    3  A    between atoms: C1_4  and  N5_14 
REMARK    4  A    between atoms: C2_5  and  C3_6 
REMARK    5  A    between atoms: C3_6  and  N2_7 
REMARK    6  A    between atoms: N5_14  and  C6_16 
REMARK    7  A    between atoms: C7_21  and  N8_22 
ROOT
HETATM    1  C1  UNL     1      -2.155  -7.686  -0.227  1.00  0.00     0.092 C 
ENDROOT
BRANCH   1   2
HETATM    2  N1  UNL     1      -1.665  -7.664  -1.414  1.00  0.00    -0.388 N 
ATOM      3  H12 UNL     1      -1.884  -8.450  -2.026  1.00  0.00     0.157 HD
ATOM      4  H11 UNL     1      -1.083  -6.883  -1.715  1.00  0.00     0.157 HD
ENDBRANCH   1   2
BRANCH   1   5
HETATM    5  C2  UNL     1      -2.626  -8.946   0.353  1.00  0.00     0.097 C 
BRANCH   5   6
HETATM    6  C3  UNL     1      -1.694  -9.506   1.401  1.00  0.00     0.138 C 
BRANCH   6   7
HETATM    7  N2  UNL     1      -2.254  -9.190   2.697  1.00  0.00    -0.337 N 
HETATM    8  C4  UNL     1      -1.523  -8.912   3.788  1.00  0.00     0.200 A 
HETATM    9  N3  UNL     1      -2.357  -8.666   4.821  1.00  0.00    -0.295 N 
HETATM   10  N4  UNL     1      -3.576  -8.802   4.326  1.00  0.00    -0.295 N 
ATOM     11  H3  UNL     1      -2.101  -8.426   5.778  1.00  0.00     0.187 HD
HETATM   12  C5  UNL     1      -3.547  -9.124   3.024  1.00  0.00     0.200 A 
ATOM     13  H4  UNL     1      -4.432  -8.677   4.867  1.00  0.00     0.187 HD
ENDBRANCH   6   7
ENDBRANCH   5   6
ENDBRANCH   1   5
BRANCH   1  14
HETATM   14  N5  UNL     1      -2.213  -6.458   0.477  1.00  0.00    -0.179 N 
ATOM     15  H5  UNL     1      -3.135  -6.067   0.673  1.00  0.00     0.185 HD
BRANCH  14  16
HETATM   16  C6  UNL     1      -1.194  -5.809   0.881  1.00  0.00     0.713 A 
HETATM   17  N6  UNL     1      -0.385  -5.103   0.072  1.00  0.00    -0.117 N 
HETATM   18  N7  UNL     1       0.572  -4.549   0.794  1.00  0.00    -0.118 N 
ATOM     19  H6  UNL     1      -0.494  -5.011  -0.938  1.00  0.00     0.206 HD
HETATM   20  C7  UNL     1       0.404  -4.886   2.089  1.00  0.00     0.705 A 
ATOM     21  H7  UNL     1       1.320  -3.959   0.430  1.00  0.00     0.206 HD
HETATM   22  N9  UNL     1      -0.697  -5.666   2.117  1.00  0.00    -0.020 N 
ATOM     23  H9  UNL     1      -1.094  -6.087   2.958  1.00  0.00     0.203 HD
BRANCH  20  24
HETATM   24  N8  UNL     1       1.175  -4.500   3.030  1.00  0.00    -0.233 N 
ATOM     25  H82 UNL     1       1.930  -3.814   3.032  1.00  0.00     0.174 HD
ATOM     26  H81 UNL     1       1.131  -4.858   3.984  1.00  0.00     0.174 HD
ENDBRANCH  20  24
ENDBRANCH  14  16
ENDBRANCH   1  14
TORSDOF 7
ENDMDL
MODEL 3
REMARK VINA RESULT: -5.712798350      2.131      3.052
REMARK  7 active torsions:
REMARK  status: ('A' for Active; 'I' for Inactive)
REMARK    1  A    between atoms: N1_1  and  C1_4 
REMARK    2  A    between atoms: C1_4  and  C2_5 
REMARK    3  A    between atoms: C1_4  and  N5_14 
REMARK    4  A    between atoms: C2_5  and  C3_6 
REMARK    5  A    between atoms: C3_6  and  N2_7 
REMARK    6  A    between atoms: N5_14  and  C6_16 
REMARK    7  A    between atoms: C7_21  and  N8_22 
ROOT
HETATM    1  C1  UNL     1      -1.713  -6.884  -0.022  1.00  0.00     0.092 C 
ENDROOT
BRANCH   1   2
HETATM    2  N1  UNL     1      -1.533  -7.393  -1.188  1.00  0.00    -0.388 N 
ATOM      3  H12 UNL     1      -2.312  -7.904  -1.602  1.00  0.00     0.157 HD
ATOM      4  H11 UNL     1      -0.640  -7.278  -1.666  1.00  0.00     0.157 HD
ENDBRANCH   1   2
BRANCH   1   5
HETATM    5  C2  UNL     1      -2.443  -7.633   1.004  1.00  0.00     0.097 C 
BRANCH   5   6
HETATM    6  C3  UNL     1      -1.646  -8.774   1.590  1.00  0.00     0.138 C 
BRANCH   6   7
HETATM    7  N2  UNL     1      -1.743  -8.680   3.030  1.00  0.00    -0.337 N 
HETATM    8  C4  UNL     1      -0.840  -8.062   3.809  1.00  0.00     0.200 A 
HETATM    9  N3  UNL     1      -1.234  -8.162   5.096  1.00  0.00    -0.295 N 
HETATM   10  N4  UNL     1      -2.369  -8.840   5.064  1.00  0.00    -0.295 N 
ATOM     11  H3  UNL     1      -0.758  -7.792   5.919  1.00  0.00     0.187 HD
HETATM   12  C5  UNL     1      -2.709  -9.173   3.809  1.00  0.00     0.200 A 
ATOM     13  H4  UNL     1      -2.919  -9.079   5.889  1.00  0.00     0.187 HD
ENDBRANCH   6   7
ENDBRANCH   5   6
ENDBRANCH   1   5
BRANCH   1  14
HETATM   14  N5  UNL     1      -1.180  -5.594   0.215  1.00  0.00    -0.179 N 
ATOM     15  H5  UNL     1      -1.225  -4.915  -0.545  1.00  0.00     0.185 HD
BRANCH  14  16
HETATM   16  C6  UNL     1      -0.650  -5.223   1.313  1.00  0.00     0.713 A 
HETATM   17  N6  UNL     1      -1.346  -4.749   2.360  1.00  0.00    -0.117 N 
HETATM   18  N7  UNL     1      -0.509  -4.455   3.339  1.00  0.00    -0.118 N 
ATOM     19  H6  UNL     1      -2.359  -4.633   2.393  1.00  0.00     0.206 HD
HETATM   20  C7  UNL     1       0.750  -4.733   2.946  1.00  0.00     0.705 A 
ATOM     21  H7  UNL     1      -0.774  -4.078   4.249  1.00  0.00     0.206 HD
HETATM   22  N9  UNL     1       0.637  -5.208   1.687  1.00  0.00    -0.020 N 
ATOM     23  H9  UNL     1       1.418  -5.511   1.104  1.00  0.00     0.203 HD
BRANCH  20  24
HETATM   24  N8  UNL     1       1.780  -4.554   3.678  1.00  0.00    -0.233 N 
ATOM     25  H82 UNL     1       1.887  -4.581   4.692  1.00  0.00     0.174 HD
ATOM     26  H81 UNL     1       2.708  -4.343   3.312  1.00  0.00     0.174 HD
ENDBRANCH  20  24
ENDBRANCH  14  16
ENDBRANCH   1  14
TORSDOF 7
ENDMDL
MODEL 4
REMARK VINA RESULT: -5.694491488      1.274      5.882
REMARK  7 active torsions:
REMARK  status: ('A' for Active; 'I' for Inactive)
REMARK    1  A    between atoms: N1_1  and  C1_4 
REMARK    2  A    between atoms: C1_4  and  C2_5 
REMARK    3  A    between atoms: C1_4  and  N5_14 
REMARK    4  A    between atoms: C2_5  and  C3_6 
REMARK    5  A    between atoms: C3_6  and  N2_7 
REMARK    6  A    between atoms: N5_14  and  C6_16 
REMARK    7  A    between atoms: C7_21  and  N8_22 
ROOT
HETATM    1  C1  UNL     1      -1.477  -5.534   1.127  1.00  0.00     0.092 C 
ENDROOT
BRANCH   1   2
HETATM    2  N1  UNL     1      -0.784  -5.414   0.052  1.00  0.00    -0.388 N 
ATOM      3  H12 UNL     1      -0.772  -4.500  -0.399  1.00  0.00     0.157 HD
ATOM      4  H11 UNL     1      -0.271  -6.213  -0.320  1.00  0.00     0.157 HD
ENDBRANCH   1   2
BRANCH   1   5
HETATM    5  C2  UNL     1      -1.024  -4.904   2.370  1.00  0.00     0.097 C 
BRANCH   5   6
HETATM    6  C3  UNL     1      -0.417  -5.882   3.348  1.00  0.00     0.138 C 
BRANCH   6   7
HETATM    7  N2  UNL     1       1.021  -5.783   3.228  1.00  0.00    -0.337 N 
HETATM    8  C4  UNL     1       1.782  -6.648   2.538  1.00  0.00     0.200 A 
HETATM    9  N3  UNL     1       3.073  -6.264   2.633  1.00  0.00    -0.295 N 
HETATM   10  N4  UNL     1       3.060  -5.174   3.382  1.00  0.00    -0.295 N 
ATOM     11  H3  UNL     1       3.885  -6.719   2.217  1.00  0.00     0.187 HD
HETATM   12  C5  UNL     1       1.815  -4.852   3.763  1.00  0.00     0.200 A 
ATOM     13  H4  UNL     1       3.893  -4.643   3.636  1.00  0.00     0.187 HD
ENDBRANCH   6   7
ENDBRANCH   5   6
ENDBRANCH   1   5
BRANCH   1  14
HETATM   14  N5  UNL     1      -2.672  -6.289   1.051  1.00  0.00    -0.179 N 
ATOM     15  H5  UNL     1      -3.557  -5.781   1.092  1.00  0.00     0.185 HD
BRANCH  14  16
HETATM   16  C6  UNL     1      -2.720  -7.557   0.934  1.00  0.00     0.713 A 
HETATM   17  N6  UNL     1      -3.141  -8.193  -0.172  1.00  0.00    -0.117 N 
HETATM   18  N7  UNL     1      -3.068  -9.497   0.025  1.00  0.00    -0.118 N 
ATOM     19  H6  UNL     1      -3.464  -7.741  -1.027  1.00  0.00     0.206 HD
HETATM   20  C7  UNL     1      -2.599  -9.734   1.267  1.00  0.00     0.705 A 
ATOM     21  H7  UNL     1      -3.327 -10.212  -0.655  1.00  0.00     0.206 HD
HETATM   22  N9  UNL     1      -2.390  -8.516   1.811  1.00  0.00    -0.020 N 
ATOM     23  H9  UNL     1      -2.033  -8.349   2.752  1.00  0.00     0.203 HD
BRANCH  20  24
HETATM   24  N8  UNL     1      -2.418 -10.902   1.748  1.00  0.00    -0.233 N 
ATOM     25  H82 UNL     1      -2.993 -11.743   1.687  1.00  0.00     0.174 HD
ATOM     26  H81 UNL     1      -1.606 -11.168   2.304  1.00  0.00     0.174 HD
ENDBRANCH  20  24
ENDBRANCH  14  16
ENDBRANCH   1  14
TORSDOF 7
ENDMDL
MODEL 5
REMARK VINA RESULT: -5.687864755      2.245      3.132
REMARK  7 active torsions:
REMARK  status: ('A' for Active; 'I' for Inactive)
REMARK    1  A    between atoms: N1_1  and  C1_4 
REMARK    2  A    between atoms: C1_4  and  C2_5 
REMARK    3  A    between atoms: C1_4  and  N5_14 
REMARK    4  A    between atoms: C2_5  and  C3_6 
REMARK    5  A    between atoms: C3_6  and  N2_7 
REMARK    6  A    between atoms: N5_14  and  C6_16 
REMARK    7  A    between atoms: C7_21  and  N8_22 
ROOT
HETATM    1  C1  UNL     1      -1.888  -7.170   0.265  1.00  0.00     0.092 C 
ENDROOT
BRANCH   1   2
HETATM    2  N1  UNL     1      -1.414  -7.361  -0.913  1.00  0.00    -0.388 N 
ATOM      3  H12 UNL     1      -1.780  -6.780  -1.667  1.00  0.00     0.157 HD
ATOM      4  H11 UNL     1      -0.699  -8.071  -1.069  1.00  0.00     0.157 HD
ENDBRANCH   1   2
BRANCH   1   5
HETATM    5  C2  UNL     1      -2.441  -8.292   1.029  1.00  0.00     0.097 C 
BRANCH   5   6
HETATM    6  C3  UNL     1      -1.386  -9.101   1.745  1.00  0.00     0.138 C 
BRANCH   6   7
HETATM    7  N2  UNL     1      -1.546  -8.868   3.164  1.00  0.00    -0.337 N 
HETATM    8  C4  UNL     1      -2.682  -9.094   3.843  1.00  0.00     0.200 A 
HETATM    9  N3  UNL     1      -2.487  -8.771   5.139  1.00  0.00    -0.295 N 
HETATM   10  N4  UNL     1      -1.233  -8.356   5.212  1.00  0.00    -0.295 N 
ATOM     11  H3  UNL     1      -3.163  -8.833   5.901  1.00  0.00     0.187 HD
HETATM   12  C5  UNL     1      -0.628  -8.403   4.015  1.00  0.00     0.200 A 
ATOM     13  H4  UNL     1      -0.782  -8.040   6.070  1.00  0.00     0.187 HD
ENDBRANCH   6   7
ENDBRANCH   5   6
ENDBRANCH   1   5
BRANCH   1  14
HETATM   14  N5  UNL     1      -1.851  -5.850   0.776  1.00  0.00    -0.179 N 
ATOM     15  H5  UNL     1      -2.453  -5.153   0.337  1.00  0.00     0.185 HD
BRANCH  14  16
HETATM   16  C6  UNL     1      -1.117  -5.473   1.748  1.00  0.00     0.713 A 
HETATM   17  N6  UNL     1      -1.588  -5.169   2.969  1.00  0.00    -0.117 N 
HETATM   18  N7  UNL     1      -0.579  -4.817   3.746  1.00  0.00    -0.118 N 
ATOM     19  H6  UNL     1      -2.567  -5.204   3.250  1.00  0.00     0.206 HD
HETATM   20  C7  UNL     1       0.569  -4.885   3.042  1.00  0.00     0.705 A 
ATOM     21  H7  UNL     1      -0.657  -4.538   4.724  1.00  0.00     0.206 HD
HETATM   22  N9  UNL     1       0.210  -5.294   1.807  1.00  0.00    -0.020 N 
ATOM     23  H9  UNL     1       0.855  -5.445   1.031  1.00  0.00     0.203 HD
BRANCH  20  24
HETATM   24  N8  UNL     1       1.717  -4.603   3.525  1.00  0.00    -0.233 N 
ATOM     25  H82 UNL     1       2.062  -4.640   4.484  1.00  0.00     0.174 HD
ATOM     26  H81 UNL     1       2.504  -4.277   2.965  1.00  0.00     0.174 HD
ENDBRANCH  20  24
ENDBRANCH  14  16
ENDBRANCH   1  14
TORSDOF 7
ENDMDL
