MODEL 1
REMARK VINA RESULT: -5.703480297      0.000      0.000
REMARK  3 active torsions:
REMARK  status: ('A' for Active; 'I' for Inactive)
REMARK    1  A    between atoms: C4_11  and  N4_12 
REMARK    2  A    between atoms: N4_12  and  S1_14 
REMARK    3  A    between atoms: S1_14  and  N5_15 
ROOT
HETATM    1  N1  UNL     1      37.329  43.242  12.808  1.00  0.00    -0.080 NA
HETATM    2  C1  UNL     1      37.855  44.208  11.898  1.00  0.00     0.153 A 
HETATM    3  N2  UNL     1      38.244  43.859  10.660  1.00  0.00    -0.295 N 
ATOM      4  H2  UNL     1      38.168  42.890  10.351  1.00  0.00     0.172 HD
HETATM    5  C2  UNL     1      38.733  44.798   9.836  1.00  0.00     0.328 A 
HETATM    6  O1  UNL     1      39.106  44.472   8.656  1.00  0.00    -0.247 OA
HETATM    7  N3  UNL     1      38.831  46.077  10.247  1.00  0.00    -0.273 N 
ATOM      8  H3  UNL     1      39.207  46.768   9.597  1.00  0.00     0.173 HD
HETATM    9  C3  UNL     1      38.459  46.491  11.471  1.00  0.00     0.280 A 
HETATM   10  O2  UNL     1      38.575  47.707  11.801  1.00  0.00    -0.265 OA
HETATM   11  C4  UNL     1      37.958  45.531  12.319  1.00  0.00     0.153 A 
ENDROOT
BRANCH  11  12
HETATM   12  N4  UNL     1      37.557  45.935  13.617  1.00  0.00    -0.260 N 
ATOM     13  H4  UNL     1      38.288  46.093  14.312  1.00  0.00     0.180 HD
BRANCH  12  14
HETATM   14  S1  UNL     1      35.944  46.175  14.100  1.00  0.00     0.317 S 
HETATM   15  O3  UNL     1      35.220  47.180  13.258  1.00  0.00    -0.183 OA
HETATM   16  O4  UNL     1      35.930  46.667  15.521  1.00  0.00    -0.183 OA
BRANCH  14  17
HETATM   17  N5  UNL     1      35.012  44.714  14.045  1.00  0.00    -0.311 N 
ATOM     18  H52 UNL     1      34.936  44.136  13.208  1.00  0.00     0.170 HD
ATOM     19  H51 UNL     1      34.558  44.508  14.935  1.00  0.00     0.170 HD
ENDBRANCH  14  17
ENDBRANCH  12  14
ENDBRANCH  11  12
TORSDOF 3
ENDMDL
MODEL 2
REMARK VINA RESULT: -5.652913457      1.348      2.194
REMARK  3 active torsions:
REMARK  status: ('A' for Active; 'I' for Inactive)
REMARK    1  A    between atoms: C4_11  and  N4_12 
REMARK    2  A    between atoms: N4_12  and  S1_14 
REMARK    3  A    between atoms: S1_14  and  N5_15 
ROOT
HETATM    1  N1  UNL     1      38.527  47.834  11.765  1.00  0.00    -0.080 NA
HETATM    2  C1  UNL     1      38.438  46.463  11.382  1.00  0.00     0.153 A 
HETATM    3  N2  UNL     1      38.808  46.058  10.155  1.00  0.00    -0.295 N 
ATOM      4  H2  UNL     1      39.160  46.731   9.475  1.00  0.00     0.172 HD
HETATM    5  C2  UNL     1      38.709  44.758   9.834  1.00  0.00     0.328 A 
HETATM    6  O1  UNL     1      39.059  44.367   8.667  1.00  0.00    -0.247 OA
HETATM    7  N3  UNL     1      38.244  43.871  10.735  1.00  0.00    -0.273 N 
ATOM      8  H3  UNL     1      38.181  42.890  10.460  1.00  0.00     0.173 HD
HETATM    9  C3  UNL     1      37.859  44.211  11.977  1.00  0.00     0.280 A 
HETATM   10  O2  UNL     1      37.430  43.332  12.780  1.00  0.00    -0.265 OA
HETATM   11  C4  UNL     1      37.958  45.542  12.309  1.00  0.00     0.153 A 
ENDROOT
BRANCH  11  12
HETATM   12  N4  UNL     1      37.560  45.933  13.613  1.00  0.00    -0.260 N 
ATOM     13  H4  UNL     1      38.293  46.088  14.306  1.00  0.00     0.180 HD
BRANCH  12  14
HETATM   14  S1  UNL     1      35.948  46.162  14.103  1.00  0.00     0.317 S 
HETATM   15  O3  UNL     1      35.204  47.139  13.245  1.00  0.00    -0.183 OA
HETATM   16  O4  UNL     1      35.938  46.685  15.512  1.00  0.00    -0.183 OA
BRANCH  14  17
HETATM   17  N5  UNL     1      35.035  44.688  14.087  1.00  0.00    -0.311 N 
ATOM     18  H52 UNL     1      34.826  44.174  13.231  1.00  0.00     0.170 HD
ATOM     19  H51 UNL     1      34.739  44.404  15.021  1.00  0.00     0.170 HD
ENDBRANCH  14  17
ENDBRANCH  12  14
ENDBRANCH  11  12
TORSDOF 3
ENDMDL
MODEL 3
REMARK VINA RESULT: -5.652832523      2.698      5.161
REMARK  3 active torsions:
REMARK  status: ('A' for Active; 'I' for Inactive)
REMARK    1  A    between atoms: C4_11  and  N4_12 
REMARK    2  A    between atoms: N4_12  and  S1_14 
REMARK    3  A    between atoms: S1_14  and  N5_15 
ROOT
HETATM    1  N1  UNL     1      35.524  47.569  11.420  1.00  0.00    -0.080 NA
HETATM    2  C1  UNL     1      35.664  46.735  12.570  1.00  0.00     0.153 A 
HETATM    3  N2  UNL     1      35.394  47.199  13.802  1.00  0.00    -0.295 N 
ATOM      4  H2  UNL     1      35.083  48.161  13.933  1.00  0.00     0.172 HD
HETATM    5  C2  UNL     1      35.539  46.382  14.858  1.00  0.00     0.328 A 
HETATM    6  O1  UNL     1      35.284  46.818  16.033  1.00  0.00    -0.247 OA
HETATM    7  N3  UNL     1      35.949  45.111  14.681  1.00  0.00    -0.273 N 
ATOM      8  H3  UNL     1      36.049  44.516  15.503  1.00  0.00     0.173 HD
HETATM    9  C3  UNL     1      36.235  44.587  13.476  1.00  0.00     0.280 A 
HETATM   10  O2  UNL     1      36.617  43.385  13.372  1.00  0.00    -0.265 OA
HETATM   11  C4  UNL     1      36.088  45.421  12.392  1.00  0.00     0.153 A 
ENDROOT
BRANCH  11  12
HETATM   12  N4  UNL     1      36.382  44.898  11.107  1.00  0.00    -0.260 N 
ATOM     13  H4  UNL     1      35.607  44.518  10.562  1.00  0.00     0.180 HD
BRANCH  12  14
HETATM   14  S1  UNL     1      37.932  44.860  10.410  1.00  0.00     0.317 S 
HETATM   15  O3  UNL     1      38.696  43.615  10.741  1.00  0.00    -0.183 OA
HETATM   16  O4  UNL     1      38.722  46.035  10.915  1.00  0.00    -0.183 OA
BRANCH  14  17
HETATM   17  N5  UNL     1      37.883  44.970   8.680  1.00  0.00    -0.311 N 
ATOM     18  H52 UNL     1      37.012  45.058   8.154  1.00  0.00     0.170 HD
ATOM     19  H51 UNL     1      38.811  44.936   8.261  1.00  0.00     0.170 HD
ENDBRANCH  14  17
ENDBRANCH  12  14
ENDBRANCH  11  12
TORSDOF 3
ENDMDL
MODEL 4
REMARK VINA RESULT: -5.483718677      2.524      2.939
REMARK  3 active torsions:
REMARK  status: ('A' for Active; 'I' for Inactive)
REMARK    1  A    between atoms: C4_11  and  N4_12 
REMARK    2  A    between atoms: N4_12  and  S1_14 
REMARK    3  A    between atoms: S1_14  and  N5_15 
ROOT
HETATM    1  N1  UNL     1      34.960  47.526  10.858  1.00  0.00    -0.080 NA
HETATM    2  C1  UNL     1      35.922  46.674  10.236  1.00  0.00     0.153 A 
HETATM    3  N2  UNL     1      35.970  46.537   8.900  1.00  0.00    -0.295 N 
ATOM      4  H2  UNL     1      35.314  47.045   8.307  1.00  0.00     0.172 HD
HETATM    5  C2  UNL     1      36.890  45.726   8.355  1.00  0.00     0.328 A 
HETATM    6  O1  UNL     1      36.940  45.592   7.084  1.00  0.00    -0.247 OA
HETATM    7  N3  UNL     1      37.756  45.057   9.142  1.00  0.00    -0.273 N 
ATOM      8  H3  UNL     1      38.443  44.449   8.697  1.00  0.00     0.173 HD
HETATM    9  C3  UNL     1      37.760  45.151  10.483  1.00  0.00     0.280 A 
HETATM   10  O2  UNL     1      38.599  44.498  11.170  1.00  0.00    -0.265 OA
HETATM   11  C4  UNL     1      36.818  45.981  11.045  1.00  0.00     0.153 A 
ENDROOT
BRANCH  11  12
HETATM   12  N4  UNL     1      36.797  46.101  12.458  1.00  0.00    -0.260 N 
ATOM     13  H4  UNL     1      37.350  46.849  12.878  1.00  0.00     0.180 HD
BRANCH  12  14
HETATM   14  S1  UNL     1      35.916  45.088  13.501  1.00  0.00     0.317 S 
HETATM   15  O3  UNL     1      36.254  43.638  13.338  1.00  0.00    -0.183 OA
HETATM   16  O4  UNL     1      34.450  45.255  13.217  1.00  0.00    -0.183 OA
BRANCH  14  17
HETATM   17  N5  UNL     1      36.172  45.475  15.172  1.00  0.00    -0.311 N 
ATOM     18  H52 UNL     1      36.583  44.818  15.837  1.00  0.00     0.170 HD
ATOM     19  H51 UNL     1      35.866  46.419  15.404  1.00  0.00     0.170 HD
ENDBRANCH  14  17
ENDBRANCH  12  14
ENDBRANCH  11  12
TORSDOF 3
ENDMDL
MODEL 5
REMARK VINA RESULT: -5.461200129      2.358      4.722
REMARK  3 active torsions:
REMARK  status: ('A' for Active; 'I' for Inactive)
REMARK    1  A    between atoms: C4_11  and  N4_12 
REMARK    2  A    between atoms: N4_12  and  S1_14 
REMARK    3  A    between atoms: S1_14  and  N5_15 
ROOT
HETATM    1  N1  UNL     1      36.571  43.402  13.347  1.00  0.00    -0.080 NA
HETATM    2  C1  UNL     1      36.230  44.778  13.509  1.00  0.00     0.153 A 
HETATM    3  N2  UNL     1      35.981  45.295  14.724  1.00  0.00    -0.295 N 
ATOM      4  H2  UNL     1      36.033  44.706  15.555  1.00  0.00     0.172 HD
HETATM    5  C2  UNL     1      35.663  46.595  14.833  1.00  0.00     0.328 A 
HETATM    6  O1  UNL     1      35.424  47.093  15.988  1.00  0.00    -0.247 OA
HETATM    7  N3  UNL     1      35.596  47.371  13.734  1.00  0.00    -0.273 N 
ATOM      8  H3  UNL     1      35.352  48.355  13.850  1.00  0.00     0.173 HD
HETATM    9  C3  UNL     1      35.834  46.916  12.492  1.00  0.00     0.280 A 
HETATM   10  O2  UNL     1      35.755  47.693  11.496  1.00  0.00    -0.265 OA
HETATM   11  C4  UNL     1      36.159  45.585  12.376  1.00  0.00     0.153 A 
ENDROOT
BRANCH  11  12
HETATM   12  N4  UNL     1      36.416  45.074  11.078  1.00  0.00    -0.260 N 
ATOM     13  H4  UNL     1      35.617  44.757  10.527  1.00  0.00     0.180 HD
BRANCH  12  14
HETATM   14  S1  UNL     1      37.959  44.950  10.376  1.00  0.00     0.317 S 
HETATM   15  O3  UNL     1      38.664  43.675  10.723  1.00  0.00    -0.183 OA
HETATM   16  O4  UNL     1      38.807  46.093  10.860  1.00  0.00    -0.183 OA
BRANCH  14  17
HETATM   17  N5  UNL     1      37.908  45.036   8.645  1.00  0.00    -0.311 N 
ATOM     18  H52 UNL     1      38.125  44.240   8.043  1.00  0.00     0.170 HD
ATOM     19  H51 UNL     1      37.640  45.960   8.309  1.00  0.00     0.170 HD
ENDBRANCH  14  17
ENDBRANCH  12  14
ENDBRANCH  11  12
TORSDOF 3
ENDMDL
