MODEL 1
REMARK VINA RESULT: -7.957086892      0.000      0.000
REMARK  2 active torsions:
REMARK  status: ('A' for Active; 'I' for Inactive)
REMARK       I    between atoms: N4_11  and  C5_13 
REMARK    1  A    between atoms: C5_13  and  C6_15 
REMARK    2  A    between atoms: C6_15  and  N5_16 
REMARK       I    between atoms: N5_16  and  C7_18 
ROOT
HETATM    1  C1  UNL     1       5.599  21.317  11.955  1.00  0.00     0.161 C 
HETATM    2  N1  UNL     1       6.823  20.629  11.597  1.00  0.00    -0.298 N 
HETATM    3  C2  UNL     1       7.474  20.729  10.416  1.00  0.00     0.328 A 
HETATM    4  O1  UNL     1       7.078  21.457   9.451  1.00  0.00    -0.246 OA
HETATM    5  N2  UNL     1       8.560  19.948  10.460  1.00  0.00    -0.292 N 
ATOM      6  H2  UNL     1       9.230  19.834   9.700  1.00  0.00     0.172 HD
HETATM    7  C3  UNL     1       8.636  19.339  11.646  1.00  0.00     0.155 A 
HETATM    8  N3  UNL     1       9.510  18.472  12.193  1.00  0.00    -0.174 N 
ATOM      9  H3  UNL     1      10.321  18.153  11.663  1.00  0.00     0.186 HD
HETATM   10  C4  UNL     1       9.301  18.028  13.449  1.00  0.00     0.688 A 
HETATM   11  N4  UNL     1      10.172  17.198  13.922  1.00  0.00    -0.158 N 
ATOM     12  H4  UNL     1      10.975  16.897  13.370  1.00  0.00     0.187 HD
HETATM   13  C5  UNL     1       9.966  16.724  15.237  1.00  0.00     0.253 C 
HETATM   14  O2  UNL     1      10.372  17.413  16.196  1.00  0.00    -0.271 OA
HETATM   15  N7  UNL     1       8.231  18.447  14.149  1.00  0.00    -0.176 N 
ATOM     16  H7  UNL     1       8.101  18.093  15.096  1.00  0.00     0.185 HD
HETATM   17  C8  UNL     1       7.322  19.311  13.660  1.00  0.00     0.162 A 
HETATM   18  N8  UNL     1       6.190  19.740  14.435  1.00  0.00    -0.080 NA
HETATM   19  C9  UNL     1       7.530  19.770  12.375  1.00  0.00     0.125 A 
ENDROOT
BRANCH  13  20
HETATM   20  C6  UNL     1       9.282  15.441  15.460  1.00  0.00     0.227 C 
BRANCH  20  21
HETATM   21  N5  UNL     1       7.848  15.591  15.574  1.00  0.00    -0.337 N 
HETATM   22  C7  UNL     1       7.003  14.598  15.030  1.00  0.00     0.329 C 
HETATM   23  N6  UNL     1       5.578  14.729  15.133  1.00  0.00    -0.040 NA
HETATM   24  O3  UNL     1       7.513  13.591  14.448  1.00  0.00    -0.251 OA
ATOM     25  H5  UNL     1       7.450  16.405  16.042  1.00  0.00     0.164 HD
ENDBRANCH  20  21
ENDBRANCH  13  20
TORSDOF 2
ENDMDL
MODEL 2
REMARK VINA RESULT: -7.535640108      2.333      6.005
REMARK  2 active torsions:
REMARK  status: ('A' for Active; 'I' for Inactive)
REMARK       I    between atoms: N4_11  and  C5_13 
REMARK    1  A    between atoms: C5_13  and  C6_15 
REMARK    2  A    between atoms: C6_15  and  N5_16 
REMARK       I    between atoms: N5_16  and  C7_18 
ROOT
HETATM    1  C1  UNL     1       5.791  15.201  15.812  1.00  0.00     0.161 C 
HETATM    2  N1  UNL     1       6.952  15.877  15.271  1.00  0.00    -0.298 N 
HETATM    3  C2  UNL     1       8.233  15.453  15.365  1.00  0.00     0.328 A 
HETATM    4  O1  UNL     1       8.580  14.381  15.956  1.00  0.00    -0.246 OA
HETATM    5  N2  UNL     1       9.023  16.339  14.747  1.00  0.00    -0.292 N 
ATOM      6  H2  UNL     1      10.037  16.265  14.668  1.00  0.00     0.172 HD
HETATM    7  C3  UNL     1       8.287  17.335  14.249  1.00  0.00     0.155 A 
HETATM    8  N3  UNL     1       8.579  18.452  13.554  1.00  0.00    -0.174 N 
ATOM      9  H3  UNL     1       9.545  18.668  13.308  1.00  0.00     0.186 HD
HETATM   10  C4  UNL     1       7.582  19.282  13.187  1.00  0.00     0.688 A 
HETATM   11  N4  UNL     1       7.921  20.338  12.521  1.00  0.00    -0.158 N 
ATOM     12  H4  UNL     1       8.896  20.528  12.289  1.00  0.00     0.187 HD
HETATM   13  C5  UNL     1       6.886  21.216  12.130  1.00  0.00     0.253 C 
HETATM   14  O2  UNL     1       6.260  20.977  11.078  1.00  0.00    -0.271 OA
HETATM   15  N7  UNL     1       6.307  18.997  13.510  1.00  0.00    -0.176 N 
ATOM     16  H7  UNL     1       5.575  19.645  13.218  1.00  0.00     0.185 HD
HETATM   17  C8  UNL     1       5.948  17.899  14.202  1.00  0.00     0.162 A 
HETATM   18  N8  UNL     1       4.577  17.624  14.531  1.00  0.00    -0.080 NA
HETATM   19  C9  UNL     1       6.964  17.045  14.581  1.00  0.00     0.125 A 
ENDROOT
BRANCH  13  20
HETATM   20  C6  UNL     1       6.561  22.387  12.959  1.00  0.00     0.227 C 
BRANCH  20  21
HETATM   21  N5  UNL     1       5.199  22.358  13.447  1.00  0.00    -0.337 N 
HETATM   22  C7  UNL     1       4.938  21.845  14.737  1.00  0.00     0.329 C 
HETATM   23  N6  UNL     1       3.594  21.807  15.239  1.00  0.00    -0.040 NA
HETATM   24  O3  UNL     1       5.900  21.416  15.447  1.00  0.00    -0.251 OA
ATOM     25  H5  UNL     1       4.436  22.704  12.866  1.00  0.00     0.164 HD
ENDBRANCH  20  21
ENDBRANCH  13  20
TORSDOF 2
ENDMDL
MODEL 3
REMARK VINA RESULT: -7.404200607      1.801      2.110
REMARK  2 active torsions:
REMARK  status: ('A' for Active; 'I' for Inactive)
REMARK       I    between atoms: N4_11  and  C5_13 
REMARK    1  A    between atoms: C5_13  and  C6_15 
REMARK    2  A    between atoms: C6_15  and  N5_16 
REMARK       I    between atoms: N5_16  and  C7_18 
ROOT
HETATM    1  C1  UNL     1       5.033  21.613  13.969  1.00  0.00     0.161 C 
HETATM    2  N1  UNL     1       6.210  20.948  13.450  1.00  0.00    -0.298 N 
HETATM    3  C2  UNL     1       7.057  21.444  12.519  1.00  0.00     0.328 A 
HETATM    4  O1  UNL     1       6.916  22.584  11.973  1.00  0.00    -0.246 OA
HETATM    5  N2  UNL     1       8.021  20.544  12.296  1.00  0.00    -0.292 N 
ATOM      6  H2  UNL     1       8.792  20.662  11.638  1.00  0.00     0.172 HD
HETATM    7  C3  UNL     1       7.826  19.467  13.061  1.00  0.00     0.155 A 
HETATM    8  N3  UNL     1       8.489  18.305  13.220  1.00  0.00    -0.174 N 
ATOM      9  H3  UNL     1       9.334  18.116  12.683  1.00  0.00     0.186 HD
HETATM   10  C4  UNL     1       8.022  17.393  14.098  1.00  0.00     0.688 A 
HETATM   11  N4  UNL     1       8.698  16.297  14.209  1.00  0.00    -0.158 N 
ATOM     12  H4  UNL     1       9.542  16.135  13.659  1.00  0.00     0.187 HD
HETATM   13  C5  UNL     1       8.220  15.333  15.125  1.00  0.00     0.253 C 
HETATM   14  O2  UNL     1       8.537  15.436  16.327  1.00  0.00    -0.271 OA
HETATM   15  N7  UNL     1       6.906  17.642  14.807  1.00  0.00    -0.176 N 
ATOM     16  H7  UNL     1       6.579  16.933  15.463  1.00  0.00     0.185 HD
HETATM   17  C8  UNL     1       6.199  18.782  14.695  1.00  0.00     0.162 A 
HETATM   18  N8  UNL     1       5.011  19.017  15.469  1.00  0.00    -0.080 NA
HETATM   19  C9  UNL     1       6.671  19.720  13.799  1.00  0.00     0.125 A 
ENDROOT
BRANCH  13  20
HETATM   20  C6  UNL     1       7.364  14.232  14.656  1.00  0.00     0.227 C 
BRANCH  20  21
HETATM   21  N5  UNL     1       6.397  13.822  15.651  1.00  0.00    -0.337 N 
HETATM   22  C7  UNL     1       5.128  14.443  15.679  1.00  0.00     0.329 C 
HETATM   23  N6  UNL     1       4.155  14.050  16.658  1.00  0.00    -0.040 NA
HETATM   24  O3  UNL     1       4.855  15.350  14.834  1.00  0.00    -0.251 OA
ATOM     25  H5  UNL     1       6.629  13.093  16.326  1.00  0.00     0.164 HD
ENDBRANCH  20  21
ENDBRANCH  13  20
TORSDOF 2
ENDMDL
MODEL 4
REMARK VINA RESULT: -7.273654146      1.648      1.858
REMARK  2 active torsions:
REMARK  status: ('A' for Active; 'I' for Inactive)
REMARK       I    between atoms: N4_11  and  C5_13 
REMARK    1  A    between atoms: C5_13  and  C6_15 
REMARK    2  A    between atoms: C6_15  and  N5_16 
REMARK       I    between atoms: N5_16  and  C7_18 
ROOT
HETATM    1  C1  UNL     1       4.412  22.026  13.910  1.00  0.00     0.161 C 
HETATM    2  N1  UNL     1       5.582  21.677  13.131  1.00  0.00    -0.298 N 
HETATM    3  C2  UNL     1       6.052  22.353  12.057  1.00  0.00     0.328 A 
HETATM    4  O1  UNL     1       5.508  23.404  11.592  1.00  0.00    -0.246 OA
HETATM    5  N2  UNL     1       7.146  21.728  11.605  1.00  0.00    -0.292 N 
ATOM      6  H2  UNL     1       7.700  22.025  10.803  1.00  0.00     0.172 HD
HETATM    7  C3  UNL     1       7.403  20.657  12.359  1.00  0.00     0.155 A 
HETATM    8  N3  UNL     1       8.362  19.710  12.336  1.00  0.00    -0.174 N 
ATOM      9  H3  UNL     1       9.092  19.733  11.624  1.00  0.00     0.186 HD
HETATM   10  C4  UNL     1       8.345  18.730  13.262  1.00  0.00     0.688 A 
HETATM   11  N4  UNL     1       9.290  17.849  13.191  1.00  0.00    -0.158 N 
ATOM     12  H4  UNL     1      10.008  17.898  12.469  1.00  0.00     0.187 HD
HETATM   13  C5  UNL     1       9.284  16.817  14.156  1.00  0.00     0.253 C 
HETATM   14  O2  UNL     1       9.814  17.028  15.265  1.00  0.00    -0.271 OA
HETATM   15  N7  UNL     1       7.381  18.699  14.201  1.00  0.00    -0.176 N 
ATOM     16  H7  UNL     1       7.397  17.945  14.888  1.00  0.00     0.185 HD
HETATM   17  C8  UNL     1       6.397  19.614  14.279  1.00  0.00     0.162 A 
HETATM   18  N8  UNL     1       5.383  19.552  15.295  1.00  0.00    -0.080 NA
HETATM   19  C9  UNL     1       6.408  20.620  13.334  1.00  0.00     0.125 A 
ENDROOT
BRANCH  13  20
HETATM   20  C6  UNL     1       8.661  15.521  13.845  1.00  0.00     0.227 C 
BRANCH  20  21
HETATM   21  N5  UNL     1       8.044  14.913  15.003  1.00  0.00    -0.337 N 
HETATM   22  C7  UNL     1       6.700  15.220  15.312  1.00  0.00     0.329 C 
HETATM   23  N6  UNL     1       6.070  14.627  16.456  1.00  0.00    -0.040 NA
HETATM   24  O3  UNL     1       6.055  16.025  14.571  1.00  0.00    -0.251 OA
ATOM     25  H5  UNL     1       8.574  14.269  15.591  1.00  0.00     0.164 HD
ENDBRANCH  20  21
ENDBRANCH  13  20
TORSDOF 2
ENDMDL
MODEL 5
REMARK VINA RESULT: -7.238326850      2.600      6.922
REMARK  2 active torsions:
REMARK  status: ('A' for Active; 'I' for Inactive)
REMARK       I    between atoms: N4_11  and  C5_13 
REMARK    1  A    between atoms: C5_13  and  C6_15 
REMARK    2  A    between atoms: C6_15  and  N5_16 
REMARK       I    between atoms: N5_16  and  C7_18 
ROOT
HETATM    1  C1  UNL     1       9.005  15.136  13.795  1.00  0.00     0.161 C 
HETATM    2  N1  UNL     1       7.782  15.425  14.515  1.00  0.00    -0.298 N 
HETATM    3  C2  UNL     1       7.053  14.538  15.230  1.00  0.00     0.328 A 
HETATM    4  O1  UNL     1       7.363  13.311  15.359  1.00  0.00    -0.246 OA
HETATM    5  N2  UNL     1       5.995  15.174  15.748  1.00  0.00    -0.292 N 
ATOM      6  H2  UNL     1       5.279  14.740  16.331  1.00  0.00     0.172 HD
HETATM    7  C3  UNL     1       6.015  16.459  15.388  1.00  0.00     0.155 A 
HETATM    8  N3  UNL     1       5.205  17.507  15.633  1.00  0.00    -0.174 N 
ATOM      9  H3  UNL     1       4.371  17.391  16.209  1.00  0.00     0.186 HD
HETATM   10  C4  UNL     1       5.508  18.713  15.110  1.00  0.00     0.688 A 
HETATM   11  N4  UNL     1       4.695  19.682  15.379  1.00  0.00    -0.158 N 
ATOM     12  H4  UNL     1       3.869  19.537  15.958  1.00  0.00     0.187 HD
HETATM   13  C5  UNL     1       5.000  20.950  14.836  1.00  0.00     0.253 C 
HETATM   14  O2  UNL     1       5.796  21.691  15.448  1.00  0.00    -0.271 OA
HETATM   15  N7  UNL     1       6.608  18.867  14.350  1.00  0.00    -0.176 N 
ATOM     16  H7  UNL     1       6.809  19.791  13.969  1.00  0.00     0.185 HD
HETATM   17  C8  UNL     1       7.457  17.861  14.068  1.00  0.00     0.162 A 
HETATM   18  N8  UNL     1       8.623  18.060  13.253  1.00  0.00    -0.080 NA
HETATM   19  C9  UNL     1       7.153  16.625  14.601  1.00  0.00     0.125 A 
ENDROOT
BRANCH  13  20
HETATM   20  C6  UNL     1       4.383  21.378  13.571  1.00  0.00     0.227 C 
BRANCH  20  21
HETATM   21  N5  UNL     1       5.341  21.971  12.662  1.00  0.00    -0.337 N 
HETATM   22  C7  UNL     1       5.522  23.373  12.667  1.00  0.00     0.329 C 
HETATM   23  N6  UNL     1       6.467  23.980  11.774  1.00  0.00    -0.040 NA
HETATM   24  O3  UNL     1       4.843  24.090  13.466  1.00  0.00    -0.251 OA
ATOM     25  H5  UNL     1       5.879  21.384  12.025  1.00  0.00     0.164 HD
ENDBRANCH  20  21
ENDBRANCH  13  20
TORSDOF 2
ENDMDL
