MODEL 1
REMARK VINA RESULT: -8.011334099      0.000      0.000
REMARK  3 active torsions:
REMARK  status: ('A' for Active; 'I' for Inactive)
REMARK    1  A    between atoms: C2_5  and  N2_6 
REMARK    2  A    between atoms: N2_6  and  C3_8 
REMARK    3  A    between atoms: C3_8  and  C4_9 
ROOT
HETATM    1  O1  UNL     1       9.672  18.831   8.152  1.00  0.00    -0.265 OA
HETATM    2  C1  UNL     1       9.165  19.378   9.154  1.00  0.00     0.288 C 
HETATM    3  N1  UNL     1       9.616  18.991  10.384  1.00  0.00    -0.154 N 
ATOM      4  H1  UNL     1      10.485  18.458  10.384  1.00  0.00     0.187 HD
HETATM    5  C2  UNL     1       9.068  19.218  11.611  1.00  0.00     0.684 C 
HETATM    6  N7  UNL     1       8.237  20.223  11.931  1.00  0.00    -0.154 N 
ATOM      7  H7  UNL     1       8.187  20.458  12.922  1.00  0.00     0.187 HD
HETATM    8  C5  UNL     1       7.459  20.962  11.113  1.00  0.00     0.288 C 
HETATM    9  O2  UNL     1       6.644  21.696  11.692  1.00  0.00    -0.265 OA
HETATM   10  C6  UNL     1       7.434  21.026   9.722  1.00  0.00     0.135 A 
HETATM   11  N8  UNL     1       6.640  21.809   8.969  1.00  0.00    -0.346 N 
ATOM     12  H8  UNL     1       5.951  22.460   9.342  1.00  0.00     0.167 HD
HETATM   13  C7  UNL     1       6.877  21.619   7.658  1.00  0.00     0.181 A 
HETATM   14  N9  UNL     1       7.848  20.688   7.601  1.00  0.00    -0.346 N 
ATOM     15  H9  UNL     1       8.255  20.322   6.740  1.00  0.00     0.167 HD
HETATM   16  C8  UNL     1       8.205  20.309   8.841  1.00  0.00     0.135 A 
ENDROOT
BRANCH   5  17
HETATM   17  N2  UNL     1       9.416  18.363  12.487  1.00  0.00    -0.219 N 
ATOM     18  H2  UNL     1      10.419  18.190  12.558  1.00  0.00     0.178 HD
BRANCH  17  19
HETATM   19  C3  UNL     1       8.603  17.617  13.377  1.00  0.00     0.217 C 
BRANCH  19  20
HETATM   20  C4  UNL     1       9.460  17.095  14.500  1.00  0.00     0.131 A 
HETATM   21  N3  UNL     1      10.445  17.733  15.156  1.00  0.00    -0.271 N 
HETATM   22  N4  UNL     1      10.934  16.909  16.065  1.00  0.00    -0.227 N 
ATOM     23  H3  UNL     1      10.760  18.687  14.982  1.00  0.00     0.190 HD
HETATM   24  N5  UNL     1      10.297  15.762  16.015  1.00  0.00    -0.227 N 
ATOM     25  H4  UNL     1      11.693  17.130  16.709  1.00  0.00     0.210 HD
HETATM   26  N6  UNL     1       9.394  15.869  15.062  1.00  0.00    -0.271 N 
ATOM     27  H5  UNL     1      10.468  14.946  16.602  1.00  0.00     0.210 HD
ATOM     28  H6  UNL     1       8.742  15.135  14.788  1.00  0.00     0.190 HD
ENDBRANCH  19  20
ENDBRANCH  17  19
ENDBRANCH   5  17
TORSDOF 3
ENDMDL
MODEL 2
REMARK VINA RESULT: -7.538758192      2.501      3.226
REMARK  3 active torsions:
REMARK  status: ('A' for Active; 'I' for Inactive)
REMARK    1  A    between atoms: C2_5  and  N2_6 
REMARK    2  A    between atoms: N2_6  and  C3_8 
REMARK    3  A    between atoms: C3_8  and  C4_9 
ROOT
HETATM    1  O1  UNL     1       7.918  20.732  10.880  1.00  0.00    -0.265 OA
HETATM    2  C1  UNL     1       7.391  20.829  12.008  1.00  0.00     0.288 C 
HETATM    3  N1  UNL     1       7.663  19.851  12.922  1.00  0.00    -0.154 N 
ATOM      4  H1  UNL     1       8.449  19.244  12.693  1.00  0.00     0.187 HD
HETATM    5  C2  UNL     1       7.031  19.573  14.097  1.00  0.00     0.684 C 
HETATM    6  N7  UNL     1       6.313  20.437  14.832  1.00  0.00    -0.154 N 
ATOM      7  H7  UNL     1       6.197  20.193  15.815  1.00  0.00     0.187 HD
HETATM    8  C5  UNL     1       5.725  21.585  14.439  1.00  0.00     0.288 C 
HETATM    9  O2  UNL     1       4.961  22.092  15.275  1.00  0.00    -0.265 OA
HETATM   10  C6  UNL     1       5.846  22.288  13.242  1.00  0.00     0.135 A 
HETATM   11  N8  UNL     1       5.241  23.447  12.927  1.00  0.00    -0.346 N 
ATOM     12  H8  UNL     1       4.610  23.956  13.546  1.00  0.00     0.167 HD
HETATM   13  C7  UNL     1       5.579  23.847  11.688  1.00  0.00     0.181 A 
HETATM   14  N9  UNL     1       6.419  22.903  11.223  1.00  0.00    -0.346 N 
ATOM     15  H9  UNL     1       6.856  22.915  10.302  1.00  0.00     0.167 HD
HETATM   16  C8  UNL     1       6.599  21.942  12.148  1.00  0.00     0.135 A 
ENDROOT
BRANCH   5  17
HETATM   17  N2  UNL     1       7.175  18.366  14.476  1.00  0.00    -0.219 N 
ATOM     18  H2  UNL     1       6.686  18.114  15.335  1.00  0.00     0.178 HD
BRANCH  17  19
HETATM   19  C3  UNL     1       7.919  17.324  13.867  1.00  0.00     0.217 C 
BRANCH  19  20
HETATM   20  C4  UNL     1       9.073  16.961  14.765  1.00  0.00     0.131 A 
HETATM   21  N3  UNL     1      10.067  17.755  15.199  1.00  0.00    -0.271 N 
HETATM   22  N4  UNL     1      10.865  17.033  15.964  1.00  0.00    -0.227 N 
ATOM     23  H3  UNL     1      10.184  18.743  14.976  1.00  0.00     0.190 HD
HETATM   24  N5  UNL     1      10.419  15.801  16.036  1.00  0.00    -0.227 N 
ATOM     25  H4  UNL     1      11.704  17.381  16.428  1.00  0.00     0.210 HD
HETATM   26  N6  UNL     1       9.323  15.750  15.306  1.00  0.00    -0.271 N 
ATOM     27  H5  UNL     1      10.840  15.031  16.557  1.00  0.00     0.210 HD
ATOM     28  H6  UNL     1       8.749  14.918  15.171  1.00  0.00     0.190 HD
ENDBRANCH  19  20
ENDBRANCH  17  19
ENDBRANCH   5  17
TORSDOF 3
ENDMDL
MODEL 3
REMARK VINA RESULT: -7.515854683      1.053      1.358
REMARK  3 active torsions:
REMARK  status: ('A' for Active; 'I' for Inactive)
REMARK    1  A    between atoms: C2_5  and  N2_6 
REMARK    2  A    between atoms: N2_6  and  C3_8 
REMARK    3  A    between atoms: C3_8  and  C4_9 
ROOT
HETATM    1  O1  UNL     1       9.788  18.923   9.841  1.00  0.00    -0.265 OA
HETATM    2  C1  UNL     1       8.916  19.537  10.492  1.00  0.00     0.288 C 
HETATM    3  N1  UNL     1       8.880  19.345  11.843  1.00  0.00    -0.154 N 
ATOM      4  H1  UNL     1       9.705  18.899  12.245  1.00  0.00     0.187 HD
HETATM    5  C2  UNL     1       7.898  19.665  12.732  1.00  0.00     0.684 C 
HETATM    6  N7  UNL     1       6.966  20.619  12.570  1.00  0.00    -0.154 N 
ATOM      7  H7  UNL     1       6.534  20.966  13.426  1.00  0.00     0.187 HD
HETATM    8  C5  UNL     1       6.529  21.178  11.423  1.00  0.00     0.288 C 
HETATM    9  O2  UNL     1       5.525  21.897  11.543  1.00  0.00    -0.265 OA
HETATM   10  C6  UNL     1       7.032  21.072  10.128  1.00  0.00     0.135 A 
HETATM   11  N8  UNL     1       6.553  21.680   9.029  1.00  0.00    -0.346 N 
ATOM     12  H8  UNL     1       5.746  22.304   9.019  1.00  0.00     0.167 HD
HETATM   13  C7  UNL     1       7.278  21.357   7.943  1.00  0.00     0.181 A 
HETATM   14  N9  UNL     1       8.235  20.521   8.387  1.00  0.00    -0.346 N 
ATOM     15  H9  UNL     1       8.953  20.094   7.802  1.00  0.00     0.167 HD
HETATM   16  C8  UNL     1       8.109  20.329   9.712  1.00  0.00     0.135 A 
ENDROOT
BRANCH   5  17
HETATM   17  N2  UNL     1       7.921  18.958  13.790  1.00  0.00    -0.219 N 
ATOM     18  H2  UNL     1       7.993  19.479  14.665  1.00  0.00     0.178 HD
BRANCH  17  19
HETATM   19  C3  UNL     1       7.861  17.548  13.921  1.00  0.00     0.217 C 
BRANCH  19  20
HETATM   20  C4  UNL     1       9.007  17.089  14.785  1.00  0.00     0.131 A 
HETATM   21  N3  UNL     1       9.075  15.991  15.558  1.00  0.00    -0.271 N 
HETATM   22  N4  UNL     1      10.258  15.974  16.143  1.00  0.00    -0.227 N 
ATOM     23  H3  UNL     1       8.340  15.294  15.672  1.00  0.00     0.190 HD
HETATM   24  N5  UNL     1      10.954  17.024  15.774  1.00  0.00    -0.227 N 
ATOM     25  H4  UNL     1      10.583  15.253  16.788  1.00  0.00     0.210 HD
HETATM   26  N6  UNL     1      10.195  17.710  14.943  1.00  0.00    -0.271 N 
ATOM     27  H5  UNL     1      11.900  17.263  16.073  1.00  0.00     0.210 HD
ATOM     28  H6  UNL     1      10.467  18.580  14.486  1.00  0.00     0.190 HD
ENDBRANCH  19  20
ENDBRANCH  17  19
ENDBRANCH   5  17
TORSDOF 3
ENDMDL
MODEL 4
REMARK VINA RESULT: -7.495045670      5.618      8.729
REMARK  3 active torsions:
REMARK  status: ('A' for Active; 'I' for Inactive)
REMARK    1  A    between atoms: C2_5  and  N2_6 
REMARK    2  A    between atoms: N2_6  and  C3_8 
REMARK    3  A    between atoms: C3_8  and  C4_9 
ROOT
HETATM    1  O1  UNL     1       3.088  14.479  17.198  1.00  0.00    -0.265 OA
HETATM    2  C1  UNL     1       4.157  14.124  16.659  1.00  0.00     0.288 C 
HETATM    3  N1  UNL     1       5.120  15.074  16.472  1.00  0.00    -0.154 N 
ATOM      4  H1  UNL     1       4.986  15.942  16.991  1.00  0.00     0.187 HD
HETATM    5  C2  UNL     1       6.236  15.026  15.691  1.00  0.00     0.684 C 
HETATM    6  N7  UNL     1       6.873  13.913  15.290  1.00  0.00    -0.154 N 
ATOM      7  H7  UNL     1       7.846  14.035  15.014  1.00  0.00     0.187 HD
HETATM    8  C5  UNL     1       6.391  12.656  15.206  1.00  0.00     0.288 C 
HETATM    9  O2  UNL     1       7.134  11.852  14.622  1.00  0.00    -0.265 OA
HETATM   10  C6  UNL     1       5.192  12.124  15.675  1.00  0.00     0.135 A 
HETATM   11  N8  UNL     1       4.787  10.846  15.574  1.00  0.00    -0.346 N 
ATOM     12  H8  UNL     1       5.327  10.103  15.131  1.00  0.00     0.167 HD
HETATM   13  C7  UNL     1       3.576  10.677  16.134  1.00  0.00     0.181 A 
HETATM   14  N9  UNL     1       3.222  11.891  16.595  1.00  0.00    -0.346 N 
ATOM     15  H9  UNL     1       2.348  12.100  17.077  1.00  0.00     0.167 HD
HETATM   16  C8  UNL     1       4.186  12.791  16.329  1.00  0.00     0.135 A 
ENDROOT
BRANCH   5  17
HETATM   17  N2  UNL     1       6.661  16.174  15.344  1.00  0.00    -0.219 N 
ATOM     18  H2  UNL     1       6.311  16.958  15.896  1.00  0.00     0.178 HD
BRANCH  17  19
HETATM   19  C3  UNL     1       7.554  16.515  14.296  1.00  0.00     0.217 C 
BRANCH  19  20
HETATM   20  C4  UNL     1       8.913  16.788  14.884  1.00  0.00     0.131 A 
HETATM   21  N3  UNL     1       9.450  16.275  16.004  1.00  0.00    -0.271 N 
HETATM   22  N4  UNL     1      10.660  16.784  16.150  1.00  0.00    -0.227 N 
ATOM     23  H3  UNL     1       9.002  15.608  16.632  1.00  0.00     0.190 HD
HETATM   24  N5  UNL     1      10.919  17.607  15.162  1.00  0.00    -0.227 N 
ATOM     25  H4  UNL     1      11.298  16.569  16.916  1.00  0.00     0.210 HD
HETATM   26  N6  UNL     1       9.856  17.615  14.384  1.00  0.00    -0.271 N 
ATOM     27  H5  UNL     1      11.779  18.140  15.023  1.00  0.00     0.210 HD
ATOM     28  H6  UNL     1       9.760  18.164  13.529  1.00  0.00     0.190 HD
ENDBRANCH  19  20
ENDBRANCH  17  19
ENDBRANCH   5  17
TORSDOF 3
ENDMDL
MODEL 5
REMARK VINA RESULT: -7.484589001      2.800      6.955
REMARK  3 active torsions:
REMARK  status: ('A' for Active; 'I' for Inactive)
REMARK    1  A    between atoms: C2_5  and  N2_6 
REMARK    2  A    between atoms: N2_6  and  C3_8 
REMARK    3  A    between atoms: C3_8  and  C4_9 
ROOT
HETATM    1  O1  UNL     1       5.932  18.424  15.015  1.00  0.00    -0.265 OA
HETATM    2  C1  UNL     1       6.906  17.762  14.598  1.00  0.00     0.288 C 
HETATM    3  N1  UNL     1       7.882  18.429  13.914  1.00  0.00    -0.154 N 
ATOM      4  H1  UNL     1       7.855  19.446  13.993  1.00  0.00     0.187 HD
HETATM    5  C2  UNL     1       8.886  17.929  13.140  1.00  0.00     0.684 C 
HETATM    6  N7  UNL     1       9.414  16.698  13.231  1.00  0.00    -0.154 N 
ATOM      7  H7  UNL     1      10.350  16.587  12.841  1.00  0.00     0.187 HD
HETATM    8  C5  UNL     1       8.868  15.588  13.770  1.00  0.00     0.288 C 
HETATM    9  O2  UNL     1       9.492  14.539  13.548  1.00  0.00    -0.265 OA
HETATM   10  C6  UNL     1       7.714  15.442  14.537  1.00  0.00     0.135 A 
HETATM   11  N8  UNL     1       7.240  14.299  15.064  1.00  0.00    -0.346 N 
ATOM     12  H8  UNL     1       7.684  13.387  14.958  1.00  0.00     0.167 HD
HETATM   13  C7  UNL     1       6.103  14.517  15.749  1.00  0.00     0.181 A 
HETATM   14  N9  UNL     1       5.868  15.838  15.640  1.00  0.00    -0.346 N 
ATOM     15  H9  UNL     1       5.073  16.325  16.054  1.00  0.00     0.167 HD
HETATM   16  C8  UNL     1       6.832  16.425  14.908  1.00  0.00     0.135 A 
ENDROOT
BRANCH   5  17
HETATM   17  N2  UNL     1       9.316  18.755  12.273  1.00  0.00    -0.219 N 
ATOM     18  H2  UNL     1      10.298  18.649  12.014  1.00  0.00     0.178 HD
BRANCH  17  19
HETATM   19  C3  UNL     1       8.621  19.801  11.616  1.00  0.00     0.217 C 
BRANCH  19  20
HETATM   20  C4  UNL     1       8.879  19.704  10.135  1.00  0.00     0.131 A 
HETATM   21  N3  UNL     1       8.243  20.345   9.139  1.00  0.00    -0.271 N 
HETATM   22  N4  UNL     1       8.786  19.968   7.996  1.00  0.00    -0.227 N 
ATOM     23  H3  UNL     1       7.475  21.006   9.247  1.00  0.00     0.190 HD
HETATM   24  N5  UNL     1       9.750  19.106   8.223  1.00  0.00    -0.227 N 
ATOM     25  H4  UNL     1       8.500  20.297   7.074  1.00  0.00     0.210 HD
HETATM   26  N6  UNL     1       9.812  18.940   9.528  1.00  0.00    -0.271 N 
ATOM     27  H5  UNL     1      10.337  18.652   7.523  1.00  0.00     0.210 HD
ATOM     28  H6  UNL     1      10.469  18.326  10.010  1.00  0.00     0.190 HD
ENDBRANCH  19  20
ENDBRANCH  17  19
ENDBRANCH   5  17
TORSDOF 3
ENDMDL
