MODEL 1
REMARK VINA RESULT: -8.171092370      0.000      0.000
REMARK  3 active torsions:
REMARK  status: ('A' for Active; 'I' for Inactive)
REMARK    1  A    between atoms: N2_5  and  C3_6 
REMARK       I    between atoms: N5_12  and  C5_14 
REMARK       I    between atoms: C5_14  and  N7_18 
REMARK    2  A    between atoms: N7_18  and  N8_20 
REMARK    3  A    between atoms: N8_20  and  O1_22 
ROOT
HETATM    1  C3  UNL     1       2.112 -79.382-144.656  1.00  0.00     0.272 A 
HETATM    2  N3  UNL     1       1.361 -78.656-143.800  1.00  0.00    -0.260 N 
ATOM      3  H3  UNL     1       1.064 -77.693-143.959  1.00  0.00     0.190 HD
HETATM    4  N4  UNL     1       1.063 -79.369-142.726  1.00  0.00    -0.261 N 
ATOM      5  H4  UNL     1       0.509 -79.071-141.923  1.00  0.00     0.190 HD
HETATM    6  C4  UNL     1       1.641 -80.569-142.914  1.00  0.00     0.261 A 
HETATM    7  N5  UNL     1       1.588 -81.577-142.079  1.00  0.00    -0.152 N 
ATOM      8  H5  UNL     1       2.057 -82.454-142.302  1.00  0.00     0.188 HD
HETATM    9  C5  UNL     1       0.877 -81.440-140.865  1.00  0.00     0.695 C 
HETATM   10  N6  UNL     1       1.543 -81.363-139.772  1.00  0.00    -0.233 N 
ATOM     11  H61 UNL     1       1.030 -81.265-138.895  1.00  0.00     0.174 HD
ATOM     12  H62 UNL     1       2.562 -81.400-139.798  1.00  0.00     0.174 HD
HETATM   13  N7  UNL     1      -0.524 -81.389-140.828  1.00  0.00    -0.113 N 
ATOM     14  H7  UNL     1      -1.047 -81.095-141.654  1.00  0.00     0.207 HD
HETATM   15  O2  UNL     1       2.258 -80.542-144.075  1.00  0.00    -0.242 OA
ENDROOT
BRANCH   1  16
HETATM   16  N2  UNL     1       2.612 -78.930-145.912  1.00  0.00    -0.165 N 
HETATM   17  N1  UNL     1       2.772 -77.641-146.167  1.00  0.00    -0.286 N 
HETATM   18  C2  UNL     1       3.244 -77.193-147.349  1.00  0.00     0.090 A 
ATOM     19  H1  UNL     1       2.529 -76.962-145.445  1.00  0.00     0.187 HD
HETATM   20  C1  UNL     1       3.418 -75.738-147.621  1.00  0.00     0.076 C 
HETATM   21  C7  UNL     1       3.584 -78.076-148.354  1.00  0.00     0.273 A 
HETATM   22  N9  UNL     1       3.418 -79.385-148.085  1.00  0.00    -0.272 N 
HETATM   23  O4  UNL     1       4.028 -77.674-149.468  1.00  0.00    -0.266 OA
HETATM   24  C6  UNL     1       2.945 -79.788-146.894  1.00  0.00     0.351 A 
ATOM     25  H9  UNL     1       3.654 -80.079-148.795  1.00  0.00     0.174 HD
HETATM   26  O3  UNL     1       2.781 -81.022-146.622  1.00  0.00    -0.244 OA
ENDBRANCH   1  16
BRANCH  13  27
HETATM   27  N8  UNL     1      -1.199 -81.738-139.668  1.00  0.00    -0.196 N 
ATOM     28  H8  UNL     1      -0.877 -81.394-138.763  1.00  0.00     0.216 HD
BRANCH  27  29
HETATM   29  O1  UNL     1      -2.218 -82.488-139.740  1.00  0.00    -0.274 OA
ATOM     30  H1  UNL     1      -3.011 -82.245-139.278  1.00  0.00     0.246 HD
ENDBRANCH  27  29
ENDBRANCH  13  27
TORSDOF 3
ENDMDL
MODEL 2
REMARK VINA RESULT: -7.639830783      1.798      7.647
REMARK  3 active torsions:
REMARK  status: ('A' for Active; 'I' for Inactive)
REMARK    1  A    between atoms: N2_5  and  C3_6 
REMARK       I    between atoms: N5_12  and  C5_14 
REMARK       I    between atoms: C5_14  and  N7_18 
REMARK    2  A    between atoms: N7_18  and  N8_20 
REMARK    3  A    between atoms: N8_20  and  O1_22 
ROOT
HETATM    1  C3  UNL     1       1.584 -79.496-144.143  1.00  0.00     0.272 A 
HETATM    2  N3  UNL     1       0.819 -79.067-145.170  1.00  0.00    -0.260 N 
ATOM      3  H3  UNL     1      -0.191 -79.188-145.233  1.00  0.00     0.190 HD
HETATM    4  N4  UNL     1       1.566 -78.468-146.084  1.00  0.00    -0.261 N 
ATOM      5  H4  UNL     1       1.251 -78.051-146.960  1.00  0.00     0.190 HD
HETATM    6  C4  UNL     1       2.827 -78.524-145.618  1.00  0.00     0.261 A 
HETATM    7  N5  UNL     1       3.882 -78.040-146.224  1.00  0.00    -0.152 N 
ATOM      8  H5  UNL     1       4.804 -78.126-145.797  1.00  0.00     0.188 HD
HETATM    9  C5  UNL     1       3.736 -77.398-147.474  1.00  0.00     0.695 C 
HETATM   10  N6  UNL     1       4.166 -77.998-148.524  1.00  0.00    -0.233 N 
ATOM     11  H61 UNL     1       4.061 -77.535-149.426  1.00  0.00     0.174 HD
ATOM     12  H62 UNL     1       4.600 -78.917-148.437  1.00  0.00     0.174 HD
HETATM   13  N7  UNL     1       3.138 -76.135-147.595  1.00  0.00    -0.113 N 
ATOM     14  H7  UNL     1       2.491 -75.806-146.878  1.00  0.00     0.207 HD
HETATM   15  O2  UNL     1       2.800 -79.143-144.458  1.00  0.00    -0.242 OA
ENDROOT
BRANCH   1  16
HETATM   16  N2  UNL     1       1.112 -80.182-142.985  1.00  0.00    -0.165 N 
HETATM   17  N1  UNL     1       1.829 -81.134-142.409  1.00  0.00    -0.286 N 
HETATM   18  C2  UNL     1       1.401 -81.794-141.313  1.00  0.00     0.090 A 
ATOM     19  H1  UNL     1       2.736 -81.377-142.807  1.00  0.00     0.187 HD
HETATM   20  C1  UNL     1       2.219 -82.864-140.675  1.00  0.00     0.076 C 
HETATM   21  C7  UNL     1       0.179 -81.498-140.742  1.00  0.00     0.273 A 
HETATM   22  N9  UNL     1      -0.543 -80.528-141.336  1.00  0.00    -0.272 N 
HETATM   23  O4  UNL     1      -0.237 -82.107-139.714  1.00  0.00    -0.266 OA
HETATM   24  C6  UNL     1      -0.078 -79.895-142.425  1.00  0.00     0.351 A 
ATOM     25  H9  UNL     1      -1.452 -80.272-140.953  1.00  0.00     0.174 HD
HETATM   26  O3  UNL     1      -0.746 -78.976-143.001  1.00  0.00    -0.244 OA
ENDBRANCH   1  16
BRANCH  13  27
HETATM   27  N8  UNL     1       3.428 -75.334-148.689  1.00  0.00    -0.196 N 
ATOM     28  H8  UNL     1       4.271 -74.760-148.696  1.00  0.00     0.216 HD
BRANCH  27  29
HETATM   29  O1  UNL     1       2.638 -75.322-149.680  1.00  0.00    -0.274 OA
ATOM     30  H1  UNL     1       2.611 -74.560-150.246  1.00  0.00     0.246 HD
ENDBRANCH  27  29
ENDBRANCH  13  27
TORSDOF 3
ENDMDL
MODEL 3
REMARK VINA RESULT: -7.605344141      1.792      7.773
REMARK  3 active torsions:
REMARK  status: ('A' for Active; 'I' for Inactive)
REMARK    1  A    between atoms: N2_5  and  C3_6 
REMARK       I    between atoms: N5_12  and  C5_14 
REMARK       I    between atoms: C5_14  and  N7_18 
REMARK    2  A    between atoms: N7_18  and  N8_20 
REMARK    3  A    between atoms: N8_20  and  O1_22 
ROOT
HETATM    1  C3  UNL     1       2.159 -79.314-144.254  1.00  0.00     0.272 A 
HETATM    2  N3  UNL     1       3.491 -79.363-144.474  1.00  0.00    -0.260 N 
ATOM      3  H3  UNL     1       4.165 -79.821-143.861  1.00  0.00     0.190 HD
HETATM    4  N4  UNL     1       3.797 -78.735-145.597  1.00  0.00    -0.261 N 
ATOM      5  H4  UNL     1       4.725 -78.618-146.005  1.00  0.00     0.190 HD
HETATM    6  C4  UNL     1       2.631 -78.281-146.091  1.00  0.00     0.261 A 
HETATM    7  N5  UNL     1       2.490 -77.601-147.201  1.00  0.00    -0.152 N 
ATOM      8  H5  UNL     1       1.564 -77.295-147.502  1.00  0.00     0.188 HD
HETATM    9  C5  UNL     1       3.628 -77.291-147.980  1.00  0.00     0.695 C 
HETATM   10  N6  UNL     1       4.037 -76.076-148.008  1.00  0.00    -0.233 N 
ATOM     11  H61 UNL     1       4.859 -75.852-148.569  1.00  0.00     0.174 HD
ATOM     12  H62 UNL     1       3.540 -75.364-147.473  1.00  0.00     0.174 HD
HETATM   13  N7  UNL     1       4.312 -78.270-148.715  1.00  0.00    -0.113 N 
ATOM     14  H7  UNL     1       4.245 -79.252-148.445  1.00  0.00     0.207 HD
HETATM   15  O2  UNL     1       1.675 -78.645-145.264  1.00  0.00    -0.242 OA
ENDROOT
BRANCH   1  16
HETATM   16  N2  UNL     1       1.479 -79.887-143.139  1.00  0.00    -0.165 N 
HETATM   17  N1  UNL     1       1.935 -80.975-142.539  1.00  0.00    -0.286 N 
HETATM   18  C2  UNL     1       1.306 -81.532-141.483  1.00  0.00     0.090 A 
ATOM     19  H1  UNL     1       2.790 -81.408-142.888  1.00  0.00     0.187 HD
HETATM   20  C1  UNL     1       1.831 -82.759-140.819  1.00  0.00     0.076 C 
HETATM   21  C7  UNL     1       0.146 -80.980-140.980  1.00  0.00     0.273 A 
HETATM   22  N9  UNL     1      -0.309 -79.872-141.596  1.00  0.00    -0.272 N 
HETATM   23  O4  UNL     1      -0.456 -81.489-139.990  1.00  0.00    -0.266 OA
HETATM   24  C6  UNL     1       0.348 -79.350-142.645  1.00  0.00     0.351 A 
ATOM     25  H9  UNL     1      -1.163 -79.425-141.263  1.00  0.00     0.174 HD
HETATM   26  O3  UNL     1      -0.067 -78.304-143.241  1.00  0.00    -0.244 OA
ENDBRANCH   1  16
BRANCH  13  27
HETATM   27  N8  UNL     1       5.080 -77.902-149.809  1.00  0.00    -0.196 N 
ATOM     28  H8  UNL     1       4.737 -78.063-150.756  1.00  0.00     0.216 HD
BRANCH  27  29
HETATM   29  O1  UNL     1       6.213 -77.364-149.624  1.00  0.00    -0.274 OA
ATOM     30  H1  UNL     1       6.986 -77.758-150.009  1.00  0.00     0.246 HD
ENDBRANCH  27  29
ENDBRANCH  13  27
TORSDOF 3
ENDMDL
MODEL 4
REMARK VINA RESULT: -7.516192532      1.384      1.609
REMARK  3 active torsions:
REMARK  status: ('A' for Active; 'I' for Inactive)
REMARK    1  A    between atoms: N2_5  and  C3_6 
REMARK       I    between atoms: N5_12  and  C5_14 
REMARK       I    between atoms: C5_14  and  N7_18 
REMARK    2  A    between atoms: N7_18  and  N8_20 
REMARK    3  A    between atoms: N8_20  and  O1_22 
ROOT
HETATM    1  C3  UNL     1       2.316 -79.614-145.150  1.00  0.00     0.272 A 
HETATM    2  N3  UNL     1       1.579 -80.743-145.231  1.00  0.00    -0.260 N 
ATOM      3  H3  UNL     1       1.309 -81.200-146.102  1.00  0.00     0.190 HD
HETATM    4  N4  UNL     1       1.256 -81.172-144.021  1.00  0.00    -0.261 N 
ATOM      5  H4  UNL     1       0.707 -82.000-143.787  1.00  0.00     0.190 HD
HETATM    6  C4  UNL     1       1.804 -80.292-143.164  1.00  0.00     0.261 A 
HETATM    7  N5  UNL     1       1.721 -80.352-141.858  1.00  0.00    -0.152 N 
ATOM      8  H5  UNL     1       2.169 -79.639-141.282  1.00  0.00     0.188 HD
HETATM    9  C5  UNL     1       1.007 -81.410-141.252  1.00  0.00     0.695 C 
HETATM   10  N6  UNL     1      -0.120 -81.149-140.699  1.00  0.00    -0.233 N 
ATOM     11  H61 UNL     1      -0.636 -81.913-140.261  1.00  0.00     0.174 HD
ATOM     12  H62 UNL     1      -0.477 -80.194-140.707  1.00  0.00     0.174 HD
HETATM   13  N7  UNL     1       1.497 -82.725-141.240  1.00  0.00    -0.113 N 
ATOM     14  H7  UNL     1       2.171 -83.025-141.946  1.00  0.00     0.207 HD
HETATM   15  O2  UNL     1       2.429 -79.376-143.872  1.00  0.00    -0.242 OA
ENDROOT
BRANCH   1  16
HETATM   16  N2  UNL     1       2.835 -78.880-146.256  1.00  0.00    -0.165 N 
HETATM   17  N1  UNL     1       2.641 -77.575-146.370  1.00  0.00    -0.286 N 
HETATM   18  C2  UNL     1       3.125 -76.862-147.408  1.00  0.00     0.090 A 
ATOM     19  H1  UNL     1       2.106 -77.093-145.647  1.00  0.00     0.187 HD
HETATM   20  C1  UNL     1       2.896 -75.394-147.522  1.00  0.00     0.076 C 
HETATM   21  C7  UNL     1       3.852 -77.475-148.408  1.00  0.00     0.273 A 
HETATM   22  N9  UNL     1       4.045 -78.802-148.284  1.00  0.00    -0.272 N 
HETATM   23  O4  UNL     1       4.313 -76.822-149.388  1.00  0.00    -0.266 OA
HETATM   24  C6  UNL     1       3.546 -79.474-147.233  1.00  0.00     0.351 A 
ATOM     25  H9  UNL     1       4.576 -79.303-148.996  1.00  0.00     0.174 HD
HETATM   26  O3  UNL     1       3.718 -80.729-147.098  1.00  0.00    -0.244 OA
ENDBRANCH   1  16
BRANCH  13  27
HETATM   27  N8  UNL     1       1.064 -83.615-140.270  1.00  0.00    -0.196 N 
ATOM     28  H8  UNL     1       1.157 -83.383-139.281  1.00  0.00     0.216 HD
BRANCH  27  29
HETATM   29  O1  UNL     1       0.552 -84.720-140.620  1.00  0.00    -0.274 OA
ATOM     30  H1  UNL     1       0.389 -85.388-139.966  1.00  0.00     0.246 HD
ENDBRANCH  27  29
ENDBRANCH  13  27
TORSDOF 3
ENDMDL
MODEL 5
REMARK VINA RESULT: -7.431215686      1.912      7.477
REMARK  3 active torsions:
REMARK  status: ('A' for Active; 'I' for Inactive)
REMARK    1  A    between atoms: N2_5  and  C3_6 
REMARK       I    between atoms: N5_12  and  C5_14 
REMARK       I    between atoms: C5_14  and  N7_18 
REMARK    2  A    between atoms: N7_18  and  N8_20 
REMARK    3  A    between atoms: N8_20  and  O1_22 
ROOT
HETATM    1  C3  UNL     1       2.209 -80.067-144.189  1.00  0.00     0.272 A 
HETATM    2  N3  UNL     1       1.289 -79.652-145.085  1.00  0.00    -0.260 N 
ATOM      3  H3  UNL     1       0.293 -79.869-145.039  1.00  0.00     0.190 HD
HETATM    4  N4  UNL     1       1.859 -78.923-146.031  1.00  0.00    -0.261 N 
ATOM      5  H4  UNL     1       1.402 -78.484-146.830  1.00  0.00     0.190 HD
HETATM    6  C4  UNL     1       3.167 -78.882-145.720  1.00  0.00     0.261 A 
HETATM    7  N5  UNL     1       4.092 -78.257-146.406  1.00  0.00    -0.152 N 
ATOM      8  H5  UNL     1       5.063 -78.278-146.096  1.00  0.00     0.188 HD
HETATM    9  C5  UNL     1       3.735 -77.554-147.579  1.00  0.00     0.695 C 
HETATM   10  N6  UNL     1       4.086 -78.039-148.713  1.00  0.00    -0.233 N 
ATOM     11  H61 UNL     1       3.829 -77.531-149.560  1.00  0.00     0.174 HD
ATOM     12  H62 UNL     1       4.610 -78.913-148.747  1.00  0.00     0.174 HD
HETATM   13  N7  UNL     1       3.014 -76.351-147.532  1.00  0.00    -0.113 N 
ATOM     14  H7  UNL     1       2.432 -76.135-146.722  1.00  0.00     0.207 HD
HETATM   15  O2  UNL     1       3.341 -79.575-144.615  1.00  0.00    -0.242 OA
ENDROOT
BRANCH   1  16
HETATM   16  N2  UNL     1       1.948 -80.870-143.040  1.00  0.00    -0.165 N 
HETATM   17  N1  UNL     1       0.878 -80.670-142.288  1.00  0.00    -0.286 N 
HETATM   18  C2  UNL     1       0.613 -81.419-141.198  1.00  0.00     0.090 A 
ATOM     19  H1  UNL     1       0.231 -79.923-142.541  1.00  0.00     0.187 HD
HETATM   20  C1  UNL     1      -0.597 -81.180-140.360  1.00  0.00     0.076 C 
HETATM   21  C7  UNL     1       1.461 -82.439-140.819  1.00  0.00     0.273 A 
HETATM   22  N9  UNL     1       2.548 -82.636-141.590  1.00  0.00    -0.272 N 
HETATM   23  O4  UNL     1       1.228 -83.152-139.799  1.00  0.00    -0.266 OA
HETATM   24  C6  UNL     1       2.773 -81.867-142.668  1.00  0.00     0.351 A 
ATOM     25  H9  UNL     1       3.207 -83.377-141.353  1.00  0.00     0.174 HD
HETATM   26  O3  UNL     1       3.795 -82.037-143.410  1.00  0.00    -0.244 OA
ENDBRANCH   1  16
BRANCH  13  27
HETATM   27  N8  UNL     1       3.093 -75.457-148.589  1.00  0.00    -0.196 N 
ATOM     28  H8  UNL     1       3.817 -74.738-148.601  1.00  0.00     0.216 HD
BRANCH  27  29
HETATM   29  O1  UNL     1       2.259 -75.539-149.539  1.00  0.00    -0.274 OA
ATOM     30  H1  UNL     1       1.337 -75.661-149.344  1.00  0.00     0.246 HD
ENDBRANCH  27  29
ENDBRANCH  13  27
TORSDOF 3
ENDMDL
