MODEL 1
REMARK VINA RESULT: -7.053310157      0.000      0.000
REMARK  6 active torsions:
REMARK  status: ('A' for Active; 'I' for Inactive)
REMARK    1  A    between atoms: O1_2  and  C2_3 
REMARK       I    between atoms: C2_3  and  N1_5 
REMARK    2  A    between atoms: N1_5  and  C3_7 
REMARK    3  A    between atoms: C3_7  and  O3_8 
REMARK    4  A    between atoms: C4_10  and  O4_11 
REMARK    5  A    between atoms: C5_13  and  C6_14 
REMARK    6  A    between atoms: C6_14  and  O6_16 
ROOT
HETATM    1  C3  UNL     1       0.763 -79.601-145.114  1.00  0.00     0.267 C 
HETATM    2  C4  UNL     1       1.230 -79.855-143.697  1.00  0.00     0.232 C 
HETATM    3  C5  UNL     1       0.267 -80.535-142.836  1.00  0.00     0.093 C 
HETATM    4  C8  UNL     1      -1.028 -80.254-142.776  1.00  0.00     0.139 C 
HETATM    5  N2  UNL     1      -1.912 -80.962-141.908  1.00  0.00    -0.081 NA
HETATM    6  N3  UNL     1      -1.571 -79.229-143.588  1.00  0.00    -0.289 N 
ATOM      7  H3  UNL     1      -2.328 -78.633-143.252  1.00  0.00     0.177 HD
HETATM    8  S1  UNL     1      -0.903 -79.025-145.167  1.00  0.00     0.176 S 
HETATM    9  O7  UNL     1      -1.766 -79.913-146.304  1.00  0.00    -0.230 OA
ENDROOT
BRANCH   1  10
HETATM   10  N1  UNL     1       1.610 -78.597-145.721  1.00  0.00    -0.290 N 
HETATM   11  C2  UNL     1       1.739 -78.552-147.122  1.00  0.00     0.363 C 
HETATM   12  O2  UNL     1       1.121 -79.381-147.834  1.00  0.00    -0.238 OA
ATOM     13  H1  UNL     1       2.112 -77.926-145.137  1.00  0.00     0.168 HD
BRANCH  11  14
HETATM   14  O1  UNL     1       2.536 -77.615-147.779  1.00  0.00    -0.309 OA
HETATM   15  C1  UNL     1       3.481 -78.067-148.698  1.00  0.00     0.215 C 
ENDBRANCH  11  14
ENDBRANCH   1  10
BRANCH   1  16
HETATM   16  O3  UNL     1       0.855 -80.749-145.894  1.00  0.00    -0.357 OA
ATOM     17  H3  UNL     1       1.151 -80.481-146.756  1.00  0.00     0.213 HD
ENDBRANCH   1  16
BRANCH   2  18
HETATM   18  O4  UNL     1       2.400 -80.603-143.807  1.00  0.00    -0.385 OA
ATOM     19  H4  UNL     1       2.164 -81.388-144.285  1.00  0.00     0.210 HD
ENDBRANCH   2  18
BRANCH   3  20
HETATM   20  C6  UNL     1       0.766 -81.613-141.965  1.00  0.00     0.295 C 
HETATM   21  O5  UNL     1       1.203 -81.339-140.820  1.00  0.00    -0.259 OA
BRANCH  20  22
HETATM   22  O6  UNL     1       0.786 -82.938-142.334  1.00  0.00    -0.323 OA
HETATM   23  C7  UNL     1       0.182 -83.970-141.574  1.00  0.00     0.213 C 
ENDBRANCH  20  22
ENDBRANCH   3  20
TORSDOF 6
ENDMDL
MODEL 2
REMARK VINA RESULT: -6.959524713      2.131      2.598
REMARK  6 active torsions:
REMARK  status: ('A' for Active; 'I' for Inactive)
REMARK    1  A    between atoms: O1_2  and  C2_3 
REMARK       I    between atoms: C2_3  and  N1_5 
REMARK    2  A    between atoms: N1_5  and  C3_7 
REMARK    3  A    between atoms: C3_7  and  O3_8 
REMARK    4  A    between atoms: C4_10  and  O4_11 
REMARK    5  A    between atoms: C5_13  and  C6_14 
REMARK    6  A    between atoms: C6_14  and  O6_16 
ROOT
HETATM    1  C3  UNL     1       1.858 -79.994-146.351  1.00  0.00     0.267 C 
HETATM    2  C4  UNL     1       1.305 -79.101-145.261  1.00  0.00     0.232 C 
HETATM    3  C5  UNL     1      -0.063 -79.397-144.849  1.00  0.00     0.093 C 
HETATM    4  C8  UNL     1      -1.063 -79.669-145.676  1.00  0.00     0.139 C 
HETATM    5  N2  UNL     1      -2.379 -79.949-145.199  1.00  0.00    -0.081 NA
HETATM    6  N3  UNL     1      -0.843 -79.690-147.073  1.00  0.00    -0.289 N 
ATOM      7  H3  UNL     1      -1.558 -79.369-147.727  1.00  0.00     0.177 HD
HETATM    8  S1  UNL     1       0.680 -80.280-147.632  1.00  0.00     0.176 S 
HETATM    9  O7  UNL     1       0.604 -81.927-147.964  1.00  0.00    -0.230 OA
ENDROOT
BRANCH   1  10
HETATM   10  N1  UNL     1       3.023 -79.364-146.937  1.00  0.00    -0.290 N 
HETATM   11  C2  UNL     1       2.863 -78.213-147.731  1.00  0.00     0.363 C 
HETATM   12  O2  UNL     1       1.716 -77.743-147.928  1.00  0.00    -0.238 OA
ATOM     13  H1  UNL     1       3.953 -79.751-146.775  1.00  0.00     0.168 HD
BRANCH  11  14
HETATM   14  O1  UNL     1       3.936 -77.551-148.329  1.00  0.00    -0.309 OA
HETATM   15  C1  UNL     1       3.677 -76.430-149.115  1.00  0.00     0.215 C 
ENDBRANCH  11  14
ENDBRANCH   1  10
BRANCH   1  16
HETATM   16  O3  UNL     1       2.263 -81.225-145.845  1.00  0.00    -0.357 OA
ATOM     17  H3  UNL     1       2.785 -81.649-146.516  1.00  0.00     0.213 HD
ENDBRANCH   1  16
BRANCH   2  18
HETATM   18  O4  UNL     1       2.180 -79.225-144.184  1.00  0.00    -0.385 OA
ATOM     19  H4  UNL     1       2.251 -78.358-143.803  1.00  0.00     0.210 HD
ENDBRANCH   2  18
BRANCH   3  20
HETATM   20  C6  UNL     1      -0.361 -79.392-143.406  1.00  0.00     0.295 C 
HETATM   21  O5  UNL     1      -0.899 -78.385-142.883  1.00  0.00    -0.259 OA
BRANCH  20  22
HETATM   22  O6  UNL     1      -0.080 -80.447-142.570  1.00  0.00    -0.323 OA
HETATM   23  C7  UNL     1      -1.071 -81.157-141.848  1.00  0.00     0.213 C 
ENDBRANCH  20  22
ENDBRANCH   3  20
TORSDOF 6
ENDMDL
MODEL 3
REMARK VINA RESULT: -6.877935927      2.310      5.884
REMARK  6 active torsions:
REMARK  status: ('A' for Active; 'I' for Inactive)
REMARK    1  A    between atoms: O1_2  and  C2_3 
REMARK       I    between atoms: C2_3  and  N1_5 
REMARK    2  A    between atoms: N1_5  and  C3_7 
REMARK    3  A    between atoms: C3_7  and  O3_8 
REMARK    4  A    between atoms: C4_10  and  O4_11 
REMARK    5  A    between atoms: C5_13  and  C6_14 
REMARK    6  A    between atoms: C6_14  and  O6_16 
ROOT
HETATM    1  C3  UNL     1      -0.092 -79.427-145.829  1.00  0.00     0.267 C 
HETATM    2  C4  UNL     1       1.422 -79.418-145.822  1.00  0.00     0.232 C 
HETATM    3  C5  UNL     1       2.048 -79.200-147.122  1.00  0.00     0.093 C 
HETATM    4  C8  UNL     1       1.666 -79.773-148.255  1.00  0.00     0.139 C 
HETATM    5  N2  UNL     1       2.329 -79.512-149.492  1.00  0.00    -0.081 NA
HETATM    6  N3  UNL     1       0.572 -80.671-148.262  1.00  0.00    -0.289 N 
ATOM      7  H3  UNL     1       0.560 -81.486-148.877  1.00  0.00     0.177 HD
HETATM    8  S1  UNL     1      -0.742 -80.336-147.193  1.00  0.00     0.176 S 
HETATM    9  O7  UNL     1      -1.926 -79.423-147.961  1.00  0.00    -0.230 OA
ENDROOT
BRANCH   1  10
HETATM   10  N1  UNL     1      -0.569 -80.038-144.606  1.00  0.00    -0.290 N 
HETATM   11  C2  UNL     1      -0.729 -79.247-143.453  1.00  0.00     0.363 C 
HETATM   12  O2  UNL     1      -0.457 -78.023-143.490  1.00  0.00    -0.238 OA
ATOM     13  H1  UNL     1      -0.787 -81.034-144.581  1.00  0.00     0.168 HD
BRANCH  11  14
HETATM   14  O1  UNL     1      -1.183 -79.763-142.239  1.00  0.00    -0.309 OA
HETATM   15  C1  UNL     1      -0.925 -81.099-141.941  1.00  0.00     0.215 C 
ENDBRANCH  11  14
ENDBRANCH   1  10
BRANCH   1  16
HETATM   16  O3  UNL     1      -0.609 -78.136-145.876  1.00  0.00    -0.357 OA
ATOM     17  H3  UNL     1      -1.490 -78.171-145.522  1.00  0.00     0.213 HD
ENDBRANCH   1  16
BRANCH   2  18
HETATM   18  O4  UNL     1       1.795 -78.419-144.925  1.00  0.00    -0.385 OA
ATOM     19  H4  UNL     1       2.477 -77.920-145.358  1.00  0.00     0.210 HD
ENDBRANCH   2  18
BRANCH   3  20
HETATM   20  C6  UNL     1       3.193 -78.275-147.186  1.00  0.00     0.295 C 
HETATM   21  O5  UNL     1       4.346 -78.689-146.909  1.00  0.00    -0.259 OA
BRANCH  20  22
HETATM   22  O6  UNL     1       3.080 -76.950-147.537  1.00  0.00    -0.323 OA
HETATM   23  C7  UNL     1       3.409 -76.452-148.822  1.00  0.00     0.213 C 
ENDBRANCH  20  22
ENDBRANCH   3  20
TORSDOF 6
ENDMDL
MODEL 4
REMARK VINA RESULT: -6.701647077      2.950      4.949
REMARK  6 active torsions:
REMARK  status: ('A' for Active; 'I' for Inactive)
REMARK    1  A    between atoms: O1_2  and  C2_3 
REMARK       I    between atoms: C2_3  and  N1_5 
REMARK    2  A    between atoms: N1_5  and  C3_7 
REMARK    3  A    between atoms: C3_7  and  O3_8 
REMARK    4  A    between atoms: C4_10  and  O4_11 
REMARK    5  A    between atoms: C5_13  and  C6_14 
REMARK    6  A    between atoms: C6_14  and  O6_16 
ROOT
HETATM    1  C3  UNL     1      -0.831 -78.885-145.546  1.00  0.00     0.267 C 
HETATM    2  C4  UNL     1       0.105 -79.191-146.695  1.00  0.00     0.232 C 
HETATM    3  C5  UNL     1       1.067 -80.259-146.446  1.00  0.00     0.093 C 
HETATM    4  C8  UNL     1       1.761 -80.410-145.326  1.00  0.00     0.139 C 
HETATM    5  N2  UNL     1       2.688 -81.482-145.153  1.00  0.00    -0.081 NA
HETATM    6  N3  UNL     1       1.594 -79.496-144.259  1.00  0.00    -0.289 N 
ATOM      7  H3  UNL     1       2.378 -79.224-143.666  1.00  0.00     0.177 HD
HETATM    8  S1  UNL     1       0.011 -78.857-143.997  1.00  0.00     0.176 S 
HETATM    9  O7  UNL     1      -0.837 -79.788-142.882  1.00  0.00    -0.230 OA
ENDROOT
BRANCH   1  10
HETATM   10  N1  UNL     1      -1.435 -77.586-145.758  1.00  0.00    -0.290 N 
HETATM   11  C2  UNL     1      -2.640 -77.491-146.481  1.00  0.00     0.363 C 
HETATM   12  O2  UNL     1      -3.180 -78.528-146.936  1.00  0.00    -0.238 OA
ATOM     13  H1  UNL     1      -0.991 -76.746-145.387  1.00  0.00     0.168 HD
BRANCH  11  14
HETATM   14  O1  UNL     1      -3.281 -76.277-146.726  1.00  0.00    -0.309 OA
HETATM   15  C1  UNL     1      -2.692 -75.375-147.609  1.00  0.00     0.215 C 
ENDBRANCH  11  14
ENDBRANCH   1  10
BRANCH   1  16
HETATM   16  O3  UNL     1      -1.864 -79.814-145.468  1.00  0.00    -0.357 OA
ATOM     17  H3  UNL     1      -2.575 -79.407-144.989  1.00  0.00     0.213 HD
ENDBRANCH   1  16
BRANCH   2  18
HETATM   18  O4  UNL     1      -0.711 -79.510-147.779  1.00  0.00    -0.385 OA
ATOM     19  H4  UNL     1      -1.595 -79.558-147.436  1.00  0.00     0.210 HD
ENDBRANCH   2  18
BRANCH   3  20
HETATM   20  C6  UNL     1       1.290 -81.246-147.517  1.00  0.00     0.295 C 
HETATM   21  O5  UNL     1       0.409 -82.106-147.766  1.00  0.00    -0.259 OA
BRANCH  20  22
HETATM   22  O6  UNL     1       2.431 -81.291-148.283  1.00  0.00    -0.323 OA
HETATM   23  C7  UNL     1       3.083 -80.136-148.781  1.00  0.00     0.213 C 
ENDBRANCH  20  22
ENDBRANCH   3  20
TORSDOF 6
ENDMDL
MODEL 5
REMARK VINA RESULT: -6.648713040      2.398      6.433
REMARK  6 active torsions:
REMARK  status: ('A' for Active; 'I' for Inactive)
REMARK    1  A    between atoms: O1_2  and  C2_3 
REMARK       I    between atoms: C2_3  and  N1_5 
REMARK    2  A    between atoms: N1_5  and  C3_7 
REMARK    3  A    between atoms: C3_7  and  O3_8 
REMARK    4  A    between atoms: C4_10  and  O4_11 
REMARK    5  A    between atoms: C5_13  and  C6_14 
REMARK    6  A    between atoms: C6_14  and  O6_16 
ROOT
HETATM    1  C3  UNL     1       1.525 -80.300-146.249  1.00  0.00     0.267 C 
HETATM    2  C4  UNL     1       2.483 -79.144-146.437  1.00  0.00     0.232 C 
HETATM    3  C5  UNL     1       2.805 -78.822-147.824  1.00  0.00     0.093 C 
HETATM    4  C8  UNL     1       3.079 -79.715-148.766  1.00  0.00     0.139 C 
HETATM    5  N2  UNL     1       3.387 -79.325-150.105  1.00  0.00    -0.081 NA
HETATM    6  N3  UNL     1       3.071 -81.096-148.460  1.00  0.00    -0.289 N 
ATOM      7  H3  UNL     1       3.730 -81.740-148.898  1.00  0.00     0.177 HD
HETATM    8  S1  UNL     1       1.902 -81.652-147.317  1.00  0.00     0.176 S 
HETATM    9  O7  UNL     1       0.499 -82.163-148.089  1.00  0.00    -0.230 OA
ENDROOT
BRANCH   1  10
HETATM   10  N1  UNL     1       1.605 -80.765-144.880  1.00  0.00    -0.290 N 
HETATM   11  C2  UNL     1       0.811 -80.154-143.892  1.00  0.00     0.363 C 
HETATM   12  O2  UNL     1       0.041 -79.212-144.202  1.00  0.00    -0.238 OA
ATOM     13  H1  UNL     1       2.233 -81.531-144.634  1.00  0.00     0.168 HD
BRANCH  11  14
HETATM   14  O1  UNL     1       0.833 -80.546-142.554  1.00  0.00    -0.309 OA
HETATM   15  C1  UNL     1       1.226 -81.846-142.243  1.00  0.00     0.215 C 
ENDBRANCH  11  14
ENDBRANCH   1  10
BRANCH   1  16
HETATM   16  O3  UNL     1       0.208 -79.914-146.479  1.00  0.00    -0.357 OA
ATOM     17  H3  UNL     1       0.146 -79.648-147.388  1.00  0.00     0.213 HD
ENDBRANCH   1  16
BRANCH   2  18
HETATM   18  O4  UNL     1       1.893 -78.051-145.806  1.00  0.00    -0.385 OA
ATOM     19  H4  UNL     1       1.550 -78.378-144.983  1.00  0.00     0.210 HD
ENDBRANCH   2  18
BRANCH   3  20
HETATM   20  C6  UNL     1       2.830 -77.401-148.211  1.00  0.00     0.295 C 
HETATM   21  O5  UNL     1       3.770 -76.665-147.821  1.00  0.00    -0.259 OA
BRANCH  20  22
HETATM   22  O6  UNL     1       1.865 -76.810-148.993  1.00  0.00    -0.323 OA
HETATM   23  C7  UNL     1       2.158 -76.014-150.127  1.00  0.00     0.213 C 
ENDBRANCH  20  22
ENDBRANCH   3  20
TORSDOF 6
ENDMDL
