MODEL 1
REMARK VINA RESULT: -7.829030996      0.000      0.000
REMARK  11 active torsions:
REMARK  status: ('A' for Active; 'I' for Inactive)
REMARK    1  A    between atoms: N1_1  and  N2_4 
REMARK    2  A    between atoms: N2_4  and  C1_5 
REMARK    3  A    between atoms: C1_5  and  C2_6 
REMARK    4  A    between atoms: C2_6  and  C10_23 
REMARK    5  A    between atoms: N3_7  and  C3_9 
REMARK    6  A    between atoms: C5_13  and  C6_14 
REMARK    7  A    between atoms: C6_14  and  C7_15 
REMARK    8  A    between atoms: C7_15  and  C8_16 
REMARK    9  A    between atoms: C8_16  and  N5_17 
REMARK       I    between atoms: N5_17  and  C9_18 
REMARK   10  A    between atoms: C10_23  and  C11_25 
REMARK   11  A    between atoms: C11_25  and  C12_26 
ROOT
HETATM    1  C2  UNL     1      15.501  -8.109  19.826  1.00  0.00     0.085 C 
HETATM    2  N3  UNL     1      15.587  -6.831  20.263  1.00  0.00    -0.364 N 
ATOM      3  H3  UNL     1      14.895  -6.633  20.985  1.00  0.00     0.162 HD
ENDROOT
BRANCH   2   4
HETATM    4  C3  UNL     1      16.354  -5.744  19.992  1.00  0.00     0.200 C 
HETATM    5  C4  UNL     1      15.768  -4.653  19.174  1.00  0.00     0.167 C 
HETATM    6  N4  UNL     1      15.360  -3.669  20.188  1.00  0.00    -0.376 N 
HETATM    7  C5  UNL     1      15.950  -3.907  21.304  1.00  0.00     0.074 C 
ATOM      8  H4  UNL     1      14.703  -2.906  20.027  1.00  0.00     0.160 HD
HETATM    9  N8  UNL     1      16.803  -5.022  21.204  1.00  0.00    -0.357 N 
ATOM     10  H8  UNL     1      17.565  -5.276  21.831  1.00  0.00     0.163 HD
BRANCH   7  11
HETATM   11  C6  UNL     1      15.707  -3.038  22.521  1.00  0.00     0.082 C 
BRANCH  11  12
HETATM   12  C7  UNL     1      14.587  -2.086  22.200  1.00  0.00     0.067 C 
BRANCH  12  13
HETATM   13  C8  UNL     1      14.239  -1.224  23.411  1.00  0.00     0.158 C 
BRANCH  13  14
HETATM   14  N5  UNL     1      12.954  -0.848  23.474  1.00  0.00    -0.393 NA
HETATM   15  C9  UNL     1      11.845  -0.497  23.517  1.00  0.00     0.274 C 
HETATM   16  N6  UNL     1      10.787  -1.352  24.053  1.00  0.00    -0.052 NA
HETATM   17  N7  UNL     1      11.315   0.787  23.066  1.00  0.00    -0.052 NA
ENDBRANCH  13  14
ENDBRANCH  12  13
ENDBRANCH  11  12
ENDBRANCH   7  11
ENDBRANCH   2   4
BRANCH   1  18
HETATM   18  C1  UNL     1      16.692  -9.015  20.070  1.00  0.00     0.239 C 
BRANCH  18  19
HETATM   19  N2  UNL     1      17.285  -9.025  21.161  1.00  0.00    -0.343 NA
BRANCH  19  20
HETATM   20  N1  UNL     1      17.611  -8.966  22.370  1.00  0.00    -0.281 N 
ATOM     21  H12 UNL     1      16.652  -8.776  22.660  1.00  0.00     0.191 HD
ATOM     22  H11 UNL     1      18.100  -8.963  23.265  1.00  0.00     0.191 HD
ENDBRANCH  19  20
ENDBRANCH  18  19
ENDBRANCH   1  18
BRANCH   1  23
HETATM   23  C10 UNL     1      14.748  -8.525  18.638  1.00  0.00     0.078 C 
HETATM   24  N9  UNL     1      14.003  -7.533  17.939  1.00  0.00    -0.100 NA
BRANCH  23  25
HETATM   25  C11 UNL     1      15.146  -9.729  17.888  1.00  0.00     0.073 C 
BRANCH  25  26
HETATM   26  C12 UNL     1      15.548  -9.682  16.495  1.00  0.00     0.111 C 
HETATM   27  N10 UNL     1      16.245  -8.777  15.963  1.00  0.00    -0.388 N 
ATOM     28 2H10 UNL     1      16.526  -8.044  16.615  1.00  0.00     0.157 HD
ATOM     29 1H10 UNL     1      16.528  -8.743  14.984  1.00  0.00     0.157 HD
HETATM   30  N11 UNL     1      15.148 -10.726  15.566  1.00  0.00    -0.083 NA
ENDBRANCH  25  26
ENDBRANCH  23  25
ENDBRANCH   1  23
TORSDOF 11
ENDMDL
MODEL 2
REMARK VINA RESULT: -7.752485018      1.191      1.529
REMARK  11 active torsions:
REMARK  status: ('A' for Active; 'I' for Inactive)
REMARK    1  A    between atoms: N1_1  and  N2_4 
REMARK    2  A    between atoms: N2_4  and  C1_5 
REMARK    3  A    between atoms: C1_5  and  C2_6 
REMARK    4  A    between atoms: C2_6  and  C10_23 
REMARK    5  A    between atoms: N3_7  and  C3_9 
REMARK    6  A    between atoms: C5_13  and  C6_14 
REMARK    7  A    between atoms: C6_14  and  C7_15 
REMARK    8  A    between atoms: C7_15  and  C8_16 
REMARK    9  A    between atoms: C8_16  and  N5_17 
REMARK       I    between atoms: N5_17  and  C9_18 
REMARK   10  A    between atoms: C10_23  and  C11_25 
REMARK   11  A    between atoms: C11_25  and  C12_26 
ROOT
HETATM    1  C2  UNL     1      15.690  -7.321  20.164  1.00  0.00     0.085 C 
HETATM    2  N3  UNL     1      15.757  -6.132  20.806  1.00  0.00    -0.364 N 
ATOM      3  H3  UNL     1      15.114  -6.095  21.597  1.00  0.00     0.162 HD
ENDROOT
BRANCH   2   4
HETATM    4  C3  UNL     1      16.455  -4.974  20.673  1.00  0.00     0.200 C 
HETATM    5  C4  UNL     1      15.706  -3.728  20.377  1.00  0.00     0.167 C 
HETATM    6  N4  UNL     1      15.596  -3.093  21.699  1.00  0.00    -0.376 N 
HETATM    7  C5  UNL     1      16.447  -3.607  22.514  1.00  0.00     0.074 C 
ATOM      8  H4  UNL     1      14.938  -2.350  21.936  1.00  0.00     0.160 HD
HETATM    9  N8  UNL     1      17.217  -4.603  21.886  1.00  0.00    -0.357 N 
ATOM     10  H8  UNL     1      18.109  -4.986  22.200  1.00  0.00     0.163 HD
BRANCH   7  11
HETATM   11  C6  UNL     1      16.546  -3.131  23.948  1.00  0.00     0.082 C 
BRANCH  11  12
HETATM   12  C7  UNL     1      16.769  -1.643  23.933  1.00  0.00     0.067 C 
BRANCH  12  13
HETATM   13  C8  UNL     1      15.608  -0.909  24.599  1.00  0.00     0.158 C 
BRANCH  13  14
HETATM   14  N5  UNL     1      14.505  -0.813  23.844  1.00  0.00    -0.393 NA
HETATM   15  C9  UNL     1      13.532  -0.732  23.211  1.00  0.00     0.274 C 
HETATM   16  N6  UNL     1      13.569  -0.570  21.759  1.00  0.00    -0.052 NA
HETATM   17  N7  UNL     1      12.159  -0.767  23.708  1.00  0.00    -0.052 NA
ENDBRANCH  13  14
ENDBRANCH  12  13
ENDBRANCH  11  12
ENDBRANCH   7  11
ENDBRANCH   2   4
BRANCH   1  18
HETATM   18  C1  UNL     1      16.932  -8.190  20.167  1.00  0.00     0.239 C 
BRANCH  18  19
HETATM   19  N2  UNL     1      17.332  -8.745  21.204  1.00  0.00    -0.343 NA
BRANCH  19  20
HETATM   20  N1  UNL     1      17.630  -9.055  22.382  1.00  0.00    -0.281 N 
ATOM     21  H12 UNL     1      17.638  -8.079  22.679  1.00  0.00     0.191 HD
ATOM     22  H11 UNL     1      17.867  -9.534  23.250  1.00  0.00     0.191 HD
ENDBRANCH  19  20
ENDBRANCH  18  19
ENDBRANCH   1  18
BRANCH   1  23
HETATM   23  C10 UNL     1      14.866  -7.573  18.977  1.00  0.00     0.078 C 
HETATM   24  N9  UNL     1      14.467  -6.453  18.192  1.00  0.00    -0.100 NA
BRANCH  23  25
HETATM   25  C11 UNL     1      14.894  -8.890  18.317  1.00  0.00     0.073 C 
BRANCH  25  26
HETATM   26  C12 UNL     1      15.324  -9.062  16.942  1.00  0.00     0.111 C 
HETATM   27  N10 UNL     1      16.407  -8.644  16.454  1.00  0.00    -0.388 N 
ATOM     28 2H10 UNL     1      16.993  -8.151  17.129  1.00  0.00     0.157 HD
ATOM     29 1H10 UNL     1      16.710  -8.765  15.488  1.00  0.00     0.157 HD
HETATM   30  N11 UNL     1      14.488  -9.763  15.981  1.00  0.00    -0.083 NA
ENDBRANCH  25  26
ENDBRANCH  23  25
ENDBRANCH   1  23
TORSDOF 11
ENDMDL
MODEL 3
REMARK VINA RESULT: -7.545343511      2.189      7.571
REMARK  11 active torsions:
REMARK  status: ('A' for Active; 'I' for Inactive)
REMARK    1  A    between atoms: N1_1  and  N2_4 
REMARK    2  A    between atoms: N2_4  and  C1_5 
REMARK    3  A    between atoms: C1_5  and  C2_6 
REMARK    4  A    between atoms: C2_6  and  C10_23 
REMARK    5  A    between atoms: N3_7  and  C3_9 
REMARK    6  A    between atoms: C5_13  and  C6_14 
REMARK    7  A    between atoms: C6_14  and  C7_15 
REMARK    8  A    between atoms: C7_15  and  C8_16 
REMARK    9  A    between atoms: C8_16  and  N5_17 
REMARK       I    between atoms: N5_17  and  C9_18 
REMARK   10  A    between atoms: C10_23  and  C11_25 
REMARK   11  A    between atoms: C11_25  and  C12_26 
ROOT
HETATM    1  C2  UNL     1      15.761  -3.383  22.314  1.00  0.00     0.085 C 
HETATM    2  N3  UNL     1      15.824  -4.569  21.665  1.00  0.00    -0.364 N 
ATOM      3  H3  UNL     1      15.229  -5.271  22.105  1.00  0.00     0.162 HD
ENDROOT
BRANCH   2   4
HETATM    4  C3  UNL     1      16.472  -5.069  20.581  1.00  0.00     0.200 C 
HETATM    5  C4  UNL     1      17.588  -6.020  20.803  1.00  0.00     0.167 C 
HETATM    6  N4  UNL     1      16.952  -7.328  20.580  1.00  0.00    -0.376 N 
HETATM    7  C5  UNL     1      15.841  -7.182  19.951  1.00  0.00     0.074 C 
ATOM      8  H4  UNL     1      17.337  -8.222  20.883  1.00  0.00     0.160 HD
HETATM    9  N8  UNL     1      15.590  -5.828  19.665  1.00  0.00    -0.357 N 
ATOM     10  H8  UNL     1      14.940  -5.450  18.976  1.00  0.00     0.163 HD
BRANCH   7  11
HETATM   11  C6  UNL     1      14.981  -8.375  19.591  1.00  0.00     0.082 C 
BRANCH  11  12
HETATM   12  C7  UNL     1      15.370  -8.834  18.212  1.00  0.00     0.067 C 
BRANCH  12  13
HETATM   13  C8  UNL     1      14.147  -8.937  17.304  1.00  0.00     0.158 C 
BRANCH  13  14
HETATM   14  N5  UNL     1      13.413  -7.818  17.232  1.00  0.00    -0.393 NA
HETATM   15  C9  UNL     1      12.796  -6.833  17.182  1.00  0.00     0.274 C 
HETATM   16  N6  UNL     1      11.483  -6.778  16.542  1.00  0.00    -0.052 NA
HETATM   17  N7  UNL     1      13.185  -5.528  17.711  1.00  0.00    -0.052 NA
ENDBRANCH  13  14
ENDBRANCH  12  13
ENDBRANCH  11  12
ENDBRANCH   7  11
ENDBRANCH   2   4
BRANCH   1  18
HETATM   18  C1  UNL     1      15.195  -2.199  21.556  1.00  0.00     0.239 C 
BRANCH  18  19
HETATM   19  N2  UNL     1      14.118  -1.674  21.885  1.00  0.00    -0.343 NA
BRANCH  19  20
HETATM   20  N1  UNL     1      13.115  -1.231  22.492  1.00  0.00    -0.281 N 
ATOM     21  H12 UNL     1      12.496  -1.908  22.047  1.00  0.00     0.191 HD
ATOM     22  H11 UNL     1      12.463  -0.716  23.083  1.00  0.00     0.191 HD
ENDBRANCH  19  20
ENDBRANCH  18  19
ENDBRANCH   1  18
BRANCH   1  23
HETATM   23  C10 UNL     1      16.716  -2.954  23.340  1.00  0.00     0.078 C 
HETATM   24  N9  UNL     1      16.200  -2.544  24.603  1.00  0.00    -0.100 NA
BRANCH  23  25
HETATM   25  C11 UNL     1      18.115  -3.416  23.296  1.00  0.00     0.073 C 
BRANCH  25  26
HETATM   26  C12 UNL     1      18.591  -4.532  24.092  1.00  0.00     0.111 C 
HETATM   27  N10 UNL     1      18.120  -4.895  25.202  1.00  0.00    -0.388 N 
ATOM     28 2H10 UNL     1      17.337  -4.323  25.519  1.00  0.00     0.157 HD
ATOM     29 1H10 UNL     1      18.455  -5.680  25.762  1.00  0.00     0.157 HD
HETATM   30  N11 UNL     1      19.707  -5.347  23.641  1.00  0.00    -0.083 NA
ENDBRANCH  25  26
ENDBRANCH  23  25
ENDBRANCH   1  23
TORSDOF 11
ENDMDL
MODEL 4
REMARK VINA RESULT: -7.492160027      1.283      1.901
REMARK  11 active torsions:
REMARK  status: ('A' for Active; 'I' for Inactive)
REMARK    1  A    between atoms: N1_1  and  N2_4 
REMARK    2  A    between atoms: N2_4  and  C1_5 
REMARK    3  A    between atoms: C1_5  and  C2_6 
REMARK    4  A    between atoms: C2_6  and  C10_23 
REMARK    5  A    between atoms: N3_7  and  C3_9 
REMARK    6  A    between atoms: C5_13  and  C6_14 
REMARK    7  A    between atoms: C6_14  and  C7_15 
REMARK    8  A    between atoms: C7_15  and  C8_16 
REMARK    9  A    between atoms: C8_16  and  N5_17 
REMARK       I    between atoms: N5_17  and  C9_18 
REMARK   10  A    between atoms: C10_23  and  C11_25 
REMARK   11  A    between atoms: C11_25  and  C12_26 
ROOT
HETATM    1  C2  UNL     1      15.459  -7.893  19.858  1.00  0.00     0.085 C 
HETATM    2  N3  UNL     1      15.537  -6.629  20.336  1.00  0.00    -0.364 N 
ATOM      3  H3  UNL     1      14.804  -6.440  21.020  1.00  0.00     0.162 HD
ENDROOT
BRANCH   2   4
HETATM    4  C3  UNL     1      16.335  -5.547  20.144  1.00  0.00     0.200 C 
HETATM    5  C4  UNL     1      15.828  -4.436  19.302  1.00  0.00     0.167 C 
HETATM    6  N4  UNL     1      15.353  -3.463  20.297  1.00  0.00    -0.376 N 
HETATM    7  C5  UNL     1      15.850  -3.727  21.452  1.00  0.00     0.074 C 
ATOM      8  H4  UNL     1      14.719  -2.689  20.099  1.00  0.00     0.160 HD
HETATM    9  N8  UNL     1      16.695  -4.851  21.400  1.00  0.00    -0.357 N 
ATOM     10  H8  UNL     1      17.403  -5.125  22.081  1.00  0.00     0.163 HD
BRANCH   7  11
HETATM   11  C6  UNL     1      15.523  -2.875  22.661  1.00  0.00     0.082 C 
BRANCH  11  12
HETATM   12  C7  UNL     1      14.365  -1.983  22.305  1.00  0.00     0.067 C 
BRANCH  12  13
HETATM   13  C8  UNL     1      14.015  -1.052  23.463  1.00  0.00     0.158 C 
BRANCH  13  14
HETATM   14  N5  UNL     1      12.710  -0.762  23.568  1.00  0.00    -0.393 NA
HETATM   15  C9  UNL     1      11.583  -0.484  23.649  1.00  0.00     0.274 C 
HETATM   16  N6  UNL     1      10.584  -1.447  24.109  1.00  0.00    -0.052 NA
HETATM   17  N7  UNL     1      10.972   0.801  23.321  1.00  0.00    -0.052 NA
ENDBRANCH  13  14
ENDBRANCH  12  13
ENDBRANCH  11  12
ENDBRANCH   7  11
ENDBRANCH   2   4
BRANCH   1  18
HETATM   18  C1  UNL     1      16.618  -8.824  20.149  1.00  0.00     0.239 C 
BRANCH  18  19
HETATM   19  N2  UNL     1      17.037  -8.997  21.306  1.00  0.00    -0.343 NA
BRANCH  19  20
HETATM   20  N1  UNL     1      17.724  -9.103  22.348  1.00  0.00    -0.281 N 
ATOM     21  H12 UNL     1      17.318  -8.258  22.750  1.00  0.00     0.191 HD
ATOM     22  H11 UNL     1      18.370  -9.388  23.084  1.00  0.00     0.191 HD
ENDBRANCH  19  20
ENDBRANCH  18  19
ENDBRANCH   1  18
BRANCH   1  23
HETATM   23  C10 UNL     1      14.774  -8.263  18.615  1.00  0.00     0.078 C 
HETATM   24  N9  UNL     1      14.233  -9.577  18.517  1.00  0.00    -0.100 NA
BRANCH  23  25
HETATM   25  C11 UNL     1      14.195  -7.224  17.746  1.00  0.00     0.073 C 
BRANCH  25  26
HETATM   26  C12 UNL     1      12.783  -7.178  17.421  1.00  0.00     0.111 C 
HETATM   27  N10 UNL     1      12.077  -8.164  17.079  1.00  0.00    -0.388 N 
ATOM     28 2H10 UNL     1      12.593  -9.043  17.047  1.00  0.00     0.157 HD
ATOM     29 1H10 UNL     1      11.083  -8.132  16.850  1.00  0.00     0.157 HD
HETATM   30  N11 UNL     1      12.046  -5.926  17.465  1.00  0.00    -0.083 NA
ENDBRANCH  25  26
ENDBRANCH  23  25
ENDBRANCH   1  23
TORSDOF 11
ENDMDL
MODEL 5
REMARK VINA RESULT: -7.401437318      2.432      4.229
REMARK  11 active torsions:
REMARK  status: ('A' for Active; 'I' for Inactive)
REMARK    1  A    between atoms: N1_1  and  N2_4 
REMARK    2  A    between atoms: N2_4  and  C1_5 
REMARK    3  A    between atoms: C1_5  and  C2_6 
REMARK    4  A    between atoms: C2_6  and  C10_23 
REMARK    5  A    between atoms: N3_7  and  C3_9 
REMARK    6  A    between atoms: C5_13  and  C6_14 
REMARK    7  A    between atoms: C6_14  and  C7_15 
REMARK    8  A    between atoms: C7_15  and  C8_16 
REMARK    9  A    between atoms: C8_16  and  N5_17 
REMARK       I    between atoms: N5_17  and  C9_18 
REMARK   10  A    between atoms: C10_23  and  C11_25 
REMARK   11  A    between atoms: C11_25  and  C12_26 
ROOT
HETATM    1  C2  UNL     1      15.737  -7.839  20.095  1.00  0.00     0.085 C 
HETATM    2  N3  UNL     1      15.792  -6.593  20.619  1.00  0.00    -0.364 N 
ATOM      3  H3  UNL     1      15.120  -6.474  21.377  1.00  0.00     0.162 HD
ENDROOT
BRANCH   2   4
HETATM    4  C3  UNL     1      16.508  -5.459  20.402  1.00  0.00     0.200 C 
HETATM    5  C4  UNL     1      15.827  -4.306  19.766  1.00  0.00     0.167 C 
HETATM    6  N4  UNL     1      15.495  -3.449  20.915  1.00  0.00    -0.376 N 
HETATM    7  C5  UNL     1      16.191  -3.788  21.940  1.00  0.00     0.074 C 
ATOM      8  H4  UNL     1      14.810  -2.694  20.900  1.00  0.00     0.160 HD
HETATM    9  N8  UNL     1      17.053  -4.859  21.641  1.00  0.00    -0.357 N 
ATOM     10  H8  UNL     1      17.876  -5.157  22.165  1.00  0.00     0.163 HD
BRANCH   7  11
HETATM   11  C6  UNL     1      16.045  -3.064  23.262  1.00  0.00     0.082 C 
BRANCH  11  12
HETATM   12  C7  UNL     1      17.419  -2.873  23.845  1.00  0.00     0.067 C 
BRANCH  12  13
HETATM   13  C8  UNL     1      17.686  -3.881  24.960  1.00  0.00     0.158 C 
BRANCH  13  14
HETATM   14  N5  UNL     1      18.612  -4.804  24.665  1.00  0.00    -0.393 NA
HETATM   15  C9  UNL     1      19.399  -5.624  24.415  1.00  0.00     0.274 C 
HETATM   16  N6  UNL     1      20.738  -5.287  23.937  1.00  0.00    -0.052 NA
HETATM   17  N7  UNL     1      19.217  -7.070  24.515  1.00  0.00    -0.052 NA
ENDBRANCH  13  14
ENDBRANCH  12  13
ENDBRANCH  11  12
ENDBRANCH   7  11
ENDBRANCH   2   4
BRANCH   1  18
HETATM   18  C1  UNL     1      16.969  -8.712  20.232  1.00  0.00     0.239 C 
BRANCH  18  19
HETATM   19  N2  UNL     1      17.473  -8.951  21.342  1.00  0.00    -0.343 NA
BRANCH  19  20
HETATM   20  N1  UNL     1      17.761  -9.012  22.560  1.00  0.00    -0.281 N 
ATOM     21  H12 UNL     1      17.859 -10.027  22.527  1.00  0.00     0.191 HD
ATOM     22  H11 UNL     1      17.968  -8.819  23.540  1.00  0.00     0.191 HD
ENDBRANCH  19  20
ENDBRANCH  18  19
ENDBRANCH   1  18
BRANCH   1  23
HETATM   23  C10 UNL     1      14.956  -8.199  18.907  1.00  0.00     0.078 C 
HETATM   24  N9  UNL     1      14.306  -7.152  18.193  1.00  0.00    -0.100 NA
BRANCH  23  25
HETATM   25  C11 UNL     1      15.250  -9.442  18.171  1.00  0.00     0.073 C 
BRANCH  25  26
HETATM   26  C12 UNL     1      15.460  -9.466  16.736  1.00  0.00     0.111 C 
HETATM   27  N10 UNL     1      16.214  -8.689  16.092  1.00  0.00    -0.388 N 
ATOM     28 2H10 UNL     1      16.694  -8.008  16.680  1.00  0.00     0.157 HD
ATOM     29 1H10 UNL     1      16.361  -8.706  15.082  1.00  0.00     0.157 HD
HETATM   30  N11 UNL     1      14.776 -10.437  15.898  1.00  0.00    -0.083 NA
ENDBRANCH  25  26
ENDBRANCH  23  25
ENDBRANCH   1  23
TORSDOF 11
ENDMDL
