MODEL 1
REMARK VINA RESULT: -4.734126764      0.000      0.000
REMARK  2 active torsions:
REMARK  status: ('A' for Active; 'I' for Inactive)
REMARK    1  A    between atoms: N1_1  and  C1_4 
REMARK    2  A    between atoms: N4_11  and  N5_12 
ROOT
HETATM    1  C1  UNL     1      50.735  36.866  26.406  1.00  0.00     0.175 A 
HETATM    2  N2  UNL     1      51.470  37.958  26.652  1.00  0.00    -0.289 N 
ATOM      3  H2  UNL     1      52.302  38.150  26.094  1.00  0.00     0.172 HD
HETATM    4  C2  UNL     1      51.110  38.803  27.636  1.00  0.00     0.342 A 
HETATM    5  O1  UNL     1      51.834  39.825  27.834  1.00  0.00    -0.245 OA
HETATM    6  N3  UNL     1      50.021  38.590  28.394  1.00  0.00    -0.227 N 
ATOM      7  H3  UNL     1      49.775  39.251  29.131  1.00  0.00     0.194 HD
HETATM    8  N4  UNL     1      49.258  37.510  28.183  1.00  0.00    -0.157 N 
HETATM    9  C3  UNL     1      49.624  36.663  27.193  1.00  0.00     0.325 A 
HETATM   10  O2  UNL     1      48.928  35.618  26.952  1.00  0.00    -0.261 OA
ENDROOT
BRANCH   1  11
HETATM   11  N1  UNL     1      51.051  36.021  25.461  1.00  0.00    -0.381 N 
ATOM     12  H12 UNL     1      51.314  36.350  24.532  1.00  0.00     0.157 HD
ATOM     13  H11 UNL     1      51.048  35.014  25.617  1.00  0.00     0.157 HD
ENDBRANCH   1  11
BRANCH   8  14
HETATM   14  N5  UNL     1      48.120  37.258  28.952  1.00  0.00    -0.321 N 
ATOM     15  H52 UNL     1      48.086  36.460  29.587  1.00  0.00     0.179 HD
ATOM     16  H51 UNL     1      47.297  37.859  28.901  1.00  0.00     0.179 HD
ENDBRANCH   8  14
TORSDOF 2
ENDMDL
MODEL 2
REMARK VINA RESULT: -4.689727236      0.987      3.909
REMARK  2 active torsions:
REMARK  status: ('A' for Active; 'I' for Inactive)
REMARK    1  A    between atoms: N1_1  and  C1_4 
REMARK    2  A    between atoms: N4_11  and  N5_12 
ROOT
HETATM    1  C1  UNL     1      50.145  38.450  28.433  1.00  0.00     0.175 A 
HETATM    2  N2  UNL     1      49.425  37.323  28.369  1.00  0.00    -0.289 N 
ATOM      3  H2  UNL     1      48.881  37.019  29.177  1.00  0.00     0.172 HD
HETATM    4  C2  UNL     1      49.420  36.590  27.239  1.00  0.00     0.342 A 
HETATM    5  O1  UNL     1      48.723  35.531  27.223  1.00  0.00    -0.245 OA
HETATM    6  N3  UNL     1      50.120  36.955  26.152  1.00  0.00    -0.227 N 
ATOM      7  H3  UNL     1      50.093  36.378  25.312  1.00  0.00     0.194 HD
HETATM    8  N4  UNL     1      50.855  38.074  26.172  1.00  0.00    -0.157 N 
HETATM    9  C3  UNL     1      50.857  38.807  27.310  1.00  0.00     0.325 A 
HETATM   10  O2  UNL     1      51.542  39.884  27.379  1.00  0.00    -0.261 OA
ENDROOT
BRANCH   1  11
HETATM   11  N1  UNL     1      50.177  39.187  29.510  1.00  0.00    -0.381 N 
ATOM     12  H12 UNL     1      49.811  40.139  29.504  1.00  0.00     0.157 HD
ATOM     13  H11 UNL     1      50.565  38.842  30.387  1.00  0.00     0.157 HD
ENDBRANCH   1  11
BRANCH   8  14
HETATM   14  N5  UNL     1      51.595  38.481  25.060  1.00  0.00    -0.321 N 
ATOM     15  H52 UNL     1      51.423  38.073  24.141  1.00  0.00     0.179 HD
ATOM     16  H51 UNL     1      52.323  39.192  25.135  1.00  0.00     0.179 HD
ENDBRANCH   8  14
TORSDOF 2
ENDMDL
MODEL 3
REMARK VINA RESULT: -4.685465290      0.634      2.594
REMARK  2 active torsions:
REMARK  status: ('A' for Active; 'I' for Inactive)
REMARK    1  A    between atoms: N1_1  and  C1_4 
REMARK    2  A    between atoms: N4_11  and  N5_12 
ROOT
HETATM    1  C1  UNL     1      49.383  37.608  28.288  1.00  0.00     0.175 A 
HETATM    2  N2  UNL     1      50.187  38.666  28.457  1.00  0.00    -0.289 N 
ATOM      3  H2  UNL     1      50.002  39.333  29.206  1.00  0.00     0.172 HD
HETATM    4  C2  UNL     1      51.240  38.848  27.638  1.00  0.00     0.342 A 
HETATM    5  O1  UNL     1      51.975  39.863  27.835  1.00  0.00    -0.245 OA
HETATM    6  N3  UNL     1      51.521  37.994  26.640  1.00  0.00    -0.227 N 
ATOM      7  H3  UNL     1      52.328  38.161  26.038  1.00  0.00     0.194 HD
HETATM    8  N4  UNL     1      50.744  36.924  26.434  1.00  0.00    -0.157 N 
HETATM    9  C3  UNL     1      49.686  36.744  27.259  1.00  0.00     0.325 A 
HETATM   10  O2  UNL     1      48.914  35.738  27.104  1.00  0.00    -0.261 OA
ENDROOT
BRANCH   1  11
HETATM   11  N1  UNL     1      48.352  37.396  29.060  1.00  0.00    -0.381 N 
ATOM     12  H12 UNL     1      48.427  36.792  29.879  1.00  0.00     0.157 HD
ATOM     13  H11 UNL     1      47.444  37.822  28.875  1.00  0.00     0.157 HD
ENDBRANCH   1  11
BRANCH   8  14
HETATM   14  N5  UNL     1      51.007  36.017  25.405  1.00  0.00    -0.321 N 
ATOM     15  H52 UNL     1      50.621  36.160  24.472  1.00  0.00     0.179 HD
ATOM     16  H51 UNL     1      51.587  35.191  25.557  1.00  0.00     0.179 HD
ENDBRANCH   8  14
TORSDOF 2
ENDMDL
MODEL 4
REMARK VINA RESULT: -4.678571260      0.888      2.998
REMARK  2 active torsions:
REMARK  status: ('A' for Active; 'I' for Inactive)
REMARK    1  A    between atoms: N1_1  and  C1_4 
REMARK    2  A    between atoms: N4_11  and  N5_12 
ROOT
HETATM    1  C1  UNL     1      51.004  37.994  26.311  1.00  0.00     0.175 A 
HETATM    2  N2  UNL     1      50.227  36.905  26.247  1.00  0.00    -0.289 N 
ATOM      3  H2  UNL     1      50.245  36.313  25.417  1.00  0.00     0.172 HD
HETATM    4  C2  UNL     1      49.420  36.593  27.279  1.00  0.00     0.342 A 
HETATM    5  O1  UNL     1      48.702  35.553  27.176  1.00  0.00    -0.245 OA
HETATM    6  N3  UNL     1      49.366  37.344  28.392  1.00  0.00    -0.227 N 
ATOM      7  H3  UNL     1      48.744  37.078  29.156  1.00  0.00     0.194 HD
HETATM    8  N4  UNL     1      50.125  38.441  28.498  1.00  0.00    -0.157 N 
HETATM    9  C3  UNL     1      50.934  38.752  27.458  1.00  0.00     0.325 A 
HETATM   10  O2  UNL     1      51.679  39.789  27.512  1.00  0.00    -0.261 OA
ENDROOT
BRANCH   1  11
HETATM   11  N1  UNL     1      51.799  38.331  25.332  1.00  0.00    -0.381 N 
ATOM     12  H12 UNL     1      52.605  37.755  25.090  1.00  0.00     0.157 HD
ATOM     13  H11 UNL     1      51.645  39.174  24.779  1.00  0.00     0.157 HD
ENDBRANCH   1  11
BRANCH   8  14
HETATM   14  N5  UNL     1      50.092  39.244  29.640  1.00  0.00    -0.321 N 
ATOM     15  H52 UNL     1      49.405  39.077  30.376  1.00  0.00     0.179 HD
ATOM     16  H51 UNL     1      50.748  40.015  29.770  1.00  0.00     0.179 HD
ENDBRANCH   8  14
TORSDOF 2
ENDMDL
MODEL 5
REMARK VINA RESULT: -4.635299539      1.488      1.695
REMARK  2 active torsions:
REMARK  status: ('A' for Active; 'I' for Inactive)
REMARK    1  A    between atoms: N1_1  and  C1_4 
REMARK    2  A    between atoms: N4_11  and  N5_12 
ROOT
HETATM    1  C1  UNL     1      51.581  38.145  27.102  1.00  0.00     0.175 A 
HETATM    2  N2  UNL     1      52.231  38.713  28.126  1.00  0.00    -0.289 N 
ATOM      3  H2  UNL     1      53.142  39.146  27.975  1.00  0.00     0.172 HD
HETATM    4  C2  UNL     1      51.681  38.712  29.356  1.00  0.00     0.342 A 
HETATM    5  O1  UNL     1      52.332  39.262  30.295  1.00  0.00    -0.245 OA
HETATM    6  N3  UNL     1      50.484  38.154  29.599  1.00  0.00    -0.227 N 
ATOM      7  H3  UNL     1      50.096  38.172  30.542  1.00  0.00     0.194 HD
HETATM    8  N4  UNL     1      49.800  37.574  28.605  1.00  0.00    -0.157 N 
HETATM    9  C3  UNL     1      50.356  37.577  27.371  1.00  0.00     0.325 A 
HETATM   10  O2  UNL     1      49.742  37.037  26.388  1.00  0.00    -0.261 OA
ENDROOT
BRANCH   1  11
HETATM   11  N1  UNL     1      52.080  38.124  25.896  1.00  0.00    -0.381 N 
ATOM     12  H12 UNL     1      51.573  38.536  25.113  1.00  0.00     0.157 HD
ATOM     13  H11 UNL     1      52.985  37.700  25.695  1.00  0.00     0.157 HD
ENDBRANCH   1  11
BRANCH   8  14
HETATM   14  N5  UNL     1      48.552  36.985  28.823  1.00  0.00    -0.321 N 
ATOM     15  H52 UNL     1      48.481  36.039  29.199  1.00  0.00     0.179 HD
ATOM     16  H51 UNL     1      47.685  37.479  28.614  1.00  0.00     0.179 HD
ENDBRANCH   8  14
TORSDOF 2
ENDMDL
