MODEL 1
REMARK VINA RESULT: -7.614144816      0.000      0.000
REMARK  3 active torsions:
REMARK  status: ('A' for Active; 'I' for Inactive)
REMARK    1  A    between atoms: N1_1  and  C1_5 
REMARK    2  A    between atoms: C1_5  and  C2_6 
REMARK    3  A    between atoms: C3_7  and  C4_8 
ROOT
HETATM    1  C4  UNL     1      13.827 -46.062 -16.575  1.00  0.00     0.067 C 
HETATM    2  C5  UNL     1      13.956 -45.070 -15.719  1.00  0.00    -0.067 C 
HETATM    3  C6  UNL     1      14.357 -43.775 -16.266  1.00  0.00     0.039 C 
HETATM    4  C7  UNL     1      13.880 -42.612 -15.408  1.00  0.00    -0.010 C 
HETATM    5  C8  UNL     1      12.416 -42.723 -15.085  1.00  0.00     0.009 C 
HETATM    6  C9  UNL     1      12.103 -43.529 -13.875  1.00  0.00    -0.013 C 
HETATM    7  C10 UNL     1      12.947 -43.100 -12.696  1.00  0.00     0.009 C 
HETATM    8  C11 UNL     1      14.388 -43.373 -13.066  1.00  0.00    -0.013 C 
HETATM    9  C12 UNL     1      14.755 -42.474 -14.198  1.00  0.00     0.009 C 
HETATM   10  C13 UNL     1      14.648 -44.811 -13.351  1.00  0.00     0.013 C 
HETATM   11  C14 UNL     1      13.667 -45.435 -14.314  1.00  0.00     0.016 C 
HETATM   12  C15 UNL     1      12.245 -45.005 -14.034  1.00  0.00     0.013 C 
ENDROOT
BRANCH   1  13
HETATM   13  C3  UNL     1      13.442 -47.392 -16.198  1.00  0.00    -0.076 C 
HETATM   14  C2  UNL     1      13.118 -48.505 -15.864  1.00  0.00    -0.063 C 
BRANCH  14  15
HETATM   15  C1  UNL     1      12.716 -49.846 -15.438  1.00  0.00     0.186 C 
HETATM   16  C16 UNL     1      12.758 -49.946 -13.914  1.00  0.00     0.052 C 
HETATM   17  C17 UNL     1      11.687 -50.990 -13.664  1.00  0.00     0.003 C 
HETATM   18  C18 UNL     1      10.552 -50.452 -14.526  1.00  0.00     0.003 C 
HETATM   19  C19 UNL     1      11.262 -50.098 -15.797  1.00  0.00     0.052 C 
BRANCH  15  20
HETATM   20  N1  UNL     1      13.591 -50.864 -15.949  1.00  0.00    -0.059 N 
ATOM     21  H13 UNL     1      14.239 -50.482 -16.638  1.00  0.00     0.276 HD
ATOM     22  H12 UNL     1      14.264 -51.161 -15.242  1.00  0.00     0.276 HD
ATOM     23  H11 UNL     1      13.078 -51.660 -16.326  1.00  0.00     0.276 HD
ENDBRANCH  15  20
ENDBRANCH  14  15
ENDBRANCH   1  13
TORSDOF 3
ENDMDL
MODEL 2
REMARK VINA RESULT: -7.523370189      0.940      1.309
REMARK  3 active torsions:
REMARK  status: ('A' for Active; 'I' for Inactive)
REMARK    1  A    between atoms: N1_1  and  C1_5 
REMARK    2  A    between atoms: C1_5  and  C2_6 
REMARK    3  A    between atoms: C3_7  and  C4_8 
ROOT
HETATM    1  C4  UNL     1      13.849 -46.214 -16.447  1.00  0.00     0.067 C 
HETATM    2  C5  UNL     1      13.974 -45.190 -15.628  1.00  0.00    -0.067 C 
HETATM    3  C6  UNL     1      14.383 -43.919 -16.220  1.00  0.00     0.039 C 
HETATM    4  C7  UNL     1      13.902 -42.722 -15.411  1.00  0.00    -0.010 C 
HETATM    5  C8  UNL     1      12.435 -42.817 -15.096  1.00  0.00     0.009 C 
HETATM    6  C9  UNL     1      12.109 -43.575 -13.860  1.00  0.00    -0.013 C 
HETATM    7  C10 UNL     1      12.945 -43.105 -12.691  1.00  0.00     0.009 C 
HETATM    8  C11 UNL     1      14.388 -43.396 -13.037  1.00  0.00    -0.013 C 
HETATM    9  C12 UNL     1      14.768 -42.541 -14.200  1.00  0.00     0.009 C 
HETATM   10  C13 UNL     1      14.647 -44.844 -13.266  1.00  0.00     0.013 C 
HETATM   11  C14 UNL     1      13.672 -45.501 -14.212  1.00  0.00     0.016 C 
HETATM   12  C15 UNL     1      12.248 -45.057 -13.961  1.00  0.00     0.013 C 
ENDROOT
BRANCH   1  13
HETATM   13  C3  UNL     1      13.456 -47.527 -16.023  1.00  0.00    -0.076 C 
HETATM   14  C2  UNL     1      13.128 -48.627 -15.650  1.00  0.00    -0.063 C 
BRANCH  14  15
HETATM   15  C1  UNL     1      12.724 -49.950 -15.175  1.00  0.00     0.186 C 
HETATM   16  C16 UNL     1      11.317 -50.279 -15.670  1.00  0.00     0.052 C 
HETATM   17  C17 UNL     1      11.385 -51.791 -15.751  1.00  0.00     0.003 C 
HETATM   18  C18 UNL     1      12.698 -51.982 -16.499  1.00  0.00     0.003 C 
HETATM   19  C19 UNL     1      13.606 -51.022 -15.792  1.00  0.00     0.052 C 
BRANCH  15  20
HETATM   20  N1  UNL     1      12.692 -50.027 -13.741  1.00  0.00    -0.059 N 
ATOM     21  H13 UNL     1      13.207 -50.840 -13.403  1.00  0.00     0.276 HD
ATOM     22  H12 UNL     1      13.258 -49.291 -13.319  1.00  0.00     0.276 HD
ATOM     23  H11 UNL     1      11.740 -50.015 -13.374  1.00  0.00     0.276 HD
ENDBRANCH  15  20
ENDBRANCH  14  15
ENDBRANCH   1  13
TORSDOF 3
ENDMDL
MODEL 3
REMARK VINA RESULT: -7.155141665      2.215      6.712
REMARK  3 active torsions:
REMARK  status: ('A' for Active; 'I' for Inactive)
REMARK    1  A    between atoms: N1_1  and  C1_5 
REMARK    2  A    between atoms: C1_5  and  C2_6 
REMARK    3  A    between atoms: C3_7  and  C4_8 
ROOT
HETATM    1  C4  UNL     1      14.205 -47.291 -15.011  1.00  0.00     0.067 C 
HETATM    2  C5  UNL     1      13.243 -48.180 -15.145  1.00  0.00    -0.067 C 
HETATM    3  C6  UNL     1      13.646 -49.541 -15.492  1.00  0.00     0.039 C 
HETATM    4  C7  UNL     1      12.642 -50.581 -15.016  1.00  0.00    -0.010 C 
HETATM    5  C8  UNL     1      12.286 -50.389 -13.568  1.00  0.00     0.009 C 
HETATM    6  C9  UNL     1      11.170 -49.439 -13.320  1.00  0.00    -0.013 C 
HETATM    7  C10 UNL     1       9.977 -49.752 -14.195  1.00  0.00     0.009 C 
HETATM    8  C11 UNL     1      10.424 -49.567 -15.628  1.00  0.00    -0.013 C 
HETATM    9  C12 UNL     1      11.454 -50.603 -15.931  1.00  0.00     0.009 C 
HETATM   10  C13 UNL     1      10.885 -48.181 -15.916  1.00  0.00     0.013 C 
HETATM   11  C14 UNL     1      11.882 -47.645 -14.917  1.00  0.00     0.016 C 
HETATM   12  C15 UNL     1      11.506 -47.996 -13.495  1.00  0.00     0.013 C 
ENDROOT
BRANCH   1  13
HETATM   13  C3  UNL     1      13.975 -45.916 -14.674  1.00  0.00    -0.076 C 
HETATM   14  C2  UNL     1      13.771 -44.757 -14.405  1.00  0.00    -0.063 C 
BRANCH  14  15
HETATM   15  C1  UNL     1      13.504 -43.353 -14.093  1.00  0.00     0.186 C 
HETATM   16  C16 UNL     1      14.804 -42.552 -14.119  1.00  0.00     0.052 C 
HETATM   17  C17 UNL     1      14.293 -41.183 -14.519  1.00  0.00     0.003 C 
HETATM   18  C18 UNL     1      13.402 -41.541 -15.703  1.00  0.00     0.003 C 
HETATM   19  C19 UNL     1      12.648 -42.727 -15.182  1.00  0.00     0.052 C 
BRANCH  15  20
HETATM   20  N1  UNL     1      12.934 -43.185 -12.785  1.00  0.00    -0.059 N 
ATOM     21  H13 UNL     1      13.218 -42.298 -12.371  1.00  0.00     0.276 HD
ATOM     22  H12 UNL     1      11.928 -43.025 -12.839  1.00  0.00     0.276 HD
ATOM     23  H11 UNL     1      13.150 -43.967 -12.167  1.00  0.00     0.276 HD
ENDBRANCH  15  20
ENDBRANCH  14  15
ENDBRANCH   1  13
TORSDOF 3
ENDMDL
MODEL 4
REMARK VINA RESULT: -7.113155934      2.168      2.846
REMARK  3 active torsions:
REMARK  status: ('A' for Active; 'I' for Inactive)
REMARK    1  A    between atoms: N1_1  and  C1_5 
REMARK    2  A    between atoms: C1_5  and  C2_6 
REMARK    3  A    between atoms: C3_7  and  C4_8 
ROOT
HETATM    1  C4  UNL     1      13.955 -47.312 -14.565  1.00  0.00     0.067 C 
HETATM    2  C5  UNL     1      14.031 -46.021 -14.318  1.00  0.00    -0.067 C 
HETATM    3  C6  UNL     1      14.359 -45.151 -15.446  1.00  0.00     0.039 C 
HETATM    4  C7  UNL     1      13.819 -43.739 -15.265  1.00  0.00    -0.010 C 
HETATM    5  C8  UNL     1      12.365 -43.744 -14.887  1.00  0.00     0.009 C 
HETATM    6  C9  UNL     1      12.099 -43.856 -13.428  1.00  0.00    -0.013 C 
HETATM    7  C10 UNL     1      12.921 -42.859 -12.642  1.00  0.00     0.009 C 
HETATM    8  C11 UNL     1      14.374 -43.212 -12.870  1.00  0.00    -0.013 C 
HETATM    9  C12 UNL     1      14.688 -42.978 -14.309  1.00  0.00     0.009 C 
HETATM   10  C13 UNL     1      14.713 -44.587 -12.412  1.00  0.00     0.013 C 
HETATM   11  C14 UNL     1      13.765 -45.653 -12.909  1.00  0.00     0.016 C 
HETATM   12  C15 UNL     1      12.322 -45.207 -12.837  1.00  0.00     0.013 C 
ENDROOT
BRANCH   1  13
HETATM   13  C3  UNL     1      13.644 -48.295 -13.567  1.00  0.00    -0.076 C 
HETATM   14  C2  UNL     1      13.366 -49.115 -12.727  1.00  0.00    -0.063 C 
BRANCH  14  15
HETATM   15  C1  UNL     1      13.005 -50.106 -11.714  1.00  0.00     0.186 C 
HETATM   16  C16 UNL     1      13.034 -51.509 -12.317  1.00  0.00     0.052 C 
HETATM   17  C17 UNL     1      13.380 -52.341 -11.098  1.00  0.00     0.003 C 
HETATM   18  C18 UNL     1      14.553 -51.551 -10.532  1.00  0.00     0.003 C 
HETATM   19  C19 UNL     1      14.054 -50.141 -10.615  1.00  0.00     0.052 C 
BRANCH  15  20
HETATM   20  N1  UNL     1      11.680 -49.899 -11.199  1.00  0.00    -0.059 N 
ATOM     21  H13 UNL     1      11.435 -50.613 -10.513  1.00  0.00     0.276 HD
ATOM     22  H12 UNL     1      11.642 -49.077 -10.598  1.00  0.00     0.276 HD
ATOM     23  H11 UNL     1      10.981 -49.845 -11.941  1.00  0.00     0.276 HD
ENDBRANCH  15  20
ENDBRANCH  14  15
ENDBRANCH   1  13
TORSDOF 3
ENDMDL
MODEL 5
REMARK VINA RESULT: -6.934297498      1.944      2.879
REMARK  3 active torsions:
REMARK  status: ('A' for Active; 'I' for Inactive)
REMARK    1  A    between atoms: N1_1  and  C1_5 
REMARK    2  A    between atoms: C1_5  and  C2_6 
REMARK    3  A    between atoms: C3_7  and  C4_8 
ROOT
HETATM    1  C4  UNL     1      14.447 -46.263 -12.302  1.00  0.00     0.067 C 
HETATM    2  C5  UNL     1      14.009 -45.102 -12.742  1.00  0.00    -0.067 C 
HETATM    3  C6  UNL     1      14.957 -43.990 -12.726  1.00  0.00     0.039 C 
HETATM    4  C7  UNL     1      14.632 -42.938 -13.776  1.00  0.00    -0.010 C 
HETATM    5  C8  UNL     1      14.418 -43.551 -15.131  1.00  0.00     0.009 C 
HETATM    6  C9  UNL     1      13.028 -44.008 -15.397  1.00  0.00    -0.013 C 
HETATM    7  C10 UNL     1      12.022 -42.930 -15.059  1.00  0.00     0.009 C 
HETATM    8  C11 UNL     1      12.141 -42.669 -13.574  1.00  0.00    -0.013 C 
HETATM    9  C12 UNL     1      13.488 -42.087 -13.312  1.00  0.00     0.009 C 
HETATM   10  C13 UNL     1      11.853 -43.875 -12.751  1.00  0.00     0.013 C 
HETATM   11  C14 UNL     1      12.598 -45.113 -13.190  1.00  0.00     0.016 C 
HETATM   12  C15 UNL     1      12.619 -45.259 -14.695  1.00  0.00     0.013 C 
ENDROOT
BRANCH   1  13
HETATM   13  C3  UNL     1      13.642 -47.450 -12.252  1.00  0.00    -0.076 C 
HETATM   14  C2  UNL     1      12.970 -48.452 -12.226  1.00  0.00    -0.063 C 
BRANCH  14  15
HETATM   15  C1  UNL     1      12.173 -49.678 -12.212  1.00  0.00     0.186 C 
HETATM   16  C16 UNL     1      10.772 -49.401 -12.755  1.00  0.00     0.052 C 
HETATM   17  C17 UNL     1      10.415 -50.753 -13.338  1.00  0.00     0.003 C 
HETATM   18  C18 UNL     1      11.673 -51.065 -14.139  1.00  0.00     0.003 C 
HETATM   19  C19 UNL     1      12.760 -50.698 -13.173  1.00  0.00     0.052 C 
BRANCH  15  20
HETATM   20  N1  UNL     1      12.011 -50.206 -10.886  1.00  0.00    -0.059 N 
ATOM     21  H13 UNL     1      11.059 -50.067 -10.547  1.00  0.00     0.276 HD
ATOM     22  H12 UNL     1      12.035 -51.226 -10.889  1.00  0.00     0.276 HD
ATOM     23  H11 UNL     1      12.695 -49.825 -10.232  1.00  0.00     0.276 HD
ENDBRANCH  15  20
ENDBRANCH  14  15
ENDBRANCH   1  13
TORSDOF 3
ENDMDL
