MODEL 1
REMARK VINA RESULT: -8.332998394      0.000      0.000
REMARK  2 active torsions:
REMARK  status: ('A' for Active; 'I' for Inactive)
REMARK    1  A    between atoms: C8_8  and  C9_9 
REMARK    2  A    between atoms: C9_9  and  O1_10 
ROOT
HETATM    1  C1  UNL     1      15.335  74.846   7.132  1.00  0.00     0.039 C 
HETATM    2  C2  UNL     1      15.482  74.769   8.634  1.00  0.00     0.118 C 
HETATM    3  C3  UNL     1      14.546  75.790   9.260  1.00  0.00     0.032 C 
HETATM    4  C4  UNL     1      15.302  77.039   9.468  1.00  0.00     0.006 C 
HETATM    5  C5  UNL     1      16.682  77.039   8.858  1.00  0.00     0.038 C 
HETATM    6  C6  UNL     1      17.505  75.849   9.263  1.00  0.00     0.062 C 
HETATM    7  C7  UNL     1      18.667  75.594   8.361  1.00  0.00     0.045 C 
HETATM    8  C8  UNL     1      19.930  76.263   8.563  1.00  0.00     0.017 C 
HETATM    9  C10 UNL     1      20.402  76.665   9.888  1.00  0.00     0.001 C 
HETATM   10  C11 UNL     1      20.515  75.589  10.927  1.00  0.00     0.006 C 
HETATM   11  C12 UNL     1      19.706  76.086  12.141  1.00  0.00     0.006 C 
HETATM   12  C13 UNL     1      18.638  76.880  11.336  1.00  0.00    -0.003 C 
HETATM   13  C14 UNL     1      17.802  75.868  10.722  1.00  0.00     0.043 C 
HETATM   14  C15 UNL     1      19.580  77.711  10.582  1.00  0.00    -0.033 A 
HETATM   15  C16 UNL     1      20.451  78.571  11.567  1.00  0.00     0.011 A 
HETATM   16  C17 UNL     1      19.720  79.123  10.448  1.00  0.00     0.011 A 
HETATM   17  O2  UNL     1      16.708  74.702   9.120  1.00  0.00    -0.375 OA
ENDROOT
BRANCH   8  18
HETATM   18  C9  UNL     1      20.012  77.530   7.682  1.00  0.00     0.169 C 
BRANCH  18  19
HETATM   19  O1  UNL     1      21.366  77.774   7.451  1.00  0.00    -0.400 OA
ATOM     20  H1  UNL     1      21.569  78.609   7.858  1.00  0.00     0.209 HD
ENDBRANCH  18  19
ENDBRANCH   8  18
TORSDOF 2
ENDMDL
MODEL 2
REMARK VINA RESULT: -8.197242325      1.763      3.637
REMARK  2 active torsions:
REMARK  status: ('A' for Active; 'I' for Inactive)
REMARK    1  A    between atoms: C8_8  and  C9_9 
REMARK    2  A    between atoms: C9_9  and  O1_10 
ROOT
HETATM    1  C1  UNL     1      14.835  77.175   6.765  1.00  0.00     0.039 C 
HETATM    2  C2  UNL     1      16.307  77.323   6.455  1.00  0.00     0.118 C 
HETATM    3  C3  UNL     1      16.733  76.154   5.582  1.00  0.00     0.032 C 
HETATM    4  C4  UNL     1      17.248  75.088   6.463  1.00  0.00     0.006 C 
HETATM    5  C5  UNL     1      17.047  75.348   7.936  1.00  0.00     0.038 C 
HETATM    6  C6  UNL     1      17.562  76.690   8.372  1.00  0.00     0.062 C 
HETATM    7  C7  UNL     1      17.000  77.146   9.678  1.00  0.00     0.045 C 
HETATM    8  C8  UNL     1      17.599  76.751  10.929  1.00  0.00     0.017 C 
HETATM    9  C10 UNL     1      19.033  76.489  11.065  1.00  0.00     0.001 C 
HETATM   10  C11 UNL     1      19.967  77.596  10.673  1.00  0.00     0.006 C 
HETATM   11  C12 UNL     1      20.947  76.981   9.654  1.00  0.00     0.006 C 
HETATM   12  C13 UNL     1      19.947  75.966   9.029  1.00  0.00    -0.003 C 
HETATM   13  C14 UNL     1      19.042  76.772   8.234  1.00  0.00     0.043 C 
HETATM   14  C15 UNL     1      19.558  75.320  10.285  1.00  0.00    -0.033 A 
HETATM   15  C16 UNL     1      20.815  74.681  10.976  1.00  0.00     0.011 A 
HETATM   16  C17 UNL     1      19.587  73.961  10.714  1.00  0.00     0.011 A 
HETATM   17  O2  UNL     1      17.106  77.649   7.454  1.00  0.00    -0.375 OA
ENDROOT
BRANCH   8  18
HETATM   18  C9  UNL     1      16.887  75.501  11.494  1.00  0.00     0.169 C 
BRANCH  18  19
HETATM   19  O1  UNL     1      15.517  75.755  11.433  1.00  0.00    -0.400 OA
ATOM     20  H1  UNL     1      15.146  75.465  12.259  1.00  0.00     0.209 HD
ENDBRANCH  18  19
ENDBRANCH   8  18
TORSDOF 2
ENDMDL
MODEL 3
REMARK VINA RESULT: -7.854210653      1.840      4.976
REMARK  2 active torsions:
REMARK  status: ('A' for Active; 'I' for Inactive)
REMARK    1  A    between atoms: C8_8  and  C9_9 
REMARK    2  A    between atoms: C9_9  and  O1_10 
ROOT
HETATM    1  C1  UNL     1      21.021  77.969  10.340  1.00  0.00     0.039 C 
HETATM    2  C2  UNL     1      19.877  77.389  11.140  1.00  0.00     0.118 C 
HETATM    3  C3  UNL     1      20.252  75.975  11.555  1.00  0.00     0.032 C 
HETATM    4  C4  UNL     1      19.725  75.045  10.539  1.00  0.00     0.006 C 
HETATM    5  C5  UNL     1      19.151  75.719   9.317  1.00  0.00     0.038 C 
HETATM    6  C6  UNL     1      18.132  76.772   9.649  1.00  0.00     0.062 C 
HETATM    7  C7  UNL     1      17.882  77.732   8.533  1.00  0.00     0.045 C 
HETATM    8  C8  UNL     1      16.922  77.439   7.496  1.00  0.00     0.017 C 
HETATM    9  C10 UNL     1      15.727  76.629   7.739  1.00  0.00     0.001 C 
HETATM   10  C11 UNL     1      14.799  77.093   8.822  1.00  0.00     0.006 C 
HETATM   11  C12 UNL     1      14.612  75.887   9.764  1.00  0.00     0.006 C 
HETATM   12  C13 UNL     1      16.031  75.281   9.568  1.00  0.00    -0.003 C 
HETATM   13  C14 UNL     1      16.922  76.173  10.280  1.00  0.00     0.043 C 
HETATM   14  C15 UNL     1      15.976  75.196   8.106  1.00  0.00    -0.033 A 
HETATM   15  C16 UNL     1      14.786  74.271   7.663  1.00  0.00     0.011 A 
HETATM   16  C17 UNL     1      16.147  74.108   7.201  1.00  0.00     0.011 A 
HETATM   17  O2  UNL     1      18.656  77.575  10.674  1.00  0.00    -0.375 OA
ENDROOT
BRANCH   8  18
HETATM   18  C9  UNL     1      17.627  76.798   6.279  1.00  0.00     0.169 C 
BRANCH  18  19
HETATM   19  O1  UNL     1      17.136  77.441   5.143  1.00  0.00    -0.400 OA
ATOM     20  H1  UNL     1      16.798  76.765   4.568  1.00  0.00     0.209 HD
ENDBRANCH  18  19
ENDBRANCH   8  18
TORSDOF 2
ENDMDL
MODEL 4
REMARK VINA RESULT: -7.817755780      1.850      5.192
REMARK  2 active torsions:
REMARK  status: ('A' for Active; 'I' for Inactive)
REMARK    1  A    between atoms: C8_8  and  C9_9 
REMARK    2  A    between atoms: C9_9  and  O1_10 
ROOT
HETATM    1  C1  UNL     1      19.940  75.825  10.992  1.00  0.00     0.039 C 
HETATM    2  C2  UNL     1      18.726  76.719  11.103  1.00  0.00     0.118 C 
HETATM    3  C3  UNL     1      17.841  76.188  12.219  1.00  0.00     0.032 C 
HETATM    4  C4  UNL     1      16.846  75.278  11.621  1.00  0.00     0.006 C 
HETATM    5  C5  UNL     1      17.077  74.977  10.161  1.00  0.00     0.038 C 
HETATM    6  C6  UNL     1      17.234  76.214   9.323  1.00  0.00     0.062 C 
HETATM    7  C7  UNL     1      17.885  75.959   8.003  1.00  0.00     0.045 C 
HETATM    8  C8  UNL     1      17.113  75.543   6.857  1.00  0.00     0.017 C 
HETATM    9  C10 UNL     1      15.720  75.947   6.660  1.00  0.00     0.001 C 
HETATM   10  C11 UNL     1      15.435  77.419   6.638  1.00  0.00     0.006 C 
HETATM   11  C12 UNL     1      14.329  77.652   7.686  1.00  0.00     0.006 C 
HETATM   12  C13 UNL     1      14.762  76.520   8.662  1.00  0.00    -0.003 C 
HETATM   13  C14 UNL     1      15.974  77.007   9.287  1.00  0.00     0.043 C 
HETATM   14  C15 UNL     1      14.744  75.435   7.677  1.00  0.00    -0.033 A 
HETATM   15  C16 UNL     1      13.303  75.280   7.069  1.00  0.00     0.011 A 
HETATM   16  C17 UNL     1      14.059  74.185   7.639  1.00  0.00     0.011 A 
HETATM   17  O2  UNL     1      18.129  77.073   9.980  1.00  0.00    -0.375 OA
ENDROOT
BRANCH   8  18
HETATM   18  C9  UNL     1      17.128  74.002   6.731  1.00  0.00     0.169 C 
BRANCH  18  19
HETATM   19  O1  UNL     1      17.888  73.696   5.603  1.00  0.00    -0.400 OA
ATOM     20  H1  UNL     1      17.440  72.990   5.152  1.00  0.00     0.209 HD
ENDBRANCH  18  19
ENDBRANCH   8  18
TORSDOF 2
ENDMDL
MODEL 5
REMARK VINA RESULT: -7.540466695      1.714      5.236
REMARK  2 active torsions:
REMARK  status: ('A' for Active; 'I' for Inactive)
REMARK    1  A    between atoms: C8_8  and  C9_9 
REMARK    2  A    between atoms: C9_9  and  O1_10 
ROOT
HETATM    1  C1  UNL     1      20.941  75.391  10.340  1.00  0.00     0.039 C 
HETATM    2  C2  UNL     1      20.789  76.502   9.327  1.00  0.00     0.118 C 
HETATM    3  C3  UNL     1      20.532  77.800  10.075  1.00  0.00     0.032 C 
HETATM    4  C4  UNL     1      19.073  77.989  10.178  1.00  0.00     0.006 C 
HETATM    5  C5  UNL     1      18.258  76.808   9.709  1.00  0.00     0.038 C 
HETATM    6  C6  UNL     1      18.636  76.343   8.331  1.00  0.00     0.062 C 
HETATM    7  C7  UNL     1      18.179  74.955   8.026  1.00  0.00     0.045 C 
HETATM    8  C8  UNL     1      16.854  74.700   7.514  1.00  0.00     0.017 C 
HETATM    9  C10 UNL     1      16.140  75.660   6.671  1.00  0.00     0.001 C 
HETATM   10  C11 UNL     1      16.822  76.096   5.409  1.00  0.00     0.006 C 
HETATM   11  C12 UNL     1      16.844  77.636   5.449  1.00  0.00     0.006 C 
HETATM   12  C13 UNL     1      16.960  77.775   6.995  1.00  0.00    -0.003 C 
HETATM   13  C14 UNL     1      18.318  77.376   7.306  1.00  0.00     0.043 C 
HETATM   14  C15 UNL     1      15.787  76.963   7.324  1.00  0.00    -0.033 A 
HETATM   15  C16 UNL     1      14.496  77.596   6.691  1.00  0.00     0.011 A 
HETATM   16  C17 UNL     1      14.614  77.236   8.087  1.00  0.00     0.011 A 
HETATM   17  O2  UNL     1      20.036  76.259   8.270  1.00  0.00    -0.375 OA
ENDROOT
BRANCH   8  18
HETATM   18  C9  UNL     1      15.889  74.354   8.671  1.00  0.00     0.169 C 
BRANCH  18  19
HETATM   19  O1  UNL     1      16.669  73.846   9.710  1.00  0.00    -0.400 OA
ATOM     20  H1  UNL     1      16.124  73.233  10.189  1.00  0.00     0.209 HD
ENDBRANCH  18  19
ENDBRANCH   8  18
TORSDOF 2
ENDMDL
