MODEL 1
REMARK VINA RESULT: -9.277175532      0.000      0.000
REMARK  11 active torsions:
REMARK  status: ('A' for Active; 'I' for Inactive)
REMARK    1  A    between atoms: C2_2  and  C3_3 
REMARK    2  A    between atoms: C3_3  and  C4_4 
REMARK    3  A    between atoms: C4_4  and  C5_5 
REMARK    4  A    between atoms: C8_8  and  C9_9 
REMARK    5  A    between atoms: C14_14  and  C15_15 
REMARK    6  A    between atoms: C15_15  and  O1_16 
REMARK    7  A    between atoms: C15_15  and  N1_18 
REMARK    8  A    between atoms: C19_23  and  C20_24 
REMARK    9  A    between atoms: C20_24  and  C21_25 
REMARK   10  A    between atoms: C21_25  and  C22_26 
REMARK   11  A    between atoms: C22_26  and  N2_27 
REMARK       I    between atoms: N2_27  and  C23_29 
ROOT
HETATM    1  N1  UNL     1       3.051  -4.060  15.557  1.00  0.00    -0.310 N 
HETATM    2  C16 UNL     1       3.185  -3.894  17.025  1.00  0.00     0.138 C 
HETATM    3  C17 UNL     1       3.505  -5.117  17.764  1.00  0.00     0.090 C 
HETATM    4  C18 UNL     1       4.084  -6.282  17.038  1.00  0.00     0.210 C 
HETATM    5  O2  UNL     1       5.429  -6.296  16.871  1.00  0.00    -0.338 OA
HETATM    6  C19 UNL     1       6.001  -7.268  17.658  1.00  0.00     0.217 C 
HETATM    7  C24 UNL     1       4.906  -8.082  18.229  1.00  0.00     0.251 C 
HETATM    8  O3  UNL     1       5.034  -9.109  18.959  1.00  0.00    -0.270 OA
HETATM    9  N5  UNL     1       3.710  -7.472  17.784  1.00  0.00    -0.315 N 
HETATM   10  C25 UNL     1       2.367  -7.903  18.000  1.00  0.00     0.156 C 
HETATM   11  C26 UNL     1       3.437  -6.464  15.687  1.00  0.00     0.248 C 
HETATM   12  O4  UNL     1       3.578  -7.520  15.087  1.00  0.00    -0.284 OA
HETATM   13  C27 UNL     1       2.651  -5.351  15.138  1.00  0.00     0.155 C 
HETATM   14  N6  UNL     1       1.651  -5.580  14.378  1.00  0.00    -0.382 N 
ATOM     15  H61 UNL     1       1.363  -6.511  14.076  1.00  0.00     0.157 HD
ATOM     16  H62 UNL     1       1.106  -4.807  13.996  1.00  0.00     0.157 HD
ENDROOT
BRANCH   1  17
HETATM   17  C15 UNL     1       3.190  -2.963  14.715  1.00  0.00     0.154 C 
BRANCH  17  18
HETATM   18  C14 UNL     1       4.352  -2.365  14.111  1.00  0.00     0.017 A 
HETATM   19  C13 UNL     1       5.485  -3.072  13.825  1.00  0.00     0.017 A 
HETATM   20  C12 UNL     1       6.541  -2.454  13.154  1.00  0.00     0.015 A 
HETATM   21  C11 UNL     1       6.473  -1.135  12.768  1.00  0.00    -0.007 A 
HETATM   22  C10 UNL     1       7.314  -0.264  12.109  1.00  0.00     0.044 A 
HETATM   23  C29 UNL     1       5.343  -0.399  13.048  1.00  0.00     0.043 A 
HETATM   24  C9  UNL     1       6.720   0.970  11.984  1.00  0.00     0.043 A 
HETATM   25  N7  UNL     1       5.519   0.866  12.564  1.00  0.00    -0.355 N 
ATOM     26  H7  UNL     1       4.836   1.619  12.633  1.00  0.00     0.166 HD
HETATM   27  C28 UNL     1       4.308  -1.012  13.707  1.00  0.00     0.046 A 
BRANCH  24  28
HETATM   28  C8  UNL     1       7.297   2.159  11.332  1.00  0.00    -0.009 A 
HETATM   29  C7  UNL     1       7.850   2.054  10.076  1.00  0.00     0.014 A 
HETATM   30  C6  UNL     1       8.393   3.150   9.439  1.00  0.00     0.008 A 
HETATM   31  C5  UNL     1       8.408   4.405  10.029  1.00  0.00    -0.058 A 
HETATM   32  C31 UNL     1       7.853   4.512  11.286  1.00  0.00     0.008 A 
HETATM   33  C30 UNL     1       7.309   3.401  11.921  1.00  0.00     0.014 A 
BRANCH  31  34
HETATM   34  C4  UNL     1       9.005   5.574   9.324  1.00  0.00     0.038 C 
BRANCH  34  35
HETATM   35  C3  UNL     1       9.770   5.090   8.124  1.00  0.00     0.004 C 
BRANCH  35  36
HETATM   36  C2  UNL     1      11.023   5.946   7.953  1.00  0.00    -0.004 C 
HETATM   37  C1  UNL     1      10.953   7.094   8.936  1.00  0.00     0.005 C 
ENDBRANCH  35  36
ENDBRANCH  34  35
ENDBRANCH  31  34
ENDBRANCH  24  28
ENDBRANCH  17  18
BRANCH  17  38
HETATM   38  O1  UNL     1       2.080  -2.341  14.402  1.00  0.00    -0.345 OA
ATOM     39  H1  UNL     1       1.854  -1.658  15.022  1.00  0.00     0.219 HD
ENDBRANCH  17  38
ENDBRANCH   1  17
BRANCH   6  40
HETATM   40  C20 UNL     1       6.878  -6.619  18.684  1.00  0.00     0.043 C 
BRANCH  40  41
HETATM   41  C21 UNL     1       8.329  -7.015  18.583  1.00  0.00     0.023 C 
BRANCH  41  42
HETATM   42  C22 UNL     1       9.189  -6.046  17.847  1.00  0.00     0.122 C 
BRANCH  42  43
HETATM   43  N2  UNL     1       8.416  -4.933  17.353  1.00  0.00    -0.365 N 
HETATM   44  C23 UNL     1       8.477  -4.641  15.965  1.00  0.00     0.181 C 
HETATM   45  N3  UNL     1       8.007  -5.514  15.144  1.00  0.00    -0.374 N 
HETATM   46  N4  UNL     1       9.025  -3.443  15.442  1.00  0.00    -0.064 NA
ATOM     47  H32 UNL     1       7.613  -6.376  15.521  1.00  0.00     0.158 HD
ATOM     48  H31 UNL     1       8.051  -5.304  14.147  1.00  0.00     0.158 HD
ATOM     49  H2  UNL     1       7.842  -4.373  17.982  1.00  0.00     0.162 HD
ENDBRANCH  42  43
ENDBRANCH  41  42
ENDBRANCH  40  41
ENDBRANCH   6  40
TORSDOF 11
ENDMDL
MODEL 2
REMARK VINA RESULT: -8.867035094      4.376      5.862
REMARK  11 active torsions:
REMARK  status: ('A' for Active; 'I' for Inactive)
REMARK    1  A    between atoms: C2_2  and  C3_3 
REMARK    2  A    between atoms: C3_3  and  C4_4 
REMARK    3  A    between atoms: C4_4  and  C5_5 
REMARK    4  A    between atoms: C8_8  and  C9_9 
REMARK    5  A    between atoms: C14_14  and  C15_15 
REMARK    6  A    between atoms: C15_15  and  O1_16 
REMARK    7  A    between atoms: C15_15  and  N1_18 
REMARK    8  A    between atoms: C19_23  and  C20_24 
REMARK    9  A    between atoms: C20_24  and  C21_25 
REMARK   10  A    between atoms: C21_25  and  C22_26 
REMARK   11  A    between atoms: C22_26  and  N2_27 
REMARK       I    between atoms: N2_27  and  C23_29 
ROOT
HETATM    1  N1  UNL     1       4.102  -1.720  14.555  1.00  0.00    -0.310 N 
HETATM    2  C16 UNL     1       4.669  -2.834  13.755  1.00  0.00     0.138 C 
HETATM    3  C17 UNL     1       5.902  -3.418  14.287  1.00  0.00     0.090 C 
HETATM    4  C18 UNL     1       6.260  -3.201  15.717  1.00  0.00     0.210 C 
HETATM    5  O2  UNL     1       5.726  -4.060  16.621  1.00  0.00    -0.338 OA
HETATM    6  C19 UNL     1       6.700  -4.889  17.126  1.00  0.00     0.217 C 
HETATM    7  C24 UNL     1       8.007  -4.385  16.654  1.00  0.00     0.251 C 
HETATM    8  O3  UNL     1       9.147  -4.848  16.957  1.00  0.00    -0.270 OA
HETATM    9  N5  UNL     1       7.707  -3.292  15.808  1.00  0.00    -0.315 N 
HETATM   10  C25 UNL     1       8.616  -2.413  15.146  1.00  0.00     0.156 C 
HETATM   11  C26 UNL     1       5.940  -1.794  16.156  1.00  0.00     0.248 C 
HETATM   12  O4  UNL     1       6.424  -1.359  17.191  1.00  0.00    -0.284 OA
HETATM   13  C27 UNL     1       5.048  -0.988  15.310  1.00  0.00     0.155 C 
HETATM   14  N6  UNL     1       5.186   0.280  15.251  1.00  0.00    -0.382 N 
ATOM     15  H61 UNL     1       5.869   0.807  15.796  1.00  0.00     0.157 HD
ATOM     16  H62 UNL     1       4.567   0.839  14.664  1.00  0.00     0.157 HD
ENDROOT
BRANCH   1  17
HETATM   17  C15 UNL     1       2.760  -1.384  14.428  1.00  0.00     0.154 C 
BRANCH  17  18
HETATM   18  C14 UNL     1       2.063  -0.594  13.446  1.00  0.00     0.017 A 
HETATM   19  C13 UNL     1       0.706  -0.441  13.446  1.00  0.00     0.017 A 
HETATM   20  C12 UNL     1       0.101   0.413  12.522  1.00  0.00     0.015 A 
HETATM   21  C11 UNL     1       0.843   1.112  11.598  1.00  0.00    -0.007 A 
HETATM   22  C10 UNL     1       0.557   2.008  10.590  1.00  0.00     0.044 A 
HETATM   23  C29 UNL     1       2.214   0.972  11.575  1.00  0.00     0.043 A 
HETATM   24  C9  UNL     1       1.715   2.409   9.965  1.00  0.00     0.043 A 
HETATM   25  N7  UNL     1       2.713   1.765  10.582  1.00  0.00    -0.355 N 
ATOM     26  H7  UNL     1       3.700   1.854  10.345  1.00  0.00     0.166 HD
HETATM   27  C28 UNL     1       2.802   0.132  12.486  1.00  0.00     0.046 A 
BRANCH  24  28
HETATM   28  C8  UNL     1       1.824   3.363   8.848  1.00  0.00    -0.009 A 
HETATM   29  C7  UNL     1       2.929   4.178   8.746  1.00  0.00     0.014 A 
HETATM   30  C6  UNL     1       3.061   5.078   7.709  1.00  0.00     0.008 A 
HETATM   31  C5  UNL     1       2.094   5.206   6.725  1.00  0.00    -0.058 A 
HETATM   32  C31 UNL     1       0.988   4.390   6.825  1.00  0.00     0.008 A 
HETATM   33  C30 UNL     1       0.863   3.486   7.874  1.00  0.00     0.014 A 
BRANCH  31  34
HETATM   34  C4  UNL     1       2.255   6.189   5.616  1.00  0.00     0.038 C 
BRANCH  34  35
HETATM   35  C3  UNL     1       1.074   7.120   5.607  1.00  0.00     0.004 C 
BRANCH  35  36
HETATM   36  C2  UNL     1       1.202   8.098   6.771  1.00  0.00    -0.004 C 
HETATM   37  C1  UNL     1       2.516   8.836   6.632  1.00  0.00     0.005 C 
ENDBRANCH  35  36
ENDBRANCH  34  35
ENDBRANCH  31  34
ENDBRANCH  24  28
ENDBRANCH  17  18
BRANCH  17  38
HETATM   38  O1  UNL     1       1.964  -1.854  15.357  1.00  0.00    -0.345 OA
ATOM     39  H1  UNL     1       2.434  -2.305  16.049  1.00  0.00     0.219 HD
ENDBRANCH  17  38
ENDBRANCH   1  17
BRANCH   6  40
HETATM   40  C20 UNL     1       6.406  -6.301  16.719  1.00  0.00     0.043 C 
BRANCH  40  41
HETATM   41  C21 UNL     1       5.271  -6.931  17.484  1.00  0.00     0.023 C 
BRANCH  41  42
HETATM   42  C22 UNL     1       4.099  -7.319  16.649  1.00  0.00     0.122 C 
BRANCH  42  43
HETATM   43  N2  UNL     1       4.040  -6.540  15.438  1.00  0.00    -0.365 N 
HETATM   44  C23 UNL     1       2.910  -5.704  15.233  1.00  0.00     0.181 C 
HETATM   45  N3  UNL     1       2.735  -4.719  16.043  1.00  0.00    -0.374 N 
HETATM   46  N4  UNL     1       1.972  -5.901  14.189  1.00  0.00    -0.064 NA
ATOM     47  H32 UNL     1       3.410  -4.578  16.794  1.00  0.00     0.158 HD
ATOM     48  H31 UNL     1       1.923  -4.119  15.896  1.00  0.00     0.158 HD
ATOM     49  H2  UNL     1       4.789  -6.586  14.747  1.00  0.00     0.162 HD
ENDBRANCH  42  43
ENDBRANCH  41  42
ENDBRANCH  40  41
ENDBRANCH   6  40
TORSDOF 11
ENDMDL
MODEL 3
REMARK VINA RESULT: -8.859264009      3.905     12.254
REMARK  11 active torsions:
REMARK  status: ('A' for Active; 'I' for Inactive)
REMARK    1  A    between atoms: C2_2  and  C3_3 
REMARK    2  A    between atoms: C3_3  and  C4_4 
REMARK    3  A    between atoms: C4_4  and  C5_5 
REMARK    4  A    between atoms: C8_8  and  C9_9 
REMARK    5  A    between atoms: C14_14  and  C15_15 
REMARK    6  A    between atoms: C15_15  and  O1_16 
REMARK    7  A    between atoms: C15_15  and  N1_18 
REMARK    8  A    between atoms: C19_23  and  C20_24 
REMARK    9  A    between atoms: C20_24  and  C21_25 
REMARK   10  A    between atoms: C21_25  and  C22_26 
REMARK   11  A    between atoms: C22_26  and  N2_27 
REMARK       I    between atoms: N2_27  and  C23_29 
ROOT
HETATM    1  N1  UNL     1       7.256   2.064  12.142  1.00  0.00    -0.310 N 
HETATM    2  C16 UNL     1       7.063   3.532  12.047  1.00  0.00     0.138 C 
HETATM    3  C17 UNL     1       7.026   4.068  10.685  1.00  0.00     0.090 C 
HETATM    4  C18 UNL     1       6.748   3.153   9.543  1.00  0.00     0.210 C 
HETATM    5  O2  UNL     1       5.445   2.917   9.248  1.00  0.00    -0.338 OA
HETATM    6  C19 UNL     1       5.104   3.525   8.063  1.00  0.00     0.217 C 
HETATM    7  C24 UNL     1       6.350   4.027   7.443  1.00  0.00     0.251 C 
HETATM    8  O3  UNL     1       6.454   4.594   6.315  1.00  0.00    -0.270 OA
HETATM    9  N5  UNL     1       7.377   3.737   8.371  1.00  0.00    -0.315 N 
HETATM   10  C25 UNL     1       8.780   3.957   8.231  1.00  0.00     0.156 C 
HETATM   11  C26 UNL     1       7.440   1.825   9.722  1.00  0.00     0.248 C 
HETATM   12  O4  UNL     1       7.560   1.072   8.766  1.00  0.00    -0.284 OA
HETATM   13  C27 UNL     1       7.953   1.483  11.056  1.00  0.00     0.155 C 
HETATM   14  N6  UNL     1       8.991   0.750  11.181  1.00  0.00    -0.382 N 
ATOM     15  H61 UNL     1       9.494   0.332  10.398  1.00  0.00     0.157 HD
ATOM     16  H62 UNL     1       9.346   0.513  12.107  1.00  0.00     0.157 HD
ENDROOT
BRANCH   1  17
HETATM   17  C15 UNL     1       6.878   1.384  13.294  1.00  0.00     0.154 C 
BRANCH  17  18
HETATM   18  C14 UNL     1       5.787   0.480  13.554  1.00  0.00     0.017 A 
HETATM   19  C13 UNL     1       4.528   0.678  13.063  1.00  0.00     0.017 A 
HETATM   20  C12 UNL     1       3.539  -0.283  13.274  1.00  0.00     0.015 A 
HETATM   21  C11 UNL     1       3.799  -1.440  13.972  1.00  0.00    -0.007 A 
HETATM   22  C10 UNL     1       3.066  -2.550  14.334  1.00  0.00     0.044 A 
HETATM   23  C29 UNL     1       5.061  -1.662  14.480  1.00  0.00     0.043 A 
HETATM   24  C9  UNL     1       3.851  -3.430  15.043  1.00  0.00     0.043 A 
HETATM   25  N7  UNL     1       5.063  -2.869  15.119  1.00  0.00    -0.355 N 
ATOM     26  H7  UNL     1       5.869  -3.281  15.587  1.00  0.00     0.166 HD
HETATM   27  C28 UNL     1       6.028  -0.714  14.269  1.00  0.00     0.046 A 
BRANCH  24  28
HETATM   28  C8  UNL     1       3.433  -4.731  15.593  1.00  0.00    -0.009 A 
HETATM   29  C7  UNL     1       3.961  -5.176  16.784  1.00  0.00     0.014 A 
HETATM   30  C6  UNL     1       3.585  -6.387  17.325  1.00  0.00     0.008 A 
HETATM   31  C5  UNL     1       2.662  -7.211  16.702  1.00  0.00    -0.058 A 
HETATM   32  C31 UNL     1       2.131  -6.767  15.510  1.00  0.00     0.008 A 
HETATM   33  C30 UNL     1       2.516  -5.544  14.971  1.00  0.00     0.014 A 
BRANCH  31  34
HETATM   34  C4  UNL     1       2.275  -8.519  17.303  1.00  0.00     0.038 C 
BRANCH  34  35
HETATM   35  C3  UNL     1       2.788  -8.585  18.714  1.00  0.00     0.004 C 
BRANCH  35  36
HETATM   36  C2  UNL     1       1.609  -8.475  19.678  1.00  0.00    -0.004 C 
HETATM   37  C1  UNL     1       1.688  -7.134  20.375  1.00  0.00     0.005 C 
ENDBRANCH  35  36
ENDBRANCH  34  35
ENDBRANCH  31  34
ENDBRANCH  24  28
ENDBRANCH  17  18
BRANCH  17  38
HETATM   38  O1  UNL     1       7.631   1.585  14.347  1.00  0.00    -0.345 OA
ATOM     39  H1  UNL     1       8.260   2.285  14.220  1.00  0.00     0.219 HD
ENDBRANCH  17  38
ENDBRANCH   1  17
BRANCH   6  40
HETATM   40  C20 UNL     1       4.083   4.588   8.329  1.00  0.00     0.043 C 
BRANCH  40  41
HETATM   41  C21 UNL     1       2.804   4.412   7.552  1.00  0.00     0.023 C 
BRANCH  41  42
HETATM   42  C22 UNL     1       1.627   4.010   8.374  1.00  0.00     0.122 C 
BRANCH  42  43
HETATM   43  N2  UNL     1       1.858   4.263   9.774  1.00  0.00    -0.365 N 
HETATM   44  C23 UNL     1       1.743   3.175  10.679  1.00  0.00     0.181 C 
HETATM   45  N3  UNL     1       2.586   2.208  10.570  1.00  0.00    -0.374 N 
HETATM   46  N4  UNL     1       0.751   3.100  11.689  1.00  0.00    -0.064 NA
ATOM     47  H32 UNL     1       3.300   2.263   9.842  1.00  0.00     0.158 HD
ATOM     48  H31 UNL     1       2.503   1.427  11.219  1.00  0.00     0.158 HD
ATOM     49  H2  UNL     1       2.098   5.197  10.106  1.00  0.00     0.162 HD
ENDBRANCH  42  43
ENDBRANCH  41  42
ENDBRANCH  40  41
ENDBRANCH   6  40
TORSDOF 11
ENDMDL
MODEL 4
REMARK VINA RESULT: -8.831439236      1.542      2.041
REMARK  11 active torsions:
REMARK  status: ('A' for Active; 'I' for Inactive)
REMARK    1  A    between atoms: C2_2  and  C3_3 
REMARK    2  A    between atoms: C3_3  and  C4_4 
REMARK    3  A    between atoms: C4_4  and  C5_5 
REMARK    4  A    between atoms: C8_8  and  C9_9 
REMARK    5  A    between atoms: C14_14  and  C15_15 
REMARK    6  A    between atoms: C15_15  and  O1_16 
REMARK    7  A    between atoms: C15_15  and  N1_18 
REMARK    8  A    between atoms: C19_23  and  C20_24 
REMARK    9  A    between atoms: C20_24  and  C21_25 
REMARK   10  A    between atoms: C21_25  and  C22_26 
REMARK   11  A    between atoms: C22_26  and  N2_27 
REMARK       I    between atoms: N2_27  and  C23_29 
ROOT
HETATM    1  N1  UNL     1       3.484  -4.818  16.949  1.00  0.00    -0.310 N 
HETATM    2  C16 UNL     1       3.467  -5.354  18.332  1.00  0.00     0.138 C 
HETATM    3  C17 UNL     1       3.426  -6.814  18.434  1.00  0.00     0.090 C 
HETATM    4  C18 UNL     1       3.827  -7.643  17.263  1.00  0.00     0.210 C 
HETATM    5  O2  UNL     1       5.149  -7.913  17.126  1.00  0.00    -0.338 OA
HETATM    6  C19 UNL     1       5.398  -9.239  17.389  1.00  0.00     0.217 C 
HETATM    7  C24 UNL     1       4.093  -9.924  17.511  1.00  0.00     0.251 C 
HETATM    8  O3  UNL     1       3.907 -11.164  17.693  1.00  0.00    -0.270 OA
HETATM    9  N5  UNL     1       3.119  -8.907  17.379  1.00  0.00    -0.315 N 
HETATM   10  C25 UNL     1       1.698  -9.043  17.356  1.00  0.00     0.156 C 
HETATM   11  C26 UNL     1       3.329  -7.046  15.971  1.00  0.00     0.248 C 
HETATM   12  O4  UNL     1       3.315  -7.728  14.956  1.00  0.00    -0.284 OA
HETATM   13  C27 UNL     1       2.873  -5.650  15.981  1.00  0.00     0.155 C 
HETATM   14  N6  UNL     1       1.949  -5.266  15.188  1.00  0.00    -0.382 N 
ATOM     15  H61 UNL     1       1.509  -5.866  14.490  1.00  0.00     0.157 HD
ATOM     16  H62 UNL     1       1.633  -4.297  15.194  1.00  0.00     0.157 HD
ENDROOT
BRANCH   1  17
HETATM   17  C15 UNL     1       3.957  -3.534  16.704  1.00  0.00     0.154 C 
BRANCH  17  18
HETATM   18  C14 UNL     1       4.924  -3.038  15.759  1.00  0.00     0.017 A 
HETATM   19  C13 UNL     1       5.878  -3.832  15.189  1.00  0.00     0.017 A 
HETATM   20  C12 UNL     1       6.726  -3.310  14.211  1.00  0.00     0.015 A 
HETATM   21  C11 UNL     1       6.627  -2.000  13.801  1.00  0.00    -0.007 A 
HETATM   22  C10 UNL     1       7.288  -1.210  12.885  1.00  0.00     0.044 A 
HETATM   23  C29 UNL     1       5.675  -1.177  14.363  1.00  0.00     0.043 A 
HETATM   24  C9  UNL     1       6.760   0.060  12.880  1.00  0.00     0.043 A 
HETATM   25  N7  UNL     1       5.778   0.057  13.789  1.00  0.00    -0.355 N 
ATOM     26  H7  UNL     1       5.192   0.860  14.019  1.00  0.00     0.166 HD
HETATM   27  C28 UNL     1       4.845  -1.697  15.323  1.00  0.00     0.046 A 
BRANCH  24  28
HETATM   28  C8  UNL     1       7.190   1.186  12.034  1.00  0.00    -0.009 A 
HETATM   29  C7  UNL     1       7.270   2.454  12.565  1.00  0.00     0.014 A 
HETATM   30  C6  UNL     1       7.674   3.527  11.798  1.00  0.00     0.008 A 
HETATM   31  C5  UNL     1       8.017   3.382  10.463  1.00  0.00    -0.058 A 
HETATM   32  C31 UNL     1       7.939   2.114   9.930  1.00  0.00     0.008 A 
HETATM   33  C30 UNL     1       7.530   1.038  10.711  1.00  0.00     0.014 A 
BRANCH  31  34
HETATM   34  C4  UNL     1       8.446   4.557   9.652  1.00  0.00     0.038 C 
BRANCH  34  35
HETATM   35  C3  UNL     1       8.638   4.128   8.224  1.00  0.00     0.004 C 
BRANCH  35  36
HETATM   36  C2  UNL     1       9.537   5.140   7.517  1.00  0.00    -0.004 C 
HETATM   37  C1  UNL     1      10.251   5.960   8.569  1.00  0.00     0.005 C 
ENDBRANCH  35  36
ENDBRANCH  34  35
ENDBRANCH  31  34
ENDBRANCH  24  28
ENDBRANCH  17  18
BRANCH  17  38
HETATM   38  O1  UNL     1       3.450  -2.587  17.454  1.00  0.00    -0.345 OA
ATOM     39  H1  UNL     1       3.969  -2.415  18.230  1.00  0.00     0.219 HD
ENDBRANCH  17  38
ENDBRANCH   1  17
BRANCH   6  40
HETATM   40  C20 UNL     1       6.260  -9.347  18.610  1.00  0.00     0.043 C 
BRANCH  40  41
HETATM   41  C21 UNL     1       7.680  -9.759  18.318  1.00  0.00     0.023 C 
BRANCH  41  42
HETATM   42  C22 UNL     1       8.538  -8.678  17.756  1.00  0.00     0.122 C 
BRANCH  42  43
HETATM   43  N2  UNL     1       8.761  -7.632  18.723  1.00  0.00    -0.365 N 
HETATM   44  C23 UNL     1       8.573  -6.287  18.309  1.00  0.00     0.181 C 
HETATM   45  N3  UNL     1       7.385  -5.920  17.976  1.00  0.00    -0.374 N 
HETATM   46  N4  UNL     1       9.621  -5.335  18.245  1.00  0.00    -0.064 NA
ATOM     47  H32 UNL     1       6.631  -6.605  18.022  1.00  0.00     0.158 HD
ATOM     48  H31 UNL     1       7.250  -4.953  17.679  1.00  0.00     0.158 HD
ATOM     49  H2  UNL     1       9.045  -7.852  19.677  1.00  0.00     0.162 HD
ENDBRANCH  42  43
ENDBRANCH  41  42
ENDBRANCH  40  41
ENDBRANCH   6  40
TORSDOF 11
ENDMDL
MODEL 5
REMARK VINA RESULT: -8.794772911      1.423      1.792
REMARK  11 active torsions:
REMARK  status: ('A' for Active; 'I' for Inactive)
REMARK    1  A    between atoms: C2_2  and  C3_3 
REMARK    2  A    between atoms: C3_3  and  C4_4 
REMARK    3  A    between atoms: C4_4  and  C5_5 
REMARK    4  A    between atoms: C8_8  and  C9_9 
REMARK    5  A    between atoms: C14_14  and  C15_15 
REMARK    6  A    between atoms: C15_15  and  O1_16 
REMARK    7  A    between atoms: C15_15  and  N1_18 
REMARK    8  A    between atoms: C19_23  and  C20_24 
REMARK    9  A    between atoms: C20_24  and  C21_25 
REMARK   10  A    between atoms: C21_25  and  C22_26 
REMARK   11  A    between atoms: C22_26  and  N2_27 
REMARK       I    between atoms: N2_27  and  C23_29 
ROOT
HETATM    1  N1  UNL     1       3.119  -3.926  15.489  1.00  0.00    -0.310 N 
HETATM    2  C16 UNL     1       3.247  -3.746  16.956  1.00  0.00     0.138 C 
HETATM    3  C17 UNL     1       3.568  -4.963  17.706  1.00  0.00     0.090 C 
HETATM    4  C18 UNL     1       4.152  -6.133  16.992  1.00  0.00     0.210 C 
HETATM    5  O2  UNL     1       5.498  -6.144  16.829  1.00  0.00    -0.338 OA
HETATM    6  C19 UNL     1       6.069  -7.108  17.627  1.00  0.00     0.217 C 
HETATM    7  C24 UNL     1       4.975  -7.920  18.202  1.00  0.00     0.251 C 
HETATM    8  O3  UNL     1       5.102  -8.940  18.942  1.00  0.00    -0.270 OA
HETATM    9  N5  UNL     1       3.779  -7.316  17.748  1.00  0.00    -0.315 N 
HETATM   10  C25 UNL     1       2.435  -7.749  17.963  1.00  0.00     0.156 C 
HETATM   11  C26 UNL     1       3.510  -6.328  15.641  1.00  0.00     0.248 C 
HETATM   12  O4  UNL     1       3.655  -7.388  15.051  1.00  0.00    -0.284 OA
HETATM   13  C27 UNL     1       2.723  -5.221  15.079  1.00  0.00     0.155 C 
HETATM   14  N6  UNL     1       1.726  -5.459  14.319  1.00  0.00    -0.382 N 
ATOM     15  H61 UNL     1       1.441  -6.393  14.024  1.00  0.00     0.157 HD
ATOM     16  H62 UNL     1       1.180  -4.691  13.929  1.00  0.00     0.157 HD
ENDROOT
BRANCH   1  17
HETATM   17  C15 UNL     1       3.258  -2.835  14.638  1.00  0.00     0.154 C 
BRANCH  17  18
HETATM   18  C14 UNL     1       4.423  -2.229  14.047  1.00  0.00     0.017 A 
HETATM   19  C13 UNL     1       5.590  -2.908  13.844  1.00  0.00     0.017 A 
HETATM   20  C12 UNL     1       6.650  -2.289  13.182  1.00  0.00     0.015 A 
HETATM   21  C11 UNL     1       6.552  -0.996  12.722  1.00  0.00    -0.007 A 
HETATM   22  C10 UNL     1       7.389  -0.131  12.049  1.00  0.00     0.044 A 
HETATM   23  C29 UNL     1       5.387  -0.287  12.917  1.00  0.00     0.043 A 
HETATM   24  C9  UNL     1       6.759   1.072  11.833  1.00  0.00     0.043 A 
HETATM   25  N7  UNL     1       5.539   0.955  12.371  1.00  0.00    -0.355 N 
ATOM     26  H7  UNL     1       4.828   1.686  12.372  1.00  0.00     0.166 HD
HETATM   27  C28 UNL     1       4.348  -0.902  13.568  1.00  0.00     0.046 A 
BRANCH  24  28
HETATM   28  C8  UNL     1       7.320   2.245  11.140  1.00  0.00    -0.009 A 
HETATM   29  C7  UNL     1       7.776   2.125   9.847  1.00  0.00     0.014 A 
HETATM   30  C6  UNL     1       8.302   3.206   9.171  1.00  0.00     0.008 A 
HETATM   31  C5  UNL     1       8.396   4.459   9.756  1.00  0.00    -0.058 A 
HETATM   32  C31 UNL     1       7.939   4.580  11.051  1.00  0.00     0.008 A 
HETATM   33  C30 UNL     1       7.411   3.485  11.725  1.00  0.00     0.014 A 
BRANCH  31  34
HETATM   34  C4  UNL     1       8.974   5.612   9.009  1.00  0.00     0.038 C 
BRANCH  34  35
HETATM   35  C3  UNL     1      10.180   5.148   8.241  1.00  0.00     0.004 C 
BRANCH  35  36
HETATM   36  C2  UNL     1      11.172   6.303   8.128  1.00  0.00    -0.004 C 
HETATM   37  C1  UNL     1      10.863   7.305   9.219  1.00  0.00     0.005 C 
ENDBRANCH  35  36
ENDBRANCH  34  35
ENDBRANCH  31  34
ENDBRANCH  24  28
ENDBRANCH  17  18
BRANCH  17  38
HETATM   38  O1  UNL     1       2.145  -2.232  14.299  1.00  0.00    -0.345 OA
ATOM     39  H1  UNL     1       1.930  -1.508  14.875  1.00  0.00     0.219 HD
ENDBRANCH  17  38
ENDBRANCH   1  17
BRANCH   6  40
HETATM   40  C20 UNL     1       6.942  -6.448  18.650  1.00  0.00     0.043 C 
BRANCH  40  41
HETATM   41  C21 UNL     1       8.404  -6.786  18.512  1.00  0.00     0.023 C 
BRANCH  41  42
HETATM   42  C22 UNL     1       8.780  -7.399  17.207  1.00  0.00     0.122 C 
BRANCH  42  43
HETATM   43  N2  UNL     1       9.363  -8.705  17.392  1.00  0.00    -0.365 N 
HETATM   44  C23 UNL     1       8.492  -9.797  17.647  1.00  0.00     0.181 C 
HETATM   45  N3  UNL     1       7.670 -10.141  16.717  1.00  0.00    -0.374 N 
HETATM   46  N4  UNL     1       8.483 -10.522  18.864  1.00  0.00    -0.064 NA
ATOM     47  H32 UNL     1       7.677  -9.618  15.841  1.00  0.00     0.158 HD
ATOM     48  H31 UNL     1       7.045 -10.925  16.900  1.00  0.00     0.158 HD
ATOM     49  H2  UNL     1      10.373  -8.840  17.342  1.00  0.00     0.162 HD
ENDBRANCH  42  43
ENDBRANCH  41  42
ENDBRANCH  40  41
ENDBRANCH   6  40
TORSDOF 11
ENDMDL
