MODEL 1
REMARK VINA RESULT: -6.740981443      0.000      0.000
REMARK  2 active torsions:
REMARK  status: ('A' for Active; 'I' for Inactive)
REMARK    1  A    between atoms: C4_4  and  N1_5 
REMARK    2  A    between atoms: C8_9  and  N2_10 
ROOT
HETATM    1  N1  UNL     1      -5.478   3.489  15.038  1.00  0.00     0.095 N 
HETATM    2  C5  UNL     1      -6.195   4.703  14.839  1.00  0.00     0.273 C 
HETATM    3  C6  UNL     1      -5.359   5.938  15.140  1.00  0.00     0.032 C 
HETATM    4  C7  UNL     1      -4.158   5.960  14.212  1.00  0.00     0.039 C 
HETATM    5  C8  UNL     1      -3.427   4.667  14.386  1.00  0.00     0.251 C 
HETATM    6  C13 UNL     1      -4.359   3.492  14.120  1.00  0.00     0.308 C 
ENDROOT
BRANCH   5   7
HETATM    7  N2  UNL     1      -2.277   4.513  13.563  1.00  0.00     0.098 N 
HETATM    8  C9  UNL     1      -2.463   3.770  12.364  1.00  0.00     0.300 C 
HETATM    9  C10 UNL     1      -2.025   4.600  11.157  1.00  0.00     0.262 C 
HETATM   10  N3  UNL     1      -0.627   4.881  11.312  1.00  0.00    -0.072 N 
HETATM   11  C11 UNL     1      -0.353   5.607  12.514  1.00  0.00     0.262 C 
ATOM     12  H32 UNL     1      -0.070   4.029  11.261  1.00  0.00     0.277 HD
ATOM     13  H31 UNL     1      -0.254   5.366  10.495  1.00  0.00     0.277 HD
HETATM   14  C12 UNL     1      -1.557   5.737  13.419  1.00  0.00     0.300 C 
ENDBRANCH   5   7
BRANCH   1  15
HETATM   15  C4  UNL     1      -5.124   3.179  16.382  1.00  0.00     0.223 C 
HETATM   16  C3  UNL     1      -4.358   1.894  16.525  1.00  0.00     0.036 C 
HETATM   17  C2  UNL     1      -5.210   0.672  16.323  1.00  0.00     0.002 C 
HETATM   18  C1  UNL     1      -6.199   0.660  17.486  1.00  0.00     0.000 C 
HETATM   19  C15 UNL     1      -7.052   1.871  17.341  1.00  0.00     0.002 C 
HETATM   20  C14 UNL     1      -6.315   3.165  17.289  1.00  0.00     0.036 C 
ENDBRANCH   1  15
TORSDOF 2
ENDMDL
MODEL 2
REMARK VINA RESULT: -6.414205807      0.990      1.517
REMARK  2 active torsions:
REMARK  status: ('A' for Active; 'I' for Inactive)
REMARK    1  A    between atoms: C4_4  and  N1_5 
REMARK    2  A    between atoms: C8_9  and  N2_10 
ROOT
HETATM    1  N1  UNL     1      -5.875   3.700  15.476  1.00  0.00     0.095 N 
HETATM    2  C5  UNL     1      -6.334   5.041  15.614  1.00  0.00     0.273 C 
HETATM    3  C6  UNL     1      -5.202   6.058  15.589  1.00  0.00     0.032 C 
HETATM    4  C7  UNL     1      -4.478   5.958  14.259  1.00  0.00     0.039 C 
HETATM    5  C8  UNL     1      -4.033   4.540  14.090  1.00  0.00     0.251 C 
HETATM    6  C13 UNL     1      -5.225   3.597  14.186  1.00  0.00     0.308 C 
ENDROOT
BRANCH   5   7
HETATM    7  N2  UNL     1      -3.351   4.267  12.871  1.00  0.00     0.098 N 
HETATM    8  C9  UNL     1      -2.112   4.942  12.686  1.00  0.00     0.300 C 
HETATM    9  C10 UNL     1      -0.998   3.931  12.412  1.00  0.00     0.262 C 
HETATM   10  N3  UNL     1      -1.332   3.240  11.200  1.00  0.00    -0.072 N 
HETATM   11  C11 UNL     1      -2.584   2.555  11.298  1.00  0.00     0.262 C 
ATOM     12  H32 UNL     1      -1.318   3.871  10.399  1.00  0.00     0.277 HD
ATOM     13  H31 UNL     1      -0.585   2.605  10.918  1.00  0.00     0.277 HD
HETATM   14  C12 UNL     1      -3.340   2.873  12.567  1.00  0.00     0.300 C 
ENDBRANCH   5   7
BRANCH   1  15
HETATM   15  C4  UNL     1      -5.106   3.183  16.557  1.00  0.00     0.223 C 
HETATM   16  C3  UNL     1      -4.452   1.863  16.256  1.00  0.00     0.036 C 
HETATM   17  C2  UNL     1      -5.423   0.717  16.218  1.00  0.00     0.002 C 
HETATM   18  C1  UNL     1      -5.946   0.569  17.645  1.00  0.00     0.000 C 
HETATM   19  C15 UNL     1      -6.688   1.818  17.964  1.00  0.00     0.002 C 
HETATM   20  C14 UNL     1      -5.906   3.079  17.817  1.00  0.00     0.036 C 
ENDBRANCH   1  15
TORSDOF 2
ENDMDL
MODEL 3
REMARK VINA RESULT: -6.116875273      2.467      3.205
REMARK  2 active torsions:
REMARK  status: ('A' for Active; 'I' for Inactive)
REMARK    1  A    between atoms: C4_4  and  N1_5 
REMARK    2  A    between atoms: C8_9  and  N2_10 
ROOT
HETATM    1  N1  UNL     1      -5.732   3.494  14.619  1.00  0.00     0.095 N 
HETATM    2  C5  UNL     1      -5.709   4.869  14.249  1.00  0.00     0.273 C 
HETATM    3  C6  UNL     1      -4.362   5.309  13.695  1.00  0.00     0.032 C 
HETATM    4  C7  UNL     1      -4.050   4.496  12.452  1.00  0.00     0.039 C 
HETATM    5  C8  UNL     1      -4.116   3.050  12.826  1.00  0.00     0.251 C 
HETATM    6  C13 UNL     1      -5.478   2.720  13.421  1.00  0.00     0.308 C 
ENDROOT
BRANCH   5   7
HETATM    7  N2  UNL     1      -3.869   2.143  11.758  1.00  0.00     0.098 N 
HETATM    8  C9  UNL     1      -2.531   1.673  11.637  1.00  0.00     0.300 C 
HETATM    9  C10 UNL     1      -2.506   0.144  11.659  1.00  0.00     0.262 C 
HETATM   10  N3  UNL     1      -3.260  -0.316  10.529  1.00  0.00    -0.072 N 
HETATM   11  C11 UNL     1      -4.616   0.139  10.565  1.00  0.00     0.262 C 
ATOM     12  H32 UNL     1      -2.807  -0.058   9.653  1.00  0.00     0.277 HD
ATOM     13  H31 UNL     1      -3.213  -1.331  10.442  1.00  0.00     0.277 HD
HETATM   14  C12 UNL     1      -4.880   1.139  11.666  1.00  0.00     0.300 C 
ENDBRANCH   5   7
BRANCH   1  15
HETATM   15  C4  UNL     1      -4.919   3.126  15.729  1.00  0.00     0.223 C 
HETATM   16  C3  UNL     1      -4.952   1.656  16.042  1.00  0.00     0.036 C 
HETATM   17  C2  UNL     1      -6.246   1.214  16.666  1.00  0.00     0.002 C 
HETATM   18  C1  UNL     1      -6.303   1.897  18.030  1.00  0.00     0.000 C 
HETATM   19  C15 UNL     1      -6.368   3.362  17.777  1.00  0.00     0.002 C 
HETATM   20  C14 UNL     1      -5.253   3.915  16.956  1.00  0.00     0.036 C 
ENDBRANCH   1  15
TORSDOF 2
ENDMDL
MODEL 4
REMARK VINA RESULT: -5.824236199      1.588      3.126
REMARK  2 active torsions:
REMARK  status: ('A' for Active; 'I' for Inactive)
REMARK    1  A    between atoms: C4_4  and  N1_5 
REMARK    2  A    between atoms: C8_9  and  N2_10 
ROOT
HETATM    1  N1  UNL     1      -4.424   3.166  14.925  1.00  0.00     0.095 N 
HETATM    2  C5  UNL     1      -4.046   1.796  14.827  1.00  0.00     0.273 C 
HETATM    3  C6  UNL     1      -4.439   1.170  13.497  1.00  0.00     0.032 C 
HETATM    4  C7  UNL     1      -3.744   1.917  12.374  1.00  0.00     0.039 C 
HETATM    5  C8  UNL     1      -4.103   3.363  12.501  1.00  0.00     0.251 C 
HETATM    6  C13 UNL     1      -3.724   3.884  13.881  1.00  0.00     0.308 C 
ENDROOT
BRANCH   5   7
HETATM    7  N2  UNL     1      -3.510   4.216  11.529  1.00  0.00     0.098 N 
HETATM    8  C9  UNL     1      -2.646   5.228  12.033  1.00  0.00     0.300 C 
HETATM    9  C10 UNL     1      -1.271   5.124  11.372  1.00  0.00     0.262 C 
HETATM   10  N3  UNL     1      -1.453   5.333   9.965  1.00  0.00    -0.072 N 
HETATM   11  C11 UNL     1      -2.335   4.366   9.386  1.00  0.00     0.262 C 
ATOM     12  H32 UNL     1      -1.768   6.283   9.769  1.00  0.00     0.277 HD
ATOM     13  H31 UNL     1      -0.558   5.356   9.475  1.00  0.00     0.277 HD
HETATM   14  C12 UNL     1      -3.007   3.483  10.412  1.00  0.00     0.300 C 
ENDBRANCH   5   7
BRANCH   1  15
HETATM   15  C4  UNL     1      -5.823   3.431  14.974  1.00  0.00     0.223 C 
HETATM   16  C3  UNL     1      -6.162   4.895  14.945  1.00  0.00     0.036 C 
HETATM   17  C2  UNL     1      -5.843   5.601  16.234  1.00  0.00     0.002 C 
HETATM   18  C1  UNL     1      -6.789   5.010  17.275  1.00  0.00     0.000 C 
HETATM   19  C15 UNL     1      -6.433   3.571  17.414  1.00  0.00     0.002 C 
HETATM   20  C14 UNL     1      -6.478   2.780  16.152  1.00  0.00     0.036 C 
ENDBRANCH   1  15
TORSDOF 2
ENDMDL
MODEL 5
REMARK VINA RESULT: -5.766782130      2.555      4.141
REMARK  2 active torsions:
REMARK  status: ('A' for Active; 'I' for Inactive)
REMARK    1  A    between atoms: C4_4  and  N1_5 
REMARK    2  A    between atoms: C8_9  and  N2_10 
ROOT
HETATM    1  N1  UNL     1      -4.727   2.997  16.024  1.00  0.00     0.095 N 
HETATM    2  C5  UNL     1      -4.602   1.936  16.966  1.00  0.00     0.273 C 
HETATM    3  C6  UNL     1      -5.195   0.628  16.465  1.00  0.00     0.032 C 
HETATM    4  C7  UNL     1      -4.464   0.206  15.203  1.00  0.00     0.039 C 
HETATM    5  C8  UNL     1      -4.555   1.335  14.227  1.00  0.00     0.251 C 
HETATM    6  C13 UNL     1      -3.991   2.610  14.838  1.00  0.00     0.308 C 
ENDROOT
BRANCH   5   7
HETATM    7  N2  UNL     1      -3.895   1.110  12.987  1.00  0.00     0.098 N 
HETATM    8  C9  UNL     1      -4.164  -0.136  12.355  1.00  0.00     0.300 C 
HETATM    9  C10 UNL     1      -4.679   0.095  10.933  1.00  0.00     0.262 C 
HETATM   10  N3  UNL     1      -3.644   0.767  10.204  1.00  0.00    -0.072 N 
HETATM   11  C11 UNL     1      -3.297   2.023  10.795  1.00  0.00     0.262 C 
ATOM     12  H32 UNL     1      -2.824   0.173  10.093  1.00  0.00     0.277 HD
ATOM     13  H31 UNL     1      -3.896   0.879   9.221  1.00  0.00     0.277 HD
HETATM   14  C12 UNL     1      -3.956   2.254  12.135  1.00  0.00     0.300 C 
ENDBRANCH   5   7
BRANCH   1  15
HETATM   15  C4  UNL     1      -6.050   3.454  15.762  1.00  0.00     0.223 C 
HETATM   16  C3  UNL     1      -6.103   4.748  14.999  1.00  0.00     0.036 C 
HETATM   17  C2  UNL     1      -5.708   5.938  15.827  1.00  0.00     0.002 C 
HETATM   18  C1  UNL     1      -6.791   6.079  16.894  1.00  0.00     0.000 C 
HETATM   19  C15 UNL     1      -6.721   4.858  17.743  1.00  0.00     0.002 C 
HETATM   20  C14 UNL     1      -6.864   3.566  17.012  1.00  0.00     0.036 C 
ENDBRANCH   1  15
TORSDOF 2
ENDMDL
