MODEL 1
REMARK VINA RESULT: -7.511748487      0.000      0.000
REMARK  6 active torsions:
REMARK  status: ('A' for Active; 'I' for Inactive)
REMARK    1  A    between atoms: C3_3  and  C4_4 
REMARK    2  A    between atoms: C11_11  and  O1_12 
REMARK    3  A    between atoms: C17_19  and  C18_20 
REMARK    4  A    between atoms: C17_19  and  C19_25 
REMARK    5  A    between atoms: C18_20  and  N1_21 
REMARK    6  A    between atoms: C21_28  and  O2_29 
ROOT
HETATM    1  C19 UNL     1      37.188  28.011  21.564  1.00  0.00     0.138 C 
HETATM    2  C20 UNL     1      38.573  28.313  21.213  1.00  0.00     0.060 C 
HETATM    3  N2  UNL     1      39.702  28.564  20.966  1.00  0.00    -0.197 NA
ENDROOT
BRANCH   1   4
HETATM    4  C17 UNL     1      36.221  28.489  20.499  1.00  0.00     0.033 C 
HETATM    5  C15 UNL     1      35.355  27.373  19.979  1.00  0.00    -0.004 C 
HETATM    6  C9  UNL     1      33.897  27.591  20.209  1.00  0.00    -0.065 C 
HETATM    7  C13 UNL     1      35.845  26.015  20.397  1.00  0.00    -0.003 C 
HETATM    8  C16 UNL     1      35.420  27.282  18.435  1.00  0.00     0.021 C 
HETATM    9  C8  UNL     1      33.376  28.713  20.516  1.00  0.00    -0.066 C 
HETATM   10  C10 UNL     1      32.964  26.401  20.059  1.00  0.00     0.067 C 
HETATM   11  C7  UNL     1      34.200  29.965  20.693  1.00  0.00     0.045 C 
HETATM   12  C22 UNL     1      31.905  29.036  20.750  1.00  0.00     0.069 C 
HETATM   13  C6  UNL     1      33.899  30.811  19.500  1.00  0.00     0.016 C 
HETATM   14  C21 UNL     1      35.558  29.673  21.074  1.00  0.00     0.138 C 
HETATM   15  C5  UNL     1      32.466  31.024  19.256  1.00  0.00     0.035 C 
HETATM   16  C4  UNL     1      31.487  29.954  19.654  1.00  0.00    -0.076 C 
HETATM   17  C11 UNL     1      33.503  25.426  21.125  1.00  0.00     0.122 C 
HETATM   18  C12 UNL     1      34.773  24.957  20.525  1.00  0.00     0.037 C 
HETATM   19  C14 UNL     1      36.817  25.367  19.429  1.00  0.00     0.011 C 
BRANCH  16  20
HETATM   20  C3  UNL     1      30.125  30.480  19.732  1.00  0.00    -0.001 C 
HETATM   21  C2  UNL     1      29.186  30.492  18.870  1.00  0.00    -0.031 C 
HETATM   22  C1  UNL     1      29.139  29.994  17.498  1.00  0.00     0.036 C 
ENDBRANCH  16  20
BRANCH  14  23
HETATM   23  O2  UNL     1      35.598  29.598  22.496  1.00  0.00    -0.394 OA
ATOM     24  H2  UNL     1      36.286  28.986  22.732  1.00  0.00     0.210 HD
ENDBRANCH  14  23
BRANCH  17  25
HETATM   25  O1  UNL     1      33.588  26.025  22.356  1.00  0.00    -0.395 OA
ATOM     26  H1  UNL     1      34.428  25.859  22.766  1.00  0.00     0.210 HD
ENDBRANCH  17  25
BRANCH   4  27
HETATM   27  C18 UNL     1      37.078  28.945  19.310  1.00  0.00     0.243 C 
BRANCH  27  28
HETATM   28  N1  UNL     1      37.063  30.358  19.092  1.00  0.00    -0.078 N 
ATOM     29  H13 UNL     1      36.805  30.850  19.948  1.00  0.00     0.274 HD
ATOM     30  H12 UNL     1      38.011  30.712  18.970  1.00  0.00     0.274 HD
ATOM     31  H11 UNL     1      36.469  30.652  18.317  1.00  0.00     0.274 HD
ENDBRANCH  27  28
ENDBRANCH   4  27
ENDBRANCH   1   4
TORSDOF 6
ENDMDL
MODEL 2
REMARK VINA RESULT: -7.362988165      2.331      3.562
REMARK  6 active torsions:
REMARK  status: ('A' for Active; 'I' for Inactive)
REMARK    1  A    between atoms: C3_3  and  C4_4 
REMARK    2  A    between atoms: C11_11  and  O1_12 
REMARK    3  A    between atoms: C17_19  and  C18_20 
REMARK    4  A    between atoms: C17_19  and  C19_25 
REMARK    5  A    between atoms: C18_20  and  N1_21 
REMARK    6  A    between atoms: C21_28  and  O2_29 
ROOT
HETATM    1  C19 UNL     1      36.342  24.862  20.499  1.00  0.00     0.138 C 
HETATM    2  C20 UNL     1      36.627  24.075  21.695  1.00  0.00     0.060 C 
HETATM    3  N2  UNL     1      36.846  23.407  22.647  1.00  0.00    -0.197 NA
ENDROOT
BRANCH   1   4
HETATM    4  C17 UNL     1      35.830  26.246  20.844  1.00  0.00     0.033 C 
HETATM    5  C15 UNL     1      36.168  27.256  19.780  1.00  0.00    -0.004 C 
HETATM    6  C9  UNL     1      34.970  27.886  19.152  1.00  0.00    -0.065 C 
HETATM    7  C13 UNL     1      37.178  26.742  18.793  1.00  0.00    -0.003 C 
HETATM    8  C16 UNL     1      36.893  28.485  20.379  1.00  0.00     0.021 C 
HETATM    9  C8  UNL     1      33.794  27.845  19.643  1.00  0.00    -0.066 C 
HETATM   10  C10 UNL     1      35.160  28.638  17.846  1.00  0.00     0.067 C 
HETATM   11  C7  UNL     1      33.482  27.128  20.934  1.00  0.00     0.045 C 
HETATM   12  C22 UNL     1      32.520  28.471  19.089  1.00  0.00     0.069 C 
HETATM   13  C6  UNL     1      33.233  28.206  21.937  1.00  0.00     0.016 C 
HETATM   14  C21 UNL     1      34.412  26.063  21.203  1.00  0.00     0.138 C 
HETATM   15  C5  UNL     1      32.247  29.210  21.513  1.00  0.00     0.035 C 
HETATM   16  C4  UNL     1      32.109  29.532  20.051  1.00  0.00    -0.076 C 
HETATM   17  C11 UNL     1      35.700  27.538  16.910  1.00  0.00     0.122 C 
HETATM   18  C12 UNL     1      37.081  27.337  17.406  1.00  0.00     0.037 C 
HETATM   19  C14 UNL     1      38.623  27.026  19.159  1.00  0.00     0.011 C 
BRANCH  16  20
HETATM   20  C3  UNL     1      30.843  30.206  19.770  1.00  0.00    -0.001 C 
HETATM   21  C2  UNL     1      30.559  31.136  18.945  1.00  0.00    -0.031 C 
HETATM   22  C1  UNL     1      31.398  31.863  17.996  1.00  0.00     0.036 C 
ENDBRANCH  16  20
BRANCH  14  23
HETATM   23  O2  UNL     1      33.911  24.886  20.577  1.00  0.00    -0.394 OA
ATOM     24  H2  UNL     1      33.137  24.613  21.055  1.00  0.00     0.210 HD
ENDBRANCH  14  23
BRANCH  17  25
HETATM   25  O1  UNL     1      34.881  26.438  16.905  1.00  0.00    -0.395 OA
ATOM     26  H1  UNL     1      34.498  26.293  16.048  1.00  0.00     0.210 HD
ENDBRANCH  17  25
BRANCH   4  27
HETATM   27  C18 UNL     1      36.593  26.688  22.101  1.00  0.00     0.243 C 
BRANCH  27  28
HETATM   28  N1  UNL     1      35.839  26.570  23.309  1.00  0.00    -0.078 N 
ATOM     29  H13 UNL     1      35.453  25.629  23.400  1.00  0.00     0.274 HD
ATOM     30  H12 UNL     1      36.457  26.582  24.120  1.00  0.00     0.274 HD
ATOM     31  H11 UNL     1      35.104  27.270  23.409  1.00  0.00     0.274 HD
ENDBRANCH  27  28
ENDBRANCH   4  27
ENDBRANCH   1   4
TORSDOF 6
ENDMDL
MODEL 3
REMARK VINA RESULT: -7.091106064      1.815      2.411
REMARK  6 active torsions:
REMARK  status: ('A' for Active; 'I' for Inactive)
REMARK    1  A    between atoms: C3_3  and  C4_4 
REMARK    2  A    between atoms: C11_11  and  O1_12 
REMARK    3  A    between atoms: C17_19  and  C18_20 
REMARK    4  A    between atoms: C17_19  and  C19_25 
REMARK    5  A    between atoms: C18_20  and  N1_21 
REMARK    6  A    between atoms: C21_28  and  O2_29 
ROOT
HETATM    1  C19 UNL     1      38.066  28.171  19.782  1.00  0.00     0.138 C 
HETATM    2  C20 UNL     1      39.024  27.622  18.826  1.00  0.00     0.060 C 
HETATM    3  N2  UNL     1      39.824  27.204  18.061  1.00  0.00    -0.197 NA
ENDROOT
BRANCH   1   4
HETATM    4  C17 UNL     1      36.643  28.079  19.270  1.00  0.00     0.033 C 
HETATM    5  C15 UNL     1      35.689  27.602  20.331  1.00  0.00    -0.004 C 
HETATM    6  C9  UNL     1      34.616  28.587  20.657  1.00  0.00    -0.065 C 
HETATM    7  C13 UNL     1      36.393  27.043  21.536  1.00  0.00    -0.003 C 
HETATM    8  C16 UNL     1      34.863  26.387  19.843  1.00  0.00     0.021 C 
HETATM    9  C8  UNL     1      34.312  29.588  19.928  1.00  0.00    -0.066 C 
HETATM   10  C10 UNL     1      33.822  28.383  21.936  1.00  0.00     0.067 C 
HETATM   11  C7  UNL     1      35.030  29.894  18.636  1.00  0.00     0.045 C 
HETATM   12  C22 UNL     1      33.227  30.631  20.166  1.00  0.00     0.069 C 
HETATM   13  C6  UNL     1      34.061  29.551  17.552  1.00  0.00     0.016 C 
HETATM   14  C21 UNL     1      36.373  29.376  18.624  1.00  0.00     0.138 C 
HETATM   15  C5  UNL     1      32.738  30.171  17.707  1.00  0.00     0.035 C 
HETATM   16  C4  UNL     1      32.214  30.450  19.088  1.00  0.00    -0.076 C 
HETATM   17  C11 UNL     1      34.919  28.456  23.017  1.00  0.00     0.122 C 
HETATM   18  C12 UNL     1      35.638  27.174  22.839  1.00  0.00     0.037 C 
HETATM   19  C14 UNL     1      36.666  25.552  21.474  1.00  0.00     0.011 C 
BRANCH  16  20
HETATM   20  C3  UNL     1      31.119  31.418  19.058  1.00  0.00    -0.001 C 
HETATM   21  C2  UNL     1      29.874  31.261  18.830  1.00  0.00    -0.031 C 
HETATM   22  C1  UNL     1      29.103  30.063  18.509  1.00  0.00     0.036 C 
ENDBRANCH  16  20
BRANCH  14  23
HETATM   23  O2  UNL     1      37.223  30.372  19.184  1.00  0.00    -0.394 OA
ATOM     24  H2  UNL     1      37.649  30.824  18.464  1.00  0.00     0.210 HD
ENDBRANCH  14  23
BRANCH  17  25
HETATM   25  O1  UNL     1      35.665  29.601  22.900  1.00  0.00    -0.395 OA
ATOM     26  H1  UNL     1      36.095  29.822  23.717  1.00  0.00     0.210 HD
ENDBRANCH  17  25
BRANCH   4  27
HETATM   27  C18 UNL     1      36.643  26.991  18.186  1.00  0.00     0.243 C 
BRANCH  27  28
HETATM   28  N1  UNL     1      36.712  27.501  16.852  1.00  0.00    -0.078 N 
ATOM     29  H13 UNL     1      35.775  27.625  16.467  1.00  0.00     0.274 HD
ATOM     30  H12 UNL     1      37.028  28.470  16.855  1.00  0.00     0.274 HD
ATOM     31  H11 UNL     1      37.286  26.939  16.223  1.00  0.00     0.274 HD
ENDBRANCH  27  28
ENDBRANCH   4  27
ENDBRANCH   1   4
TORSDOF 6
ENDMDL
MODEL 4
REMARK VINA RESULT: -6.989203695      0.984      1.006
REMARK  6 active torsions:
REMARK  status: ('A' for Active; 'I' for Inactive)
REMARK    1  A    between atoms: C3_3  and  C4_4 
REMARK    2  A    between atoms: C11_11  and  O1_12 
REMARK    3  A    between atoms: C17_19  and  C18_20 
REMARK    4  A    between atoms: C17_19  and  C19_25 
REMARK    5  A    between atoms: C18_20  and  N1_21 
REMARK    6  A    between atoms: C21_28  and  O2_29 
ROOT
HETATM    1  C19 UNL     1      37.067  28.353  20.338  1.00  0.00     0.138 C 
HETATM    2  C20 UNL     1      38.252  28.112  19.520  1.00  0.00     0.060 C 
HETATM    3  N2  UNL     1      39.233  27.933  18.883  1.00  0.00    -0.197 NA
ENDROOT
BRANCH   1   4
HETATM    4  C17 UNL     1      35.866  28.729  19.493  1.00  0.00     0.033 C 
HETATM    5  C15 UNL     1      34.910  27.579  19.326  1.00  0.00    -0.004 C 
HETATM    6  C9  UNL     1      33.550  27.848  19.877  1.00  0.00    -0.065 C 
HETATM    7  C13 UNL     1      35.499  26.266  19.760  1.00  0.00    -0.003 C 
HETATM    8  C16 UNL     1      34.598  27.318  17.832  1.00  0.00     0.021 C 
HETATM    9  C8  UNL     1      33.108  29.006  20.174  1.00  0.00    -0.066 C 
HETATM   10  C10 UNL     1      32.618  26.666  20.090  1.00  0.00     0.067 C 
HETATM   11  C7  UNL     1      33.940  30.254  20.006  1.00  0.00     0.045 C 
HETATM   12  C22 UNL     1      31.736  29.380  20.720  1.00  0.00     0.069 C 
HETATM   13  C6  UNL     1      33.351  30.970  18.835  1.00  0.00     0.016 C 
HETATM   14  C21 UNL     1      35.352  29.981  20.077  1.00  0.00     0.138 C 
HETATM   15  C5  UNL     1      31.899  31.181  18.924  1.00  0.00     0.035 C 
HETATM   16  C4  UNL     1      31.056  30.180  19.664  1.00  0.00    -0.076 C 
HETATM   17  C11 UNL     1      33.409  25.804  21.095  1.00  0.00     0.122 C 
HETATM   18  C12 UNL     1      34.499  25.249  20.261  1.00  0.00     0.037 C 
HETATM   19  C14 UNL     1      36.212  25.498  18.663  1.00  0.00     0.011 C 
BRANCH  16  20
HETATM   20  C3  UNL     1      29.750  30.736  20.011  1.00  0.00    -0.001 C 
HETATM   21  C2  UNL     1      28.621  30.639  19.426  1.00  0.00    -0.031 C 
HETATM   22  C1  UNL     1      28.234  29.947  18.200  1.00  0.00     0.036 C 
ENDBRANCH  16  20
BRANCH  14  23
HETATM   23  O2  UNL     1      35.738  30.062  21.446  1.00  0.00    -0.394 OA
ATOM     24  H2  UNL     1      36.540  30.570  21.489  1.00  0.00     0.210 HD
ENDBRANCH  14  23
BRANCH  17  25
HETATM   25  O1  UNL     1      33.785  26.532  22.194  1.00  0.00    -0.395 OA
ATOM     26  H1  UNL     1      34.728  26.633  22.239  1.00  0.00     0.210 HD
ENDBRANCH  17  25
BRANCH   4  27
HETATM   27  C18 UNL     1      36.405  29.036  18.089  1.00  0.00     0.243 C 
BRANCH  27  28
HETATM   28  N1  UNL     1      36.547  30.432  17.814  1.00  0.00    -0.078 N 
ATOM     29  H13 UNL     1      35.948  30.981  18.431  1.00  0.00     0.274 HD
ATOM     30  H12 UNL     1      37.460  30.766  18.119  1.00  0.00     0.274 HD
ATOM     31  H11 UNL     1      36.381  30.681  16.839  1.00  0.00     0.274 HD
ENDBRANCH  27  28
ENDBRANCH   4  27
ENDBRANCH   1   4
TORSDOF 6
ENDMDL
MODEL 5
REMARK VINA RESULT: -6.817083633      2.764      3.923
REMARK  6 active torsions:
REMARK  status: ('A' for Active; 'I' for Inactive)
REMARK    1  A    between atoms: C3_3  and  C4_4 
REMARK    2  A    between atoms: C11_11  and  O1_12 
REMARK    3  A    between atoms: C17_19  and  C18_20 
REMARK    4  A    between atoms: C17_19  and  C19_25 
REMARK    5  A    between atoms: C18_20  and  N1_21 
REMARK    6  A    between atoms: C21_28  and  O2_29 
ROOT
HETATM    1  C19 UNL     1      34.741  26.672  20.844  1.00  0.00     0.138 C 
HETATM    2  C20 UNL     1      34.929  26.266  22.234  1.00  0.00     0.060 C 
HETATM    3  N2  UNL     1      35.066  25.904  23.352  1.00  0.00    -0.197 NA
ENDROOT
BRANCH   1   4
HETATM    4  C17 UNL     1      34.341  28.130  20.732  1.00  0.00     0.033 C 
HETATM    5  C15 UNL     1      35.296  28.914  19.872  1.00  0.00    -0.004 C 
HETATM    6  C9  UNL     1      34.658  29.517  18.666  1.00  0.00    -0.065 C 
HETATM    7  C13 UNL     1      36.566  28.164  19.583  1.00  0.00    -0.003 C 
HETATM    8  C16 UNL     1      35.820  30.169  20.612  1.00  0.00     0.021 C 
HETATM    9  C8  UNL     1      33.400  29.650  18.507  1.00  0.00    -0.066 C 
HETATM   10  C10 UNL     1      35.563  30.017  17.553  1.00  0.00     0.067 C 
HETATM   11  C7  UNL     1      32.402  29.190  19.542  1.00  0.00     0.045 C 
HETATM   12  C22 UNL     1      32.659  30.267  17.327  1.00  0.00     0.069 C 
HETATM   13  C6  UNL     1      31.867  30.440  20.161  1.00  0.00     0.016 C 
HETATM   14  C21 UNL     1      32.916  28.119  20.355  1.00  0.00     0.138 C 
HETATM   15  C5  UNL     1      31.370  31.428  19.194  1.00  0.00     0.035 C 
HETATM   16  C4  UNL     1      32.002  31.504  17.832  1.00  0.00    -0.076 C 
HETATM   17  C11 UNL     1      36.313  28.735  17.139  1.00  0.00     0.122 C 
HETATM   18  C12 UNL     1      37.237  28.518  18.276  1.00  0.00     0.037 C 
HETATM   19  C14 UNL     1      37.681  28.396  20.586  1.00  0.00     0.011 C 
BRANCH  16  20
HETATM   20  C3  UNL     1      31.144  32.215  16.885  1.00  0.00    -0.001 C 
HETATM   21  C2  UNL     1      31.401  32.714  15.740  1.00  0.00    -0.031 C 
HETATM   22  C1  UNL     1      32.643  32.762  14.974  1.00  0.00     0.036 C 
ENDBRANCH  16  20
BRANCH  14  23
HETATM   23  O2  UNL     1      32.607  26.894  19.699  1.00  0.00    -0.394 OA
ATOM     24  H2  UNL     1      31.696  26.692  19.881  1.00  0.00     0.210 HD
ENDBRANCH  14  23
BRANCH  17  25
HETATM   25  O1  UNL     1      35.443  27.716  16.850  1.00  0.00    -0.395 OA
ATOM     26  H1  UNL     1      34.539  27.989  16.956  1.00  0.00     0.210 HD
ENDBRANCH  17  25
BRANCH   4  27
HETATM   27  C18 UNL     1      34.463  28.721  22.143  1.00  0.00     0.243 C 
BRANCH  27  28
HETATM   28  N1  UNL     1      33.250  28.676  22.899  1.00  0.00    -0.078 N 
ATOM     29  H13 UNL     1      32.609  27.986  22.506  1.00  0.00     0.274 HD
ATOM     30  H12 UNL     1      33.413  28.259  23.814  1.00  0.00     0.274 HD
ATOM     31  H11 UNL     1      32.788  29.580  22.995  1.00  0.00     0.274 HD
ENDBRANCH  27  28
ENDBRANCH   4  27
ENDBRANCH   1   4
TORSDOF 6
ENDMDL
