MODEL 1
REMARK VINA RESULT: -7.209410486      0.000      0.000
REMARK  3 active torsions:
REMARK  status: ('A' for Active; 'I' for Inactive)
REMARK       I    between atoms: C1_2  and  N1_3 
REMARK    1  A    between atoms: C1_2  and  C12_18 
REMARK    2  A    between atoms: N1_3  and  C2_5 
REMARK    3  A    between atoms: N2_9  and  C6_10 
ROOT
HETATM    1  C2  UNL     1      17.836   5.635  12.887  1.00  0.00     0.102 C 
HETATM    2  C3  UNL     1      18.275   4.592  11.893  1.00  0.00     0.028 C 
HETATM    3  C4  UNL     1      17.266   3.501  11.810  1.00  0.00     0.022 C 
HETATM    4  C5  UNL     1      16.928   3.042  13.224  1.00  0.00     0.120 C 
HETATM    5  N2  UNL     1      16.288   4.083  13.957  1.00  0.00    -0.375 N 
HETATM    6  C11 UNL     1      16.428   5.378  13.382  1.00  0.00     0.145 C 
ENDROOT
BRANCH   1   7
HETATM    7  N1  UNL     1      17.913   6.944  12.283  1.00  0.00    -0.350 N 
HETATM    8  C1  UNL     1      18.099   8.151  12.962  1.00  0.00     0.259 C 
HETATM    9  O1  UNL     1      18.222   8.196  14.203  1.00  0.00    -0.267 OA
ATOM     10  H1  UNL     1      17.823   6.993  11.268  1.00  0.00     0.163 HD
BRANCH   8  11
HETATM   11  C12 UNL     1      18.160   9.443  12.251  1.00  0.00     0.075 A 
HETATM   12  C13 UNL     1      17.364   9.892  11.226  1.00  0.00     0.050 A 
HETATM   13  C14 UNL     1      17.621  11.112  10.744  1.00  0.00     0.064 A 
HETATM   14 CL1  UNL     1      16.674  11.832   9.414  1.00  0.00    -0.082 Cl
HETATM   15  C15 UNL     1      18.652  11.813  11.306  1.00  0.00     0.097 A 
HETATM   16 CL2  UNL     1      19.223  13.437  10.879  1.00  0.00    -0.074 Cl
HETATM   17  S1  UNL     1      19.233  10.739  12.498  1.00  0.00    -0.071 SA
ENDBRANCH   8  11
ENDBRANCH   1   7
BRANCH   5  18
HETATM   18  C6  UNL     1      16.226   3.944  15.346  1.00  0.00     0.195 C 
HETATM   19  F1  UNL     1      17.245   4.718  15.918  1.00  0.00    -0.217 F 
HETATM   20  C7  UNL     1      14.940   4.414  15.924  1.00  0.00     0.071 C 
HETATM   21  C8  UNL     1      14.859   3.971  17.390  1.00  0.00     0.031 C 
HETATM   22  C9  UNL     1      15.000   2.466  17.396  1.00  0.00     0.168 C 
HETATM   23  O2  UNL     1      16.327   2.205  17.036  1.00  0.00    -0.386 OA
HETATM   24  C10 UNL     1      16.565   2.496  15.717  1.00  0.00     0.233 C 
ENDBRANCH   5  18
TORSDOF 3
ENDMDL
MODEL 2
REMARK VINA RESULT: -7.204374502      0.794      1.321
REMARK  3 active torsions:
REMARK  status: ('A' for Active; 'I' for Inactive)
REMARK       I    between atoms: C1_2  and  N1_3 
REMARK    1  A    between atoms: C1_2  and  C12_18 
REMARK    2  A    between atoms: N1_3  and  C2_5 
REMARK    3  A    between atoms: N2_9  and  C6_10 
ROOT
HETATM    1  C2  UNL     1      17.906   5.652  12.949  1.00  0.00     0.102 C 
HETATM    2  C3  UNL     1      18.328   4.620  11.937  1.00  0.00     0.028 C 
HETATM    3  C4  UNL     1      17.293   3.556  11.823  1.00  0.00     0.022 C 
HETATM    4  C5  UNL     1      16.932   3.076  13.224  1.00  0.00     0.120 C 
HETATM    5  N2  UNL     1      16.311   4.117  13.974  1.00  0.00    -0.375 N 
HETATM    6  C11 UNL     1      16.488   5.420  13.428  1.00  0.00     0.145 C 
ENDROOT
BRANCH   1   7
HETATM    7  N1  UNL     1      18.020   6.972  12.374  1.00  0.00    -0.350 N 
HETATM    8  C1  UNL     1      18.270   8.154  13.075  1.00  0.00     0.259 C 
HETATM    9  O1  UNL     1      18.425   8.164  14.314  1.00  0.00    -0.267 OA
ATOM     10  H1  UNL     1      17.908   7.048  11.363  1.00  0.00     0.163 HD
BRANCH   8  11
HETATM   11  C12 UNL     1      18.365   9.459  12.394  1.00  0.00     0.075 A 
HETATM   12  C13 UNL     1      19.119  10.552  12.743  1.00  0.00     0.050 A 
HETATM   13  C14 UNL     1      19.031  11.630  11.957  1.00  0.00     0.064 A 
HETATM   14 CL1  UNL     1      19.950  13.125  12.282  1.00  0.00    -0.082 Cl
HETATM   15  C15 UNL     1      18.201  11.560  10.874  1.00  0.00     0.097 A 
HETATM   16 CL2  UNL     1      17.882  12.818   9.664  1.00  0.00    -0.074 Cl
HETATM   17  S1  UNL     1      17.565   9.981  10.986  1.00  0.00    -0.071 SA
ENDBRANCH   8  11
ENDBRANCH   1   7
BRANCH   5  18
HETATM   18  C6  UNL     1      16.234   3.950  15.359  1.00  0.00     0.195 C 
HETATM   19  F1  UNL     1      17.267   4.687  15.955  1.00  0.00    -0.217 F 
HETATM   20  C7  UNL     1      14.956   4.440  15.937  1.00  0.00     0.071 C 
HETATM   21  C8  UNL     1      14.852   3.967  17.393  1.00  0.00     0.031 C 
HETATM   22  C9  UNL     1      14.956   2.460  17.368  1.00  0.00     0.168 C 
HETATM   23  O2  UNL     1      16.279   2.174  17.013  1.00  0.00    -0.386 OA
HETATM   24  C10 UNL     1      16.536   2.487  15.702  1.00  0.00     0.233 C 
ENDBRANCH   5  18
TORSDOF 3
ENDMDL
MODEL 3
REMARK VINA RESULT: -7.186691435      1.333      1.407
REMARK  3 active torsions:
REMARK  status: ('A' for Active; 'I' for Inactive)
REMARK       I    between atoms: C1_2  and  N1_3 
REMARK    1  A    between atoms: C1_2  and  C12_18 
REMARK    2  A    between atoms: N1_3  and  C2_5 
REMARK    3  A    between atoms: N2_9  and  C6_10 
ROOT
HETATM    1  C2  UNL     1      17.609   6.110  13.103  1.00  0.00     0.102 C 
HETATM    2  C3  UNL     1      18.148   5.213  12.021  1.00  0.00     0.028 C 
HETATM    3  C4  UNL     1      17.267   4.026  11.847  1.00  0.00     0.022 C 
HETATM    4  C5  UNL     1      17.001   3.412  13.216  1.00  0.00     0.120 C 
HETATM    5  N2  UNL     1      16.258   4.307  14.040  1.00  0.00    -0.375 N 
HETATM    6  C11 UNL     1      16.245   5.654  13.579  1.00  0.00     0.145 C 
ENDROOT
BRANCH   1   7
HETATM    7  N1  UNL     1      17.531   7.467  12.615  1.00  0.00    -0.350 N 
HETATM    8  C1  UNL     1      16.734   7.914  11.559  1.00  0.00     0.259 C 
HETATM    9  O1  UNL     1      15.989   7.140  10.923  1.00  0.00    -0.267 OA
ATOM     10  H1  UNL     1      18.111   8.162  13.085  1.00  0.00     0.163 HD
BRANCH   8  11
HETATM   11  C12 UNL     1      16.728   9.327  11.131  1.00  0.00     0.075 A 
HETATM   12  C13 UNL     1      15.678  10.068  10.647  1.00  0.00     0.050 A 
HETATM   13  C14 UNL     1      15.928  11.340  10.324  1.00  0.00     0.064 A 
HETATM   14 CL1  UNL     1      14.666  12.427   9.684  1.00  0.00    -0.082 Cl
HETATM   15  C15 UNL     1      17.203  11.801  10.499  1.00  0.00     0.097 A 
HETATM   16 CL2  UNL     1      17.828  13.427  10.160  1.00  0.00    -0.074 Cl
HETATM   17  S1  UNL     1      18.018  10.434  11.113  1.00  0.00    -0.071 SA
ENDBRANCH   8  11
ENDBRANCH   1   7
BRANCH   5  18
HETATM   18  C6  UNL     1      16.231   4.042  15.411  1.00  0.00     0.195 C 
HETATM   19  F1  UNL     1      17.293   4.727  16.019  1.00  0.00    -0.217 F 
HETATM   20  C7  UNL     1      14.980   4.500  16.070  1.00  0.00     0.071 C 
HETATM   21  C8  UNL     1      14.925   3.926  17.492  1.00  0.00     0.031 C 
HETATM   22  C9  UNL     1      15.012   2.424  17.356  1.00  0.00     0.168 C 
HETATM   23  O2  UNL     1      16.318   2.153  16.932  1.00  0.00    -0.386 OA
HETATM   24  C10 UNL     1      16.529   2.557  15.639  1.00  0.00     0.233 C 
ENDBRANCH   5  18
TORSDOF 3
ENDMDL
MODEL 4
REMARK VINA RESULT: -7.168130613      1.733      2.045
REMARK  3 active torsions:
REMARK  status: ('A' for Active; 'I' for Inactive)
REMARK       I    between atoms: C1_2  and  N1_3 
REMARK    1  A    between atoms: C1_2  and  C12_18 
REMARK    2  A    between atoms: N1_3  and  C2_5 
REMARK    3  A    between atoms: N2_9  and  C6_10 
ROOT
HETATM    1  C2  UNL     1      17.339   6.235  13.086  1.00  0.00     0.102 C 
HETATM    2  C3  UNL     1      17.993   5.400  12.017  1.00  0.00     0.028 C 
HETATM    3  C4  UNL     1      17.260   4.115  11.846  1.00  0.00     0.022 C 
HETATM    4  C5  UNL     1      17.056   3.484  13.218  1.00  0.00     0.120 C 
HETATM    5  N2  UNL     1      16.203   4.291  14.027  1.00  0.00    -0.375 N 
HETATM    6  C11 UNL     1      16.034   5.623  13.554  1.00  0.00     0.145 C 
ENDROOT
BRANCH   1   7
HETATM    7  N1  UNL     1      17.105   7.569  12.585  1.00  0.00    -0.350 N 
HETATM    8  C1  UNL     1      16.381   7.898  11.437  1.00  0.00     0.259 C 
HETATM    9  O1  UNL     1      15.853   7.025  10.719  1.00  0.00    -0.267 OA
ATOM     10  H1  UNL     1      17.504   8.341  13.119  1.00  0.00     0.163 HD
BRANCH   8  11
HETATM   11  C12 UNL     1      16.201   9.298  11.005  1.00  0.00     0.075 A 
HETATM   12  C13 UNL     1      17.162  10.250  10.772  1.00  0.00     0.050 A 
HETATM   13  C14 UNL     1      16.742  11.459  10.386  1.00  0.00     0.064 A 
HETATM   14 CL1  UNL     1      17.872  12.798  10.046  1.00  0.00    -0.082 Cl
HETATM   15  C15 UNL     1      15.395  11.651  10.254  1.00  0.00     0.097 A 
HETATM   16 CL2  UNL     1      14.551  13.132   9.763  1.00  0.00    -0.074 Cl
HETATM   17  S1  UNL     1      14.753  10.128  10.676  1.00  0.00    -0.071 SA
ENDBRANCH   8  11
ENDBRANCH   1   7
BRANCH   5  18
HETATM   18  C6  UNL     1      16.194   4.036  15.400  1.00  0.00     0.195 C 
HETATM   19  F1  UNL     1      17.250   4.743  15.992  1.00  0.00    -0.217 F 
HETATM   20  C7  UNL     1      14.942   4.477  16.069  1.00  0.00     0.071 C 
HETATM   21  C8  UNL     1      14.910   3.912  17.494  1.00  0.00     0.031 C 
HETATM   22  C9  UNL     1      15.022   2.411  17.369  1.00  0.00     0.168 C 
HETATM   23  O2  UNL     1      16.328   2.159  16.933  1.00  0.00    -0.386 OA
HETATM   24  C10 UNL     1      16.520   2.557  15.635  1.00  0.00     0.233 C 
ENDBRANCH   5  18
TORSDOF 3
ENDMDL
MODEL 5
REMARK VINA RESULT: -7.054269375      0.980      1.128
REMARK  3 active torsions:
REMARK  status: ('A' for Active; 'I' for Inactive)
REMARK       I    between atoms: C1_2  and  N1_3 
REMARK    1  A    between atoms: C1_2  and  C12_18 
REMARK    2  A    between atoms: N1_3  and  C2_5 
REMARK    3  A    between atoms: N2_9  and  C6_10 
ROOT
HETATM    1  C2  UNL     1      18.133   5.401  12.791  1.00  0.00     0.102 C 
HETATM    2  C3  UNL     1      18.348   4.315  11.770  1.00  0.00     0.028 C 
HETATM    3  C4  UNL     1      17.151   3.433  11.696  1.00  0.00     0.022 C 
HETATM    4  C5  UNL     1      16.763   3.017  13.109  1.00  0.00     0.120 C 
HETATM    5  N2  UNL     1      16.346   4.144  13.875  1.00  0.00    -0.375 N 
HETATM    6  C11 UNL     1      16.713   5.401  13.318  1.00  0.00     0.145 C 
ENDROOT
BRANCH   1   7
HETATM    7  N1  UNL     1      18.440   6.685  12.207  1.00  0.00    -0.350 N 
HETATM    8  C1  UNL     1      19.003   7.776  12.873  1.00  0.00     0.259 C 
HETATM    9  O1  UNL     1      19.302   7.725  14.084  1.00  0.00    -0.267 OA
ATOM     10  H1  UNL     1      18.226   6.807  11.217  1.00  0.00     0.163 HD
BRANCH   8  11
HETATM   11  C12 UNL     1      19.276   9.053  12.185  1.00  0.00     0.075 A 
HETATM   12  C13 UNL     1      18.492  10.179  12.132  1.00  0.00     0.050 A 
HETATM   13  C14 UNL     1      18.963  11.218  11.436  1.00  0.00     0.064 A 
HETATM   14 CL1  UNL     1      18.059  12.749  11.277  1.00  0.00    -0.082 Cl
HETATM   15  C15 UNL     1      20.181  11.079  10.833  1.00  0.00     0.097 A 
HETATM   16 CL2  UNL     1      21.053  12.273   9.852  1.00  0.00    -0.074 Cl
HETATM   17  S1  UNL     1      20.635   9.490  11.261  1.00  0.00    -0.071 SA
ENDBRANCH   8  11
ENDBRANCH   1   7
BRANCH   5  18
HETATM   18  C6  UNL     1      16.289   3.990  15.263  1.00  0.00     0.195 C 
HETATM   19  F1  UNL     1      17.297   4.774  15.840  1.00  0.00    -0.217 F 
HETATM   20  C7  UNL     1      14.998   4.436  15.849  1.00  0.00     0.071 C 
HETATM   21  C8  UNL     1      14.927   3.977  17.310  1.00  0.00     0.031 C 
HETATM   22  C9  UNL     1      15.090   2.475  17.302  1.00  0.00     0.168 C 
HETATM   23  O2  UNL     1      16.420   2.237  16.936  1.00  0.00    -0.386 OA
HETATM   24  C10 UNL     1      16.651   2.545  15.620  1.00  0.00     0.233 C 
ENDBRANCH   5  18
TORSDOF 3
ENDMDL
