MODEL 1
REMARK VINA RESULT: -8.739980436      0.000      0.000
REMARK  10 active torsions:
REMARK  status: ('A' for Active; 'I' for Inactive)
REMARK    1  A    between atoms: C2_2  and  C12_12 
REMARK    2  A    between atoms: C3_3  and  C4_4 
REMARK    3  A    between atoms: C4_4  and  C5_5 
REMARK    4  A    between atoms: C5_5  and  C6_6 
REMARK       I    between atoms: C12_12  and  N1_14 
REMARK    5  A    between atoms: N1_14  and  N2_16 
REMARK       I    between atoms: N2_16  and  C13_18 
REMARK    6  A    between atoms: C13_18  and  C14_20 
REMARK       I    between atoms: C14_20  and  N3_22 
REMARK    7  A    between atoms: N3_22  and  N4_24 
REMARK       I    between atoms: C15_26  and  N6_28 
REMARK       I    between atoms: C16_30  and  N7_31 
REMARK       I    between atoms: C16_30  and  N11_41 
REMARK    8  A    between atoms: N7_31  and  N8_33 
REMARK    9  A    between atoms: N8_33  and  C17_35 
REMARK   10  A    between atoms: C17_35  and  N9_37 
REMARK       I    between atoms: N11_41  and  C19_43 
ROOT
HETATM    1  N9  UNL     1      20.608  39.520  37.095  1.00  0.00    -0.269 N 
ATOM      2  H9  UNL     1      19.985  39.342  37.883  1.00  0.00     0.180 HD
HETATM    3  C18 UNL     1      21.373  38.463  36.544  1.00  0.00     0.184 C 
HETATM    4  N10 UNL     1      22.000  37.605  36.085  1.00  0.00    -0.172 NA
ENDROOT
BRANCH   1   5
HETATM    5  C17 UNL     1      20.710  40.811  36.555  1.00  0.00     0.200 C 
HETATM    6  S1  UNL     1      20.023  42.077  37.318  1.00  0.00    -0.038 SA
BRANCH   5   7
HETATM    7  N8  UNL     1      21.404  41.045  35.345  1.00  0.00    -0.261 N 
ATOM      8  H8  UNL     1      21.105  40.580  34.488  1.00  0.00     0.190 HD
BRANCH   7   9
HETATM    9  N7  UNL     1      22.491  41.905  35.321  1.00  0.00    -0.130 N 
HETATM   10  C16 UNL     1      23.505  41.737  34.350  1.00  0.00     0.703 C 
HETATM   11  N6  UNL     1      23.307  42.309  33.217  1.00  0.00    -0.161 N 
HETATM   12  N11 UNL     1      24.673  40.995  34.566  1.00  0.00    -0.142 N 
HETATM   13  C15 UNL     1      24.278  42.188  32.192  1.00  0.00     0.221 C 
ATOM     14  H6  UNL     1      22.455  42.847  33.057  1.00  0.00     0.187 HD
HETATM   15  N4  UNL     1      24.144  41.279  31.302  1.00  0.00    -0.270 N 
HETATM   16  N5  UNL     1      25.397  43.090  32.168  1.00  0.00    -0.061 NA
ATOM     17  H4  UNL     1      24.842  41.192  30.563  1.00  0.00     0.189 HD
HETATM   18  C19 UNL     1      24.956  40.335  35.808  1.00  0.00     0.347 C 
ATOM     19  H11 UNL     1      25.351  40.921  33.808  1.00  0.00     0.189 HD
HETATM   20  N12 UNL     1      26.153  39.593  35.979  1.00  0.00    -0.039 NA
HETATM   21  O4  UNL     1      24.164  40.392  36.770  1.00  0.00    -0.250 OA
ATOM     22  H7  UNL     1      22.560  42.660  36.005  1.00  0.00     0.205 HD
BRANCH  15  23
HETATM   23  N3  UNL     1      23.068  40.415  31.328  1.00  0.00    -0.259 N 
HETATM   24  C14 UNL     1      23.219  39.134  31.885  1.00  0.00     0.329 C 
HETATM   25  O3  UNL     1      24.337  38.795  32.349  1.00  0.00    -0.261 OA
ATOM     26  H3  UNL     1      22.168  40.705  30.945  1.00  0.00     0.190 HD
BRANCH  24  27
HETATM   27  C13 UNL     1      22.109  38.208  31.928  1.00  0.00     0.329 C 
HETATM   28  N2  UNL     1      21.548  37.816  33.183  1.00  0.00    -0.259 N 
ATOM     29  H2  UNL     1      21.965  38.211  34.025  1.00  0.00     0.190 HD
HETATM   30  O2  UNL     1      21.589  37.712  30.904  1.00  0.00    -0.261 OA
BRANCH  28  31
HETATM   31  N1  UNL     1      20.496  36.954  33.347  1.00  0.00    -0.263 N 
HETATM   32  C12 UNL     1      20.699  35.531  33.363  1.00  0.00     0.265 C 
HETATM   33  O1  UNL     1      21.888  35.159  33.211  1.00  0.00    -0.266 OA
ATOM     34  H1  UNL     1      19.554  37.327  33.460  1.00  0.00     0.190 HD
BRANCH  32  35
HETATM   35  C2  UNL     1      19.589  34.623  33.548  1.00  0.00     0.004 C 
HETATM   36  C1  UNL     1      18.338  34.881  32.724  1.00  0.00     0.054 C 
HETATM   37  C3  UNL     1      19.582  33.632  34.370  1.00  0.00    -0.014 C 
BRANCH  37  38
HETATM   38  C4  UNL     1      20.593  33.118  35.287  1.00  0.00     0.032 C 
BRANCH  38  39
HETATM   39  C5  UNL     1      20.812  34.111  36.411  1.00  0.00     0.042 C 
BRANCH  39  40
HETATM   40  C6  UNL     1      21.981  33.828  37.250  1.00  0.00    -0.058 A 
HETATM   41  C7  UNL     1      22.221  34.445  38.456  1.00  0.00     0.007 A 
HETATM   42  C8  UNL     1      23.339  34.137  39.221  1.00  0.00     0.001 A 
HETATM   43  C9  UNL     1      24.246  33.190  38.778  1.00  0.00     0.000 A 
HETATM   44  C10 UNL     1      24.014  32.570  37.577  1.00  0.00     0.001 A 
HETATM   45  C11 UNL     1      22.892  32.888  36.822  1.00  0.00     0.007 A 
ENDBRANCH  39  40
ENDBRANCH  38  39
ENDBRANCH  37  38
ENDBRANCH  32  35
ENDBRANCH  28  31
ENDBRANCH  24  27
ENDBRANCH  15  23
ENDBRANCH   7   9
ENDBRANCH   5   7
ENDBRANCH   1   5
TORSDOF 10
ENDMDL
MODEL 2
REMARK VINA RESULT: -8.725807737      2.272      4.420
REMARK  10 active torsions:
REMARK  status: ('A' for Active; 'I' for Inactive)
REMARK    1  A    between atoms: C2_2  and  C12_12 
REMARK    2  A    between atoms: C3_3  and  C4_4 
REMARK    3  A    between atoms: C4_4  and  C5_5 
REMARK    4  A    between atoms: C5_5  and  C6_6 
REMARK       I    between atoms: C12_12  and  N1_14 
REMARK    5  A    between atoms: N1_14  and  N2_16 
REMARK       I    between atoms: N2_16  and  C13_18 
REMARK    6  A    between atoms: C13_18  and  C14_20 
REMARK       I    between atoms: C14_20  and  N3_22 
REMARK    7  A    between atoms: N3_22  and  N4_24 
REMARK       I    between atoms: C15_26  and  N6_28 
REMARK       I    between atoms: C16_30  and  N7_31 
REMARK       I    between atoms: C16_30  and  N11_41 
REMARK    8  A    between atoms: N7_31  and  N8_33 
REMARK    9  A    between atoms: N8_33  and  C17_35 
REMARK   10  A    between atoms: C17_35  and  N9_37 
REMARK       I    between atoms: N11_41  and  C19_43 
ROOT
HETATM    1  N9  UNL     1      21.300  40.187  37.306  1.00  0.00    -0.269 N 
ATOM      2  H9  UNL     1      21.938  40.315  38.093  1.00  0.00     0.180 HD
HETATM    3  C18 UNL     1      20.830  38.893  36.975  1.00  0.00     0.184 C 
HETATM    4  N10 UNL     1      20.438  37.839  36.700  1.00  0.00    -0.172 NA
ENDROOT
BRANCH   1   5
HETATM    5  C17 UNL     1      20.887  41.295  36.548  1.00  0.00     0.200 C 
HETATM    6  S1  UNL     1      20.064  42.511  37.254  1.00  0.00    -0.038 SA
BRANCH   5   7
HETATM    7  N8  UNL     1      21.173  41.382  35.166  1.00  0.00    -0.261 N 
ATOM      8  H8  UNL     1      20.606  40.863  34.495  1.00  0.00     0.190 HD
BRANCH   7   9
HETATM    9  N7  UNL     1      22.221  42.173  34.720  1.00  0.00    -0.130 N 
HETATM   10  C16 UNL     1      23.199  41.628  33.855  1.00  0.00     0.703 C 
HETATM   11  N6  UNL     1      22.929  41.662  32.600  1.00  0.00    -0.161 N 
HETATM   12  N11 UNL     1      24.404  41.071  34.299  1.00  0.00    -0.142 N 
HETATM   13  C15 UNL     1      23.859  41.138  31.669  1.00  0.00     0.221 C 
ATOM     14  H6  UNL     1      22.050  42.065  32.276  1.00  0.00     0.187 HD
HETATM   15  N4  UNL     1      23.726  39.935  31.255  1.00  0.00    -0.270 N 
HETATM   16  N5  UNL     1      24.938  41.967  31.204  1.00  0.00    -0.061 NA
ATOM     17  H4  UNL     1      24.395  39.556  30.584  1.00  0.00     0.189 HD
HETATM   18  C19 UNL     1      24.767  41.005  35.685  1.00  0.00     0.347 C 
ATOM     19  H11 UNL     1      25.052  40.695  33.606  1.00  0.00     0.189 HD
HETATM   20  N12 UNL     1      26.000  40.429  36.086  1.00  0.00    -0.039 NA
HETATM   21  O4  UNL     1      24.015  41.449  36.576  1.00  0.00    -0.250 OA
ATOM     22  H7  UNL     1      22.287  43.147  35.016  1.00  0.00     0.205 HD
BRANCH  15  23
HETATM   23  N3  UNL     1      22.688  39.143  31.704  1.00  0.00    -0.259 N 
HETATM   24  C14 UNL     1      22.921  38.206  32.725  1.00  0.00     0.329 C 
HETATM   25  O3  UNL     1      24.075  38.104  33.213  1.00  0.00    -0.261 OA
ATOM     26  H3  UNL     1      21.758  39.236  31.296  1.00  0.00     0.190 HD
BRANCH  24  27
HETATM   27  C13 UNL     1      21.853  37.364  33.217  1.00  0.00     0.329 C 
HETATM   28  N2  UNL     1      22.070  36.511  34.343  1.00  0.00    -0.259 N 
ATOM     29  H2  UNL     1      22.996  36.525  34.768  1.00  0.00     0.190 HD
HETATM   30  O2  UNL     1      20.712  37.333  32.704  1.00  0.00    -0.261 OA
BRANCH  28  31
HETATM   31  N1  UNL     1      21.136  35.677  34.899  1.00  0.00    -0.263 N 
HETATM   32  C12 UNL     1      21.067  34.290  34.529  1.00  0.00     0.265 C 
HETATM   33  O1  UNL     1      21.908  33.923  33.673  1.00  0.00    -0.266 OA
ATOM     34  H1  UNL     1      20.479  36.047  35.585  1.00  0.00     0.190 HD
BRANCH  32  35
HETATM   35  C2  UNL     1      20.088  33.409  35.125  1.00  0.00     0.004 C 
HETATM   36  C1  UNL     1      20.456  32.756  36.448  1.00  0.00     0.054 C 
HETATM   37  C3  UNL     1      18.944  33.126  34.605  1.00  0.00    -0.014 C 
BRANCH  37  38
HETATM   38  C4  UNL     1      18.295  33.570  33.377  1.00  0.00     0.032 C 
BRANCH  38  39
HETATM   39  C5  UNL     1      16.793  33.597  33.576  1.00  0.00     0.042 C 
BRANCH  39  40
HETATM   40  C6  UNL     1      16.090  32.421  33.055  1.00  0.00    -0.058 A 
HETATM   41  C7  UNL     1      16.707  31.222  32.785  1.00  0.00     0.007 A 
HETATM   42  C8  UNL     1      15.997  30.131  32.300  1.00  0.00     0.001 A 
HETATM   43  C9  UNL     1      14.635  30.231  32.076  1.00  0.00     0.000 A 
HETATM   44  C10 UNL     1      14.012  31.423  32.342  1.00  0.00     0.001 A 
HETATM   45  C11 UNL     1      14.735  32.506  32.826  1.00  0.00     0.007 A 
ENDBRANCH  39  40
ENDBRANCH  38  39
ENDBRANCH  37  38
ENDBRANCH  32  35
ENDBRANCH  28  31
ENDBRANCH  24  27
ENDBRANCH  15  23
ENDBRANCH   7   9
ENDBRANCH   5   7
ENDBRANCH   1   5
TORSDOF 10
ENDMDL
MODEL 3
REMARK VINA RESULT: -8.403909229      3.280      8.774
REMARK  10 active torsions:
REMARK  status: ('A' for Active; 'I' for Inactive)
REMARK    1  A    between atoms: C2_2  and  C12_12 
REMARK    2  A    between atoms: C3_3  and  C4_4 
REMARK    3  A    between atoms: C4_4  and  C5_5 
REMARK    4  A    between atoms: C5_5  and  C6_6 
REMARK       I    between atoms: C12_12  and  N1_14 
REMARK    5  A    between atoms: N1_14  and  N2_16 
REMARK       I    between atoms: N2_16  and  C13_18 
REMARK    6  A    between atoms: C13_18  and  C14_20 
REMARK       I    between atoms: C14_20  and  N3_22 
REMARK    7  A    between atoms: N3_22  and  N4_24 
REMARK       I    between atoms: C15_26  and  N6_28 
REMARK       I    between atoms: C16_30  and  N7_31 
REMARK       I    between atoms: C16_30  and  N11_41 
REMARK    8  A    between atoms: N7_31  and  N8_33 
REMARK    9  A    between atoms: N8_33  and  C17_35 
REMARK   10  A    between atoms: C17_35  and  N9_37 
REMARK       I    between atoms: N11_41  and  C19_43 
ROOT
HETATM    1  N9  UNL     1      22.227  39.448  35.044  1.00  0.00    -0.269 N 
ATOM      2  H9  UNL     1      22.463  39.570  34.059  1.00  0.00     0.180 HD
HETATM    3  C18 UNL     1      23.123  39.889  36.048  1.00  0.00     0.184 C 
HETATM    4  N10 UNL     1      23.849  40.249  36.875  1.00  0.00    -0.172 NA
ENDROOT
BRANCH   1   5
HETATM    5  C17 UNL     1      21.014  38.843  35.408  1.00  0.00     0.200 C 
HETATM    6  S1  UNL     1      20.615  38.683  36.979  1.00  0.00    -0.038 SA
BRANCH   5   7
HETATM    7  N8  UNL     1      20.115  38.360  34.428  1.00  0.00    -0.261 N 
ATOM      8  H8  UNL     1      19.690  39.007  33.764  1.00  0.00     0.190 HD
BRANCH   7   9
HETATM    9  N7  UNL     1      19.811  37.008  34.368  1.00  0.00    -0.130 N 
HETATM   10  C16 UNL     1      20.798  36.079  33.961  1.00  0.00     0.703 C 
HETATM   11  N6  UNL     1      21.577  35.639  34.882  1.00  0.00    -0.161 N 
HETATM   12  N11 UNL     1      20.953  35.640  32.641  1.00  0.00    -0.142 N 
HETATM   13  C15 UNL     1      22.590  34.704  34.554  1.00  0.00     0.221 C 
ATOM     14  H6  UNL     1      21.467  35.961  35.844  1.00  0.00     0.187 HD
HETATM   15  N4  UNL     1      23.775  35.119  34.309  1.00  0.00    -0.270 N 
HETATM   16  N5  UNL     1      22.270  33.303  34.504  1.00  0.00    -0.061 NA
ATOM     17  H4  UNL     1      24.505  34.447  34.073  1.00  0.00     0.189 HD
HETATM   18  C19 UNL     1      20.114  36.090  31.567  1.00  0.00     0.347 C 
ATOM     19  H11 UNL     1      21.695  34.971  32.433  1.00  0.00     0.189 HD
HETATM   20  N12 UNL     1      20.312  35.617  30.245  1.00  0.00    -0.039 NA
HETATM   21  O4  UNL     1      19.191  36.907  31.762  1.00  0.00    -0.250 OA
ATOM     22  H7  UNL     1      18.877  36.684  34.618  1.00  0.00     0.205 HD
BRANCH  15  23
HETATM   23  N3  UNL     1      24.078  36.465  34.359  1.00  0.00    -0.259 N 
HETATM   24  C14 UNL     1      25.044  36.993  33.485  1.00  0.00     0.329 C 
HETATM   25  O3  UNL     1      25.618  36.226  32.671  1.00  0.00    -0.261 OA
ATOM     26  H3  UNL     1      23.604  37.073  35.026  1.00  0.00     0.190 HD
BRANCH  24  27
HETATM   27  C13 UNL     1      25.380  38.399  33.513  1.00  0.00     0.329 C 
HETATM   28  N2  UNL     1      24.798  39.297  32.566  1.00  0.00    -0.259 N 
ATOM     29  H2  UNL     1      24.151  38.902  31.884  1.00  0.00     0.190 HD
HETATM   30  O2  UNL     1      26.175  38.898  34.340  1.00  0.00    -0.261 OA
BRANCH  28  31
HETATM   31  N1  UNL     1      25.036  40.644  32.499  1.00  0.00    -0.263 N 
HETATM   32  C12 UNL     1      23.952  41.588  32.461  1.00  0.00     0.265 C 
HETATM   33  O1  UNL     1      22.804  41.084  32.485  1.00  0.00    -0.266 OA
ATOM     34  H1  UNL     1      25.997  40.983  32.477  1.00  0.00     0.190 HD
BRANCH  32  35
HETATM   35  C2  UNL     1      24.206  43.011  32.401  1.00  0.00     0.004 C 
HETATM   36  C1  UNL     1      23.249  43.918  33.157  1.00  0.00     0.054 C 
HETATM   37  C3  UNL     1      25.167  43.556  31.740  1.00  0.00    -0.014 C 
BRANCH  37  38
HETATM   38  C4  UNL     1      26.237  42.989  30.928  1.00  0.00     0.032 C 
BRANCH  38  39
HETATM   39  C5  UNL     1      27.496  42.861  31.761  1.00  0.00     0.042 C 
BRANCH  39  40
HETATM   40  C6  UNL     1      28.269  44.100  31.887  1.00  0.00    -0.058 A 
HETATM   41  C7  UNL     1      28.259  45.104  30.947  1.00  0.00     0.007 A 
HETATM   42  C8  UNL     1      29.001  46.267  31.115  1.00  0.00     0.001 A 
HETATM   43  C9  UNL     1      29.776  46.439  32.247  1.00  0.00     0.000 A 
HETATM   44  C10 UNL     1      29.793  45.444  33.190  1.00  0.00     0.001 A 
HETATM   45  C11 UNL     1      29.046  44.286  33.009  1.00  0.00     0.007 A 
ENDBRANCH  39  40
ENDBRANCH  38  39
ENDBRANCH  37  38
ENDBRANCH  32  35
ENDBRANCH  28  31
ENDBRANCH  24  27
ENDBRANCH  15  23
ENDBRANCH   7   9
ENDBRANCH   5   7
ENDBRANCH   1   5
TORSDOF 10
ENDMDL
MODEL 4
REMARK VINA RESULT: -8.402831503      2.935      5.495
REMARK  10 active torsions:
REMARK  status: ('A' for Active; 'I' for Inactive)
REMARK    1  A    between atoms: C2_2  and  C12_12 
REMARK    2  A    between atoms: C3_3  and  C4_4 
REMARK    3  A    between atoms: C4_4  and  C5_5 
REMARK    4  A    between atoms: C5_5  and  C6_6 
REMARK       I    between atoms: C12_12  and  N1_14 
REMARK    5  A    between atoms: N1_14  and  N2_16 
REMARK       I    between atoms: N2_16  and  C13_18 
REMARK    6  A    between atoms: C13_18  and  C14_20 
REMARK       I    between atoms: C14_20  and  N3_22 
REMARK    7  A    between atoms: N3_22  and  N4_24 
REMARK       I    between atoms: C15_26  and  N6_28 
REMARK       I    between atoms: C16_30  and  N7_31 
REMARK       I    between atoms: C16_30  and  N11_41 
REMARK    8  A    between atoms: N7_31  and  N8_33 
REMARK    9  A    between atoms: N8_33  and  C17_35 
REMARK   10  A    between atoms: C17_35  and  N9_37 
REMARK       I    between atoms: N11_41  and  C19_43 
ROOT
HETATM    1  N9  UNL     1      25.962  37.848  33.584  1.00  0.00    -0.269 N 
ATOM      2  H9  UNL     1      26.866  37.682  33.141  1.00  0.00     0.180 HD
HETATM    3  C18 UNL     1      24.972  36.835  33.577  1.00  0.00     0.184 C 
HETATM    4  N10 UNL     1      24.158  36.011  33.579  1.00  0.00    -0.172 NA
ENDROOT
BRANCH   1   5
HETATM    5  C17 UNL     1      25.696  39.080  34.201  1.00  0.00     0.200 C 
HETATM    6  S1  UNL     1      25.325  39.140  35.787  1.00  0.00    -0.038 SA
BRANCH   5   7
HETATM    7  N8  UNL     1      25.742  40.290  33.470  1.00  0.00    -0.261 N 
ATOM      8  H8  UNL     1      25.796  40.267  32.451  1.00  0.00     0.190 HD
BRANCH   7   9
HETATM    9  N7  UNL     1      25.713  41.506  34.134  1.00  0.00    -0.130 N 
HETATM   10  C16 UNL     1      24.513  42.253  34.190  1.00  0.00     0.703 C 
HETATM   11  N6  UNL     1      23.707  41.961  35.146  1.00  0.00    -0.161 N 
HETATM   12  N11 UNL     1      24.181  43.259  33.274  1.00  0.00    -0.142 N 
HETATM   13  C15 UNL     1      22.483  42.665  35.270  1.00  0.00     0.221 C 
ATOM     14  H6  UNL     1      23.945  41.226  35.811  1.00  0.00     0.187 HD
HETATM   15  N4  UNL     1      21.418  42.174  34.760  1.00  0.00    -0.270 N 
HETATM   16  N5  UNL     1      22.459  43.922  35.969  1.00  0.00    -0.061 NA
ATOM     17  H4  UNL     1      20.537  42.680  34.850  1.00  0.00     0.189 HD
HETATM   18  C19 UNL     1      25.038  43.635  32.187  1.00  0.00     0.347 C 
ATOM     19  H11 UNL     1      23.291  43.745  33.385  1.00  0.00     0.189 HD
HETATM   20  N12 UNL     1      24.657  44.660  31.284  1.00  0.00    -0.039 NA
HETATM   21  O4  UNL     1      26.138  43.076  32.003  1.00  0.00    -0.250 OA
ATOM     22  H7  UNL     1      26.557  41.863  34.583  1.00  0.00     0.205 HD
BRANCH  15  23
HETATM   23  N3  UNL     1      21.446  40.967  34.090  1.00  0.00    -0.259 N 
HETATM   24  C14 UNL     1      21.468  39.767  34.821  1.00  0.00     0.329 C 
HETATM   25  O3  UNL     1      21.464  39.814  36.077  1.00  0.00    -0.261 OA
ATOM     26  H3  UNL     1      21.452  40.946  33.071  1.00  0.00     0.190 HD
BRANCH  24  27
HETATM   27  C13 UNL     1      21.496  38.488  34.147  1.00  0.00     0.329 C 
HETATM   28  N2  UNL     1      21.223  37.287  34.872  1.00  0.00    -0.259 N 
ATOM     29  H2  UNL     1      21.017  37.377  35.866  1.00  0.00     0.190 HD
HETATM   30  O2  UNL     1      21.751  38.360  32.929  1.00  0.00    -0.261 OA
BRANCH  28  31
HETATM   31  N1  UNL     1      21.215  36.024  34.341  1.00  0.00    -0.263 N 
HETATM   32  C12 UNL     1      20.330  35.012  34.848  1.00  0.00     0.265 C 
HETATM   33  O1  UNL     1      19.592  35.374  35.795  1.00  0.00    -0.266 OA
ATOM     34  H1  UNL     1      21.848  35.799  33.573  1.00  0.00     0.190 HD
BRANCH  32  35
HETATM   35  C2  UNL     1      20.316  33.682  34.278  1.00  0.00     0.004 C 
HETATM   36  C1  UNL     1      21.485  32.771  34.616  1.00  0.00     0.054 C 
HETATM   37  C3  UNL     1      19.399  33.230  33.495  1.00  0.00    -0.014 C 
BRANCH  37  38
HETATM   38  C4  UNL     1      18.172  33.829  32.983  1.00  0.00     0.032 C 
BRANCH  38  39
HETATM   39  C5  UNL     1      16.994  33.372  33.821  1.00  0.00     0.042 C 
BRANCH  39  40
HETATM   40  C6  UNL     1      16.132  32.383  33.167  1.00  0.00    -0.058 A 
HETATM   41  C7  UNL     1      14.795  32.585  32.914  1.00  0.00     0.007 A 
HETATM   42  C8  UNL     1      14.020  31.620  32.282  1.00  0.00     0.001 A 
HETATM   43  C9  UNL     1      14.586  30.420  31.890  1.00  0.00     0.000 A 
HETATM   44  C10 UNL     1      15.918  30.210  32.138  1.00  0.00     0.001 A 
HETATM   45  C11 UNL     1      16.681  31.183  32.771  1.00  0.00     0.007 A 
ENDBRANCH  39  40
ENDBRANCH  38  39
ENDBRANCH  37  38
ENDBRANCH  32  35
ENDBRANCH  28  31
ENDBRANCH  24  27
ENDBRANCH  15  23
ENDBRANCH   7   9
ENDBRANCH   5   7
ENDBRANCH   1   5
TORSDOF 10
ENDMDL
MODEL 5
REMARK VINA RESULT: -8.384203744      3.989      9.850
REMARK  10 active torsions:
REMARK  status: ('A' for Active; 'I' for Inactive)
REMARK    1  A    between atoms: C2_2  and  C12_12 
REMARK    2  A    between atoms: C3_3  and  C4_4 
REMARK    3  A    between atoms: C4_4  and  C5_5 
REMARK    4  A    between atoms: C5_5  and  C6_6 
REMARK       I    between atoms: C12_12  and  N1_14 
REMARK    5  A    between atoms: N1_14  and  N2_16 
REMARK       I    between atoms: N2_16  and  C13_18 
REMARK    6  A    between atoms: C13_18  and  C14_20 
REMARK       I    between atoms: C14_20  and  N3_22 
REMARK    7  A    between atoms: N3_22  and  N4_24 
REMARK       I    between atoms: C15_26  and  N6_28 
REMARK       I    between atoms: C16_30  and  N7_31 
REMARK       I    between atoms: C16_30  and  N11_41 
REMARK    8  A    between atoms: N7_31  and  N8_33 
REMARK    9  A    between atoms: N8_33  and  C17_35 
REMARK   10  A    between atoms: C17_35  and  N9_37 
REMARK       I    between atoms: N11_41  and  C19_43 
ROOT
HETATM    1  N9  UNL     1      19.953  36.526  30.759  1.00  0.00    -0.269 N 
ATOM      2  H9  UNL     1      18.984  36.699  31.031  1.00  0.00     0.180 HD
HETATM    3  C18 UNL     1      20.256  36.103  29.442  1.00  0.00     0.184 C 
HETATM    4  N10 UNL     1      20.512  35.760  28.366  1.00  0.00    -0.172 NA
ENDROOT
BRANCH   1   5
HETATM    5  C17 UNL     1      20.988  36.708  31.690  1.00  0.00     0.200 C 
HETATM    6  S1  UNL     1      21.788  38.126  31.762  1.00  0.00    -0.038 SA
BRANCH   5   7
HETATM    7  N8  UNL     1      21.361  35.674  32.580  1.00  0.00    -0.261 N 
ATOM      8  H8  UNL     1      22.221  35.149  32.419  1.00  0.00     0.190 HD
BRANCH   7   9
HETATM    9  N7  UNL     1      20.560  35.372  33.670  1.00  0.00    -0.130 N 
HETATM   10  C16 UNL     1      20.839  35.946  34.933  1.00  0.00     0.703 C 
HETATM   11  N6  UNL     1      20.329  37.103  35.156  1.00  0.00    -0.161 N 
HETATM   12  N11 UNL     1      21.624  35.325  35.911  1.00  0.00    -0.142 N 
HETATM   13  C15 UNL     1      20.561  37.744  36.398  1.00  0.00     0.221 C 
ATOM     14  H6  UNL     1      19.759  37.558  34.442  1.00  0.00     0.187 HD
HETATM   15  N4  UNL     1      21.515  38.589  36.502  1.00  0.00    -0.270 N 
HETATM   16  N5  UNL     1      19.720  37.433  37.522  1.00  0.00    -0.061 NA
ATOM     17  H4  UNL     1      21.684  39.051  37.396  1.00  0.00     0.189 HD
HETATM   18  C19 UNL     1      22.220  34.033  35.726  1.00  0.00     0.347 C 
ATOM     19  H11 UNL     1      21.780  35.812  36.794  1.00  0.00     0.189 HD
HETATM   20  N12 UNL     1      23.009  33.445  36.747  1.00  0.00    -0.039 NA
HETATM   21  O4  UNL     1      22.063  33.390  34.668  1.00  0.00    -0.250 OA
ATOM     22  H7  UNL     1      19.769  34.737  33.562  1.00  0.00     0.205 HD
BRANCH  15  23
HETATM   23  N3  UNL     1      22.320  38.885  35.420  1.00  0.00    -0.259 N 
HETATM   24  C14 UNL     1      23.715  38.760  35.538  1.00  0.00     0.329 C 
HETATM   25  O3  UNL     1      24.207  38.382  36.630  1.00  0.00    -0.261 OA
ATOM     26  H3  UNL     1      21.905  39.192  34.541  1.00  0.00     0.190 HD
BRANCH  24  27
HETATM   27  C13 UNL     1      24.583  39.060  34.421  1.00  0.00     0.329 C 
HETATM   28  N2  UNL     1      24.607  40.376  33.862  1.00  0.00    -0.259 N 
ATOM     29  H2  UNL     1      23.992  41.073  34.281  1.00  0.00     0.190 HD
HETATM   30  O2  UNL     1      25.340  38.216  33.893  1.00  0.00    -0.261 OA
BRANCH  28  31
HETATM   31  N1  UNL     1      25.389  40.778  32.811  1.00  0.00    -0.263 N 
HETATM   32  C12 UNL     1      25.112  41.999  32.106  1.00  0.00     0.265 C 
HETATM   33  O1  UNL     1      24.117  42.641  32.520  1.00  0.00    -0.266 OA
ATOM     34  H1  UNL     1      26.180  40.201  32.525  1.00  0.00     0.190 HD
BRANCH  32  35
HETATM   35  C2  UNL     1      25.945  42.427  31.003  1.00  0.00     0.004 C 
HETATM   36  C1  UNL     1      25.781  41.690  29.684  1.00  0.00     0.054 C 
HETATM   37  C3  UNL     1      26.823  43.366  31.070  1.00  0.00    -0.014 C 
BRANCH  37  38
HETATM   38  C4  UNL     1      27.223  44.251  32.158  1.00  0.00     0.032 C 
BRANCH  38  39
HETATM   39  C5  UNL     1      28.713  44.519  32.075  1.00  0.00     0.042 C 
BRANCH  39  40
HETATM   40  C6  UNL     1      29.063  45.846  31.562  1.00  0.00    -0.058 A 
HETATM   41  C7  UNL     1      29.068  46.170  30.225  1.00  0.00     0.007 A 
HETATM   42  C8  UNL     1      29.398  47.447  29.787  1.00  0.00     0.001 A 
HETATM   43  C9  UNL     1      29.734  48.431  30.700  1.00  0.00     0.000 A 
HETATM   44  C10 UNL     1      29.732  48.117  32.035  1.00  0.00     0.001 A 
HETATM   45  C11 UNL     1      29.400  46.836  32.459  1.00  0.00     0.007 A 
ENDBRANCH  39  40
ENDBRANCH  38  39
ENDBRANCH  37  38
ENDBRANCH  32  35
ENDBRANCH  28  31
ENDBRANCH  24  27
ENDBRANCH  15  23
ENDBRANCH   7   9
ENDBRANCH   5   7
ENDBRANCH   1   5
TORSDOF 10
ENDMDL
