MODEL 1
REMARK VINA RESULT: -6.109244952      0.000      0.000
REMARK  6 active torsions:
REMARK  status: ('A' for Active; 'I' for Inactive)
REMARK    1  A    between atoms: C2_2  and  C3_3 
REMARK    2  A    between atoms: C7_7  and  N1_8 
REMARK       I    between atoms: N1_8  and  C8_10 
REMARK    3  A    between atoms: N3_12  and  C9_14 
REMARK    4  A    between atoms: N4_16  and  C11_18 
REMARK    5  A    between atoms: C11_18  and  N5_20 
REMARK    6  A    between atoms: N5_20  and  C12_22 
ROOT
HETATM    1  N1  UNL     1      24.288  10.519  33.962  1.00  0.00    -0.360 N 
ATOM      2  H1  UNL     1      24.248  10.209  34.933  1.00  0.00     0.162 HD
HETATM    3  C8  UNL     1      23.682  11.746  33.624  1.00  0.00     0.189 C 
HETATM    4  N2  UNL     1      22.285  11.887  33.812  1.00  0.00    -0.063 NA
HETATM    5  N3  UNL     1      24.386  12.693  33.164  1.00  0.00    -0.321 N 
ATOM      6  H3  UNL     1      25.384  12.518  33.056  1.00  0.00     0.169 HD
ENDROOT
BRANCH   1   7
HETATM    7  C7  UNL     1      24.964   9.675  32.996  1.00  0.00     0.084 C 
HETATM    8  C6  UNL     1      26.432   9.740  33.290  1.00  0.00     0.025 C 
HETATM    9  C5  UNL     1      27.258   8.797  32.470  1.00  0.00     0.003 C 
HETATM   10  C4  UNL     1      26.606   7.514  32.146  1.00  0.00     0.009 C 
HETATM   11  C3  UNL     1      25.352   7.186  32.878  1.00  0.00     0.009 C 
HETATM   12  C14 UNL     1      24.386   8.299  33.062  1.00  0.00     0.033 C 
BRANCH  11  13
HETATM   13  C2  UNL     1      25.584   6.469  34.178  1.00  0.00    -0.032 C 
HETATM   14  C1  UNL     1      25.117   6.850  35.331  1.00  0.00     0.007 C 
ENDBRANCH  11  13
ENDBRANCH   1   7
BRANCH   5  15
HETATM   15  C9  UNL     1      23.913  13.967  32.787  1.00  0.00     0.081 C 
HETATM   16  C10 UNL     1      24.147  15.111  33.687  1.00  0.00     0.089 C 
HETATM   17  N4  UNL     1      23.299  14.125  31.695  1.00  0.00    -0.323 N 
ATOM     18  H4  UNL     1      23.171  13.294  31.117  1.00  0.00     0.169 HD
BRANCH  17  19
HETATM   19  C11 UNL     1      22.776  15.325  31.197  1.00  0.00     0.172 C 
HETATM   20  S1  UNL     1      23.657  16.411  30.359  1.00  0.00    -0.041 SA
BRANCH  19  21
HETATM   21  N5  UNL     1      21.404  15.629  31.428  1.00  0.00    -0.367 N 
ATOM     22  H5  UNL     1      20.694  15.092  30.928  1.00  0.00     0.161 HD
BRANCH  21  23
HETATM   23  C12 UNL     1      20.977  16.659  32.334  1.00  0.00     0.117 C 
HETATM   24  C13 UNL     1      19.486  16.883  32.357  1.00  0.00     0.026 C 
ENDBRANCH  21  23
ENDBRANCH  19  21
ENDBRANCH  17  19
ENDBRANCH   5  15
TORSDOF 6
ENDMDL
MODEL 2
REMARK VINA RESULT: -5.786551119      1.480      1.769
REMARK  6 active torsions:
REMARK  status: ('A' for Active; 'I' for Inactive)
REMARK    1  A    between atoms: C2_2  and  C3_3 
REMARK    2  A    between atoms: C7_7  and  N1_8 
REMARK       I    between atoms: N1_8  and  C8_10 
REMARK    3  A    between atoms: N3_12  and  C9_14 
REMARK    4  A    between atoms: N4_16  and  C11_18 
REMARK    5  A    between atoms: C11_18  and  N5_20 
REMARK    6  A    between atoms: N5_20  and  C12_22 
ROOT
HETATM    1  N1  UNL     1      24.557  11.182  33.287  1.00  0.00    -0.360 N 
ATOM      2  H1  UNL     1      24.809  10.834  34.212  1.00  0.00     0.162 HD
HETATM    3  C8  UNL     1      23.663  12.269  33.200  1.00  0.00     0.189 C 
HETATM    4  N2  UNL     1      22.350  12.110  33.708  1.00  0.00    -0.063 NA
HETATM    5  N3  UNL     1      24.041  13.358  32.676  1.00  0.00    -0.321 N 
ATOM      6  H3  UNL     1      25.001  13.399  32.333  1.00  0.00     0.169 HD
ENDROOT
BRANCH   1   7
HETATM    7  C7  UNL     1      25.135  10.535  32.126  1.00  0.00     0.084 C 
HETATM    8  C6  UNL     1      26.612  10.425  32.359  1.00  0.00     0.025 C 
HETATM    9  C5  UNL     1      27.335   9.637  31.310  1.00  0.00     0.003 C 
HETATM   10  C4  UNL     1      26.573   8.512  30.736  1.00  0.00     0.009 C 
HETATM   11  C3  UNL     1      25.317   8.118  31.432  1.00  0.00     0.009 C 
HETATM   12  C14 UNL     1      24.450   9.226  31.907  1.00  0.00     0.033 C 
BRANCH  11  13
HETATM   13  C2  UNL     1      25.528   7.107  32.526  1.00  0.00    -0.032 C 
HETATM   14  C1  UNL     1      25.049   7.206  33.731  1.00  0.00     0.007 C 
ENDBRANCH  11  13
ENDBRANCH   1   7
BRANCH   5  15
HETATM   15  C9  UNL     1      23.256  14.520  32.524  1.00  0.00     0.081 C 
HETATM   16  C10 UNL     1      23.152  15.143  31.192  1.00  0.00     0.089 C 
HETATM   17  N4  UNL     1      22.653  15.018  33.515  1.00  0.00    -0.323 N 
ATOM     18  H4  UNL     1      22.764  14.539  34.408  1.00  0.00     0.169 HD
BRANCH  17  19
HETATM   19  C11 UNL     1      21.844  16.163  33.511  1.00  0.00     0.172 C 
HETATM   20  S1  UNL     1      22.421  17.672  33.718  1.00  0.00    -0.041 SA
BRANCH  19  21
HETATM   21  N5  UNL     1      20.441  16.015  33.318  1.00  0.00    -0.367 N 
ATOM     22  H5  UNL     1      19.917  15.432  33.971  1.00  0.00     0.161 HD
BRANCH  21  23
HETATM   23  C12 UNL     1      19.732  16.652  32.242  1.00  0.00     0.117 C 
HETATM   24  C13 UNL     1      18.694  17.649  32.693  1.00  0.00     0.026 C 
ENDBRANCH  21  23
ENDBRANCH  19  21
ENDBRANCH  17  19
ENDBRANCH   5  15
TORSDOF 6
ENDMDL
MODEL 3
REMARK VINA RESULT: -5.786468402      1.480      1.856
REMARK  6 active torsions:
REMARK  status: ('A' for Active; 'I' for Inactive)
REMARK    1  A    between atoms: C2_2  and  C3_3 
REMARK    2  A    between atoms: C7_7  and  N1_8 
REMARK       I    between atoms: N1_8  and  C8_10 
REMARK    3  A    between atoms: N3_12  and  C9_14 
REMARK    4  A    between atoms: N4_16  and  C11_18 
REMARK    5  A    between atoms: C11_18  and  N5_20 
REMARK    6  A    between atoms: N5_20  and  C12_22 
ROOT
HETATM    1  N1  UNL     1      24.275  10.676  33.484  1.00  0.00    -0.360 N 
ATOM      2  H1  UNL     1      24.383  10.267  34.411  1.00  0.00     0.162 HD
HETATM    3  C8  UNL     1      23.639  11.931  33.375  1.00  0.00     0.189 C 
HETATM    4  N2  UNL     1      22.291  12.046  33.794  1.00  0.00    -0.063 NA
HETATM    5  N3  UNL     1      24.275  12.922  32.911  1.00  0.00    -0.321 N 
ATOM      6  H3  UNL     1      25.242  12.763  32.630  1.00  0.00     0.169 HD
ENDROOT
BRANCH   1   7
HETATM    7  C7  UNL     1      24.780   9.941  32.341  1.00  0.00     0.084 C 
HETATM    8  C6  UNL     1      26.275  10.058  32.355  1.00  0.00     0.025 C 
HETATM    9  C5  UNL     1      26.958   9.221  31.318  1.00  0.00     0.003 C 
HETATM   10  C4  UNL     1      26.302   7.933  31.021  1.00  0.00     0.009 C 
HETATM   11  C3  UNL     1      25.226   7.490  31.949  1.00  0.00     0.009 C 
HETATM   12  C14 UNL     1      24.275   8.536  32.404  1.00  0.00     0.033 C 
BRANCH  11  13
HETATM   13  C2  UNL     1      25.732   6.692  33.119  1.00  0.00    -0.032 C 
HETATM   14  C1  UNL     1      25.280   6.789  34.335  1.00  0.00     0.007 C 
ENDBRANCH  11  13
ENDBRANCH   1   7
BRANCH   5  15
HETATM   15  C9  UNL     1      23.766  14.227  32.747  1.00  0.00     0.081 C 
HETATM   16  C10 UNL     1      24.219  15.292  33.662  1.00  0.00     0.089 C 
HETATM   17  N4  UNL     1      22.934  14.480  31.832  1.00  0.00    -0.323 N 
ATOM     18  H4  UNL     1      22.662  13.701  31.232  1.00  0.00     0.169 HD
BRANCH  17  19
HETATM   19  C11 UNL     1      22.348  15.722  31.555  1.00  0.00     0.172 C 
HETATM   20  S1  UNL     1      20.989  16.257  32.278  1.00  0.00    -0.041 SA
BRANCH  19  21
HETATM   21  N5  UNL     1      22.960  16.575  30.591  1.00  0.00    -0.367 N 
ATOM     22  H5  UNL     1      22.864  16.342  29.603  1.00  0.00     0.161 HD
BRANCH  21  23
HETATM   23  C12 UNL     1      23.707  17.748  30.954  1.00  0.00     0.117 C 
HETATM   24  C13 UNL     1      24.513  18.339  29.826  1.00  0.00     0.026 C 
ENDBRANCH  21  23
ENDBRANCH  19  21
ENDBRANCH  17  19
ENDBRANCH   5  15
TORSDOF 6
ENDMDL
MODEL 4
REMARK VINA RESULT: -5.624633526      1.470      1.659
REMARK  6 active torsions:
REMARK  status: ('A' for Active; 'I' for Inactive)
REMARK    1  A    between atoms: C2_2  and  C3_3 
REMARK    2  A    between atoms: C7_7  and  N1_8 
REMARK       I    between atoms: N1_8  and  C8_10 
REMARK    3  A    between atoms: N3_12  and  C9_14 
REMARK    4  A    between atoms: N4_16  and  C11_18 
REMARK    5  A    between atoms: C11_18  and  N5_20 
REMARK    6  A    between atoms: N5_20  and  C12_22 
ROOT
HETATM    1  N1  UNL     1      25.052  10.399  32.759  1.00  0.00    -0.360 N 
ATOM      2  H1  UNL     1      24.927   9.823  33.591  1.00  0.00     0.162 HD
HETATM    3  C8  UNL     1      24.287  11.578  32.639  1.00  0.00     0.189 C 
HETATM    4  N2  UNL     1      22.876  11.468  32.585  1.00  0.00    -0.063 NA
HETATM    5  N3  UNL     1      24.866  12.703  32.582  1.00  0.00    -0.321 N 
ATOM      6  H3  UNL     1      25.884  12.703  32.627  1.00  0.00     0.169 HD
ENDROOT
BRANCH   1   7
HETATM    7  C7  UNL     1      26.006   9.966  31.758  1.00  0.00     0.084 C 
HETATM    8  C6  UNL     1      27.344   9.862  32.424  1.00  0.00     0.025 C 
HETATM    9  C5  UNL     1      28.413   9.277  31.553  1.00  0.00     0.003 C 
HETATM   10  C4  UNL     1      27.953   8.239  30.611  1.00  0.00     0.009 C 
HETATM   11  C3  UNL     1      26.580   7.700  30.812  1.00  0.00     0.009 C 
HETATM   12  C14 UNL     1      25.525   8.691  31.146  1.00  0.00     0.033 C 
BRANCH  11  13
HETATM   13  C2  UNL     1      26.525   6.532  31.757  1.00  0.00    -0.032 C 
HETATM   14  C1  UNL     1      27.455   5.631  31.879  1.00  0.00     0.007 C 
ENDBRANCH  11  13
ENDBRANCH   1   7
BRANCH   5  15
HETATM   15  C9  UNL     1      24.229  13.955  32.462  1.00  0.00     0.081 C 
HETATM   16  C10 UNL     1      24.246  14.879  33.612  1.00  0.00     0.089 C 
HETATM   17  N4  UNL     1      23.651  14.280  31.388  1.00  0.00    -0.323 N 
ATOM     18  H4  UNL     1      23.676  13.597  30.630  1.00  0.00     0.169 HD
BRANCH  17  19
HETATM   19  C11 UNL     1      22.981  15.483  31.130  1.00  0.00     0.172 C 
HETATM   20  S1  UNL     1      23.710  16.804  30.514  1.00  0.00    -0.041 SA
BRANCH  19  21
HETATM   21  N5  UNL     1      21.589  15.572  31.417  1.00  0.00    -0.367 N 
ATOM     22  H5  UNL     1      20.961  14.875  31.016  1.00  0.00     0.161 HD
BRANCH  21  23
HETATM   23  C12 UNL     1      21.032  16.604  32.249  1.00  0.00     0.117 C 
HETATM   24  C13 UNL     1      19.529  16.709  32.178  1.00  0.00     0.026 C 
ENDBRANCH  21  23
ENDBRANCH  19  21
ENDBRANCH  17  19
ENDBRANCH   5  15
TORSDOF 6
ENDMDL
MODEL 5
REMARK VINA RESULT: -5.601699241      2.884      8.027
REMARK  6 active torsions:
REMARK  status: ('A' for Active; 'I' for Inactive)
REMARK    1  A    between atoms: C2_2  and  C3_3 
REMARK    2  A    between atoms: C7_7  and  N1_8 
REMARK       I    between atoms: N1_8  and  C8_10 
REMARK    3  A    between atoms: N3_12  and  C9_14 
REMARK    4  A    between atoms: N4_16  and  C11_18 
REMARK    5  A    between atoms: C11_18  and  N5_20 
REMARK    6  A    between atoms: N5_20  and  C12_22 
ROOT
HETATM    1  N1  UNL     1      22.794  13.296  32.851  1.00  0.00    -0.360 N 
ATOM      2  H1  UNL     1      21.779  13.240  32.770  1.00  0.00     0.162 HD
HETATM    3  C8  UNL     1      23.523  12.096  32.980  1.00  0.00     0.189 C 
HETATM    4  N2  UNL     1      23.287  11.277  34.112  1.00  0.00    -0.063 NA
HETATM    5  N3  UNL     1      24.368  11.771  32.094  1.00  0.00    -0.321 N 
ATOM      6  H3  UNL     1      24.484  12.410  31.308  1.00  0.00     0.169 HD
ENDROOT
BRANCH   1   7
HETATM    7  C7  UNL     1      23.416  14.604  32.827  1.00  0.00     0.084 C 
HETATM    8  C6  UNL     1      23.604  14.989  31.391  1.00  0.00     0.025 C 
HETATM    9  C5  UNL     1      24.100  16.389  31.197  1.00  0.00     0.003 C 
HETATM   10  C4  UNL     1      23.611  17.369  32.186  1.00  0.00     0.009 C 
HETATM   11  C3  UNL     1      22.495  16.939  33.073  1.00  0.00     0.009 C 
HETATM   12  C14 UNL     1      22.576  15.558  33.613  1.00  0.00     0.033 C 
BRANCH  11  13
HETATM   13  C2  UNL     1      21.132  17.199  32.492  1.00  0.00    -0.032 C 
HETATM   14  C1  UNL     1      20.232  16.287  32.272  1.00  0.00     0.007 C 
ENDBRANCH  11  13
ENDBRANCH   1   7
BRANCH   5  15
HETATM   15  C9  UNL     1      25.163  10.606  32.097  1.00  0.00     0.081 C 
HETATM   16  C10 UNL     1      26.530  10.675  32.645  1.00  0.00     0.089 C 
HETATM   17  N4  UNL     1      24.711   9.522  31.635  1.00  0.00    -0.323 N 
ATOM     18  H4  UNL     1      23.758   9.540  31.271  1.00  0.00     0.169 HD
BRANCH  17  19
HETATM   19  C11 UNL     1      25.385   8.295  31.573  1.00  0.00     0.172 C 
HETATM   20  S1  UNL     1      25.364   7.195  32.775  1.00  0.00    -0.041 SA
BRANCH  19  21
HETATM   21  N5  UNL     1      26.134   7.979  30.403  1.00  0.00    -0.367 N 
ATOM     22  H5  UNL     1      25.811   8.337  29.504  1.00  0.00     0.161 HD
BRANCH  21  23
HETATM   23  C12 UNL     1      27.325   7.175  30.437  1.00  0.00     0.117 C 
HETATM   24  C13 UNL     1      27.736   6.624  29.095  1.00  0.00     0.026 C 
ENDBRANCH  21  23
ENDBRANCH  19  21
ENDBRANCH  17  19
ENDBRANCH   5  15
TORSDOF 6
ENDMDL
