MODEL 1
REMARK VINA RESULT: -5.269060287      0.000      0.000
REMARK  2 active torsions:
REMARK  status: ('A' for Active; 'I' for Inactive)
REMARK    1  A    between atoms: C2_2  and  S1_3 
REMARK    2  A    between atoms: S1_3  and  C3_4 
ROOT
HETATM    1  C3  UNL     1      11.393  16.489   0.630  1.00  0.00     0.074 C 
HETATM    2  C4  UNL     1      10.979  15.560  -0.476  1.00  0.00     0.184 C 
HETATM    3  O1  UNL     1      10.730  14.317   0.086  1.00  0.00    -0.377 OA
HETATM    4  C5  UNL     1      10.137  14.636   1.300  1.00  0.00     0.087 C 
HETATM    5  C6  UNL     1       8.710  15.082   1.079  1.00  0.00     0.067 C 
HETATM    6  C7  UNL     1       7.901  13.893   1.545  1.00  0.00     0.235 C 
HETATM    7  N1  UNL     1       8.711  13.406   2.629  1.00  0.00    -0.072 N 
ATOM      8  H11 UNL     1       8.416  12.486   2.959  1.00  0.00     0.277 HD
ATOM      9  H12 UNL     1       8.556  13.919   3.498  1.00  0.00     0.277 HD
HETATM   10  C8  UNL     1      10.084  13.430   2.209  1.00  0.00     0.270 C 
HETATM   11  C9  UNL     1      10.996  15.725   1.888  1.00  0.00     0.057 C 
ENDROOT
BRANCH   1  12
HETATM   12  S1  UNL     1      13.186  16.740   0.699  1.00  0.00    -0.162 SA
BRANCH  12  13
HETATM   13  C2  UNL     1      13.841  16.449   2.370  1.00  0.00     0.070 C 
HETATM   14  C1  UNL     1      13.985  17.807   3.027  1.00  0.00     0.016 C 
ENDBRANCH  12  13
ENDBRANCH   1  12
TORSDOF 2
ENDMDL
MODEL 2
REMARK VINA RESULT: -5.212209728      3.107      5.226
REMARK  2 active torsions:
REMARK  status: ('A' for Active; 'I' for Inactive)
REMARK    1  A    between atoms: C2_2  and  S1_3 
REMARK    2  A    between atoms: S1_3  and  C3_4 
ROOT
HETATM    1  C3  UNL     1      10.454  15.166   3.848  1.00  0.00     0.074 C 
HETATM    2  C4  UNL     1      11.744  14.568   4.332  1.00  0.00     0.184 C 
HETATM    3  O1  UNL     1      12.679  14.699   3.318  1.00  0.00    -0.377 OA
HETATM    4  C5  UNL     1      12.378  15.942   2.776  1.00  0.00     0.087 C 
HETATM    5  C6  UNL     1      12.870  17.040   3.690  1.00  0.00     0.067 C 
HETATM    6  C7  UNL     1      14.097  17.561   2.975  1.00  0.00     0.235 C 
HETATM    7  N1  UNL     1      13.707  17.414   1.599  1.00  0.00    -0.072 N 
ATOM      8  H11 UNL     1      14.486  17.546   0.953  1.00  0.00     0.277 HD
ATOM      9  H12 UNL     1      13.123  18.184   1.271  1.00  0.00     0.277 HD
HETATM   10  C8  UNL     1      13.073  16.134   1.447  1.00  0.00     0.270 C 
HETATM   11  C9  UNL     1      10.881  15.955   2.615  1.00  0.00     0.057 C 
ENDROOT
BRANCH   1  12
HETATM   12  S1  UNL     1       9.264  13.915   3.298  1.00  0.00    -0.162 SA
BRANCH  12  13
HETATM   13  C2  UNL     1       7.762  14.673   2.608  1.00  0.00     0.070 C 
HETATM   14  C1  UNL     1       7.031  15.326   3.764  1.00  0.00     0.016 C 
ENDBRANCH  12  13
ENDBRANCH   1  12
TORSDOF 2
ENDMDL
MODEL 3
REMARK VINA RESULT: -5.177777891      2.785      4.863
REMARK  2 active torsions:
REMARK  status: ('A' for Active; 'I' for Inactive)
REMARK    1  A    between atoms: C2_2  and  S1_3 
REMARK    2  A    between atoms: S1_3  and  C3_4 
ROOT
HETATM    1  C3  UNL     1      10.182  14.726   3.558  1.00  0.00     0.074 C 
HETATM    2  C4  UNL     1      10.964  13.792   2.678  1.00  0.00     0.184 C 
HETATM    3  O1  UNL     1      11.560  14.548   1.682  1.00  0.00    -0.377 OA
HETATM    4  C5  UNL     1      11.918  15.714   2.346  1.00  0.00     0.087 C 
HETATM    5  C6  UNL     1      13.133  15.466   3.210  1.00  0.00     0.067 C 
HETATM    6  C7  UNL     1      14.247  16.136   2.437  1.00  0.00     0.235 C 
HETATM    7  N1  UNL     1      13.558  17.260   1.862  1.00  0.00    -0.072 N 
ATOM      8  H11 UNL     1      14.111  17.738   1.150  1.00  0.00     0.277 HD
ATOM      9  H12 UNL     1      13.467  18.041   2.513  1.00  0.00     0.277 HD
HETATM   10  C8  UNL     1      12.290  16.802   1.366  1.00  0.00     0.270 C 
HETATM   11  C9  UNL     1      10.706  16.099   3.154  1.00  0.00     0.057 C 
ENDROOT
BRANCH   1  12
HETATM   12  S1  UNL     1       8.406  14.703   3.201  1.00  0.00    -0.162 SA
BRANCH  12  13
HETATM   13  C2  UNL     1       8.052  13.915   1.601  1.00  0.00     0.070 C 
HETATM   14  C1  UNL     1       8.261  14.973   0.536  1.00  0.00     0.016 C 
ENDBRANCH  12  13
ENDBRANCH   1  12
TORSDOF 2
ENDMDL
MODEL 4
REMARK VINA RESULT: -5.105624384      2.553      4.665
REMARK  2 active torsions:
REMARK  status: ('A' for Active; 'I' for Inactive)
REMARK    1  A    between atoms: C2_2  and  S1_3 
REMARK    2  A    between atoms: S1_3  and  C3_4 
ROOT
HETATM    1  C3  UNL     1      10.634  15.154   0.524  1.00  0.00     0.074 C 
HETATM    2  C4  UNL     1      11.303  16.305  -0.171  1.00  0.00     0.184 C 
HETATM    3  O1  UNL     1      11.598  17.265   0.785  1.00  0.00    -0.377 OA
HETATM    4  C5  UNL     1      11.968  16.505   1.886  1.00  0.00     0.087 C 
HETATM    5  C6  UNL     1      13.356  15.941   1.685  1.00  0.00     0.067 C 
HETATM    6  C7  UNL     1      14.210  16.797   2.594  1.00  0.00     0.235 C 
HETATM    7  N1  UNL     1      13.306  17.042   3.685  1.00  0.00    -0.072 N 
ATOM      8  H11 UNL     1      13.646  17.763   4.323  1.00  0.00     0.277 HD
ATOM      9  H12 UNL     1      13.275  16.271   4.352  1.00  0.00     0.277 HD
HETATM   10  C8  UNL     1      12.015  17.352   3.137  1.00  0.00     0.270 C 
HETATM   11  C9  UNL     1      10.920  15.428   1.997  1.00  0.00     0.057 C 
ENDROOT
BRANCH   1  12
HETATM   12  S1  UNL     1       8.834  15.163   0.319  1.00  0.00    -0.162 SA
BRANCH  12  13
HETATM   13  C2  UNL     1       8.016  14.055   1.507  1.00  0.00     0.070 C 
HETATM   14  C1  UNL     1       7.436  14.935   2.597  1.00  0.00     0.016 C 
ENDBRANCH  12  13
ENDBRANCH   1  12
TORSDOF 2
ENDMDL
MODEL 5
REMARK VINA RESULT: -5.094165397      2.706      3.612
REMARK  2 active torsions:
REMARK  status: ('A' for Active; 'I' for Inactive)
REMARK    1  A    between atoms: C2_2  and  S1_3 
REMARK    2  A    between atoms: S1_3  and  C3_4 
ROOT
HETATM    1  C3  UNL     1       9.105  15.070   1.818  1.00  0.00     0.074 C 
HETATM    2  C4  UNL     1       8.070  13.982   1.768  1.00  0.00     0.184 C 
HETATM    3  O1  UNL     1       8.219  13.203   2.904  1.00  0.00    -0.377 OA
HETATM    4  C5  UNL     1       8.539  14.135   3.883  1.00  0.00     0.087 C 
HETATM    5  C6  UNL     1       7.304  14.905   4.289  1.00  0.00     0.067 C 
HETATM    6  C7  UNL     1       6.961  14.320   5.640  1.00  0.00     0.235 C 
HETATM    7  N1  UNL     1       8.269  14.044   6.171  1.00  0.00    -0.072 N 
ATOM      8  H11 UNL     1       8.239  13.470   7.014  1.00  0.00     0.277 HD
ATOM      9  H12 UNL     1       8.709  14.868   6.580  1.00  0.00     0.277 HD
HETATM   10  C8  UNL     1       9.060  13.454   5.127  1.00  0.00     0.270 C 
HETATM   11  C9  UNL     1       9.590  15.017   3.263  1.00  0.00     0.057 C 
ENDROOT
BRANCH   1  12
HETATM   12  S1  UNL     1      10.535  14.724   0.761  1.00  0.00    -0.162 SA
BRANCH  12  13
HETATM   13  C2  UNL     1      10.578  15.818  -0.691  1.00  0.00     0.070 C 
HETATM   14  C1  UNL     1      11.537  16.945  -0.363  1.00  0.00     0.016 C 
ENDBRANCH  12  13
ENDBRANCH   1  12
TORSDOF 2
ENDMDL
