MODEL 1
REMARK VINA RESULT: -7.982453150      0.000      0.000
REMARK  7 active torsions:
REMARK  status: ('A' for Active; 'I' for Inactive)
REMARK    1  A    between atoms: C2_3  and  N2_4 
REMARK       I    between atoms: N2_4  and  C3_6 
REMARK    2  A    between atoms: C5_10  and  C6_11 
REMARK    3  A    between atoms: C6_11  and  O3_12 
REMARK    4  A    between atoms: C6_11  and  N3_14 
REMARK    5  A    between atoms: N3_14  and  N4_16 
REMARK    6  A    between atoms: C7_17  and  C8_18 
REMARK    7  A    between atoms: C10_29  and  N8_30 
ROOT
HETATM    1  C1  UNL     1      66.648  40.646  33.583  1.00  0.00     0.177 C 
HETATM    2  N1  UNL     1      67.736  39.873  32.991  1.00  0.00    -0.173 N 
HETATM    3  C2  UNL     1      68.413  38.941  33.648  1.00  0.00     0.130 A 
HETATM    4  C4  UNL     1      69.458  38.251  32.962  1.00  0.00     0.079 A 
HETATM    5  C5  UNL     1      69.763  38.535  31.663  1.00  0.00     0.079 A 
HETATM    6  N7  UNL     1      69.049  39.480  31.060  1.00  0.00    -0.191 N 
ATOM      7  H7  UNL     1      69.257  39.711  30.088  1.00  0.00     0.184 HD
HETATM    8  C10 UNL     1      68.053  40.144  31.697  1.00  0.00     0.679 A 
ENDROOT
BRANCH   5   9
HETATM    9  C6  UNL     1      70.880  37.801  30.916  1.00  0.00     0.285 C 
BRANCH   9  10
HETATM   10  O3  UNL     1      71.543  37.152  31.980  1.00  0.00    -0.370 OA
ATOM     11  H3  UNL     1      72.018  36.473  31.515  1.00  0.00     0.212 HD
ENDBRANCH   9  10
BRANCH   9  12
HETATM   12  N3  UNL     1      70.347  36.808  30.068  1.00  0.00    -0.291 N 
ATOM     13  H3  UNL     1      70.734  35.883  30.255  1.00  0.00     0.184 HD
BRANCH  12  14
HETATM   14  N4  UNL     1      69.431  36.799  29.054  1.00  0.00    -0.206 N 
HETATM   15  C7  UNL     1      69.431  37.131  27.762  1.00  0.00     0.222 A 
HETATM   16  N5  UNL     1      68.198  36.845  27.208  1.00  0.00    -0.276 N 
HETATM   17  N6  UNL     1      67.447  36.345  28.145  1.00  0.00    -0.273 N 
ATOM     18  H5  UNL     1      67.925  36.997  26.237  1.00  0.00     0.189 HD
HETATM   19  C9  UNL     1      68.150  36.302  29.266  1.00  0.00     0.214 A 
ATOM     20  H6  UNL     1      66.481  36.038  28.035  1.00  0.00     0.189 HD
HETATM   21  S1  UNL     1      67.558  35.735  30.675  1.00  0.00    -0.037 SA
BRANCH  15  22
HETATM   22  C8  UNL     1      70.447  37.727  26.975  1.00  0.00     0.248 C 
HETATM   23  O4  UNL     1      70.302  37.618  25.686  1.00  0.00    -0.642 OA
HETATM   24  O5  UNL     1      71.567  38.406  27.307  1.00  0.00    -0.642 OA
ENDBRANCH  15  22
ENDBRANCH  12  14
ENDBRANCH   9  12
ENDBRANCH   5   9
BRANCH   3  25
HETATM   25  N2  UNL     1      68.191  38.624  34.840  1.00  0.00    -0.286 N 
HETATM   26  C3  UNL     1      68.751  37.940  35.868  1.00  0.00     0.289 C 
HETATM   27  O1  UNL     1      69.428  38.511  36.804  1.00  0.00    -0.629 OA
HETATM   28  O2  UNL     1      68.670  36.538  36.054  1.00  0.00    -0.629 OA
ATOM     29  H2  UNL     1      67.292  39.007  35.134  1.00  0.00     0.173 HD
ENDBRANCH   3  25
BRANCH   8  30
HETATM   30  N8  UNL     1      67.370  41.064  31.088  1.00  0.00    -0.234 N 
ATOM     31  H82 UNL     1      66.972  41.849  31.603  1.00  0.00     0.174 HD
ATOM     32  H81 UNL     1      67.245  40.974  30.079  1.00  0.00     0.174 HD
ENDBRANCH   8  30
TORSDOF 7
ENDMDL
MODEL 2
REMARK VINA RESULT: -7.971089803      3.926      5.845
REMARK  7 active torsions:
REMARK  status: ('A' for Active; 'I' for Inactive)
REMARK    1  A    between atoms: C2_3  and  N2_4 
REMARK       I    between atoms: N2_4  and  C3_6 
REMARK    2  A    between atoms: C5_10  and  C6_11 
REMARK    3  A    between atoms: C6_11  and  O3_12 
REMARK    4  A    between atoms: C6_11  and  N3_14 
REMARK    5  A    between atoms: N3_14  and  N4_16 
REMARK    6  A    between atoms: C7_17  and  C8_18 
REMARK    7  A    between atoms: C10_29  and  N8_30 
ROOT
HETATM    1  C1  UNL     1      64.407  38.321  28.840  1.00  0.00     0.177 C 
HETATM    2  N1  UNL     1      65.692  37.628  28.815  1.00  0.00    -0.173 N 
HETATM    3  C2  UNL     1      66.336  37.323  27.697  1.00  0.00     0.130 A 
HETATM    4  C4  UNL     1      67.588  36.643  27.798  1.00  0.00     0.079 A 
HETATM    5  C5  UNL     1      68.118  36.310  29.010  1.00  0.00     0.079 A 
HETATM    6  N7  UNL     1      67.424  36.642  30.093  1.00  0.00    -0.191 N 
ATOM      7  H7  UNL     1      67.799  36.405  31.012  1.00  0.00     0.184 HD
HETATM    8  C10 UNL     1      66.234  37.289  30.015  1.00  0.00     0.679 A 
ENDROOT
BRANCH   5   9
HETATM    9  C6  UNL     1      69.460  35.583  29.133  1.00  0.00     0.285 C 
BRANCH   9  10
HETATM   10  O3  UNL     1      69.720  35.255  27.784  1.00  0.00    -0.370 OA
ATOM     11  H3  UNL     1      70.584  34.865  27.851  1.00  0.00     0.212 HD
ENDBRANCH   9  10
BRANCH   9  12
HETATM   12  N3  UNL     1      70.470  36.466  29.566  1.00  0.00    -0.291 N 
ATOM     13  H3  UNL     1      71.174  36.004  30.144  1.00  0.00     0.184 HD
BRANCH  12  14
HETATM   14  N4  UNL     1      70.725  37.796  29.391  1.00  0.00    -0.206 N 
HETATM   15  C7  UNL     1      71.039  38.583  28.360  1.00  0.00     0.222 A 
HETATM   16  N5  UNL     1      71.122  39.896  28.785  1.00  0.00    -0.276 N 
HETATM   17  N6  UNL     1      70.865  39.918  30.059  1.00  0.00    -0.273 N 
ATOM     18  H5  UNL     1      71.344  40.703  28.202  1.00  0.00     0.189 HD
HETATM   19  C9  UNL     1      70.623  38.680  30.460  1.00  0.00     0.214 A 
ATOM     20  H6  UNL     1      70.852  40.749  30.650  1.00  0.00     0.189 HD
HETATM   21  S1  UNL     1      70.257  38.290  32.000  1.00  0.00    -0.037 SA
BRANCH  15  22
HETATM   22  C8  UNL     1      71.311  38.250  27.010  1.00  0.00     0.248 C 
HETATM   23  O4  UNL     1      72.530  38.461  26.609  1.00  0.00    -0.642 OA
HETATM   24  O5  UNL     1      70.532  37.739  26.031  1.00  0.00    -0.642 OA
ENDBRANCH  15  22
ENDBRANCH  12  14
ENDBRANCH   9  12
ENDBRANCH   5   9
BRANCH   3  25
HETATM   25  N2  UNL     1      65.914  37.596  26.548  1.00  0.00    -0.286 N 
HETATM   26  C3  UNL     1      66.322  37.619  25.256  1.00  0.00     0.289 C 
HETATM   27  O1  UNL     1      66.088  36.659  24.430  1.00  0.00    -0.629 OA
HETATM   28  O2  UNL     1      67.041  38.676  24.647  1.00  0.00    -0.629 OA
ATOM     29  H2  UNL     1      64.943  37.903  26.606  1.00  0.00     0.173 HD
ENDBRANCH   3  25
BRANCH   8  30
HETATM   30  N8  UNL     1      65.574  37.602  31.087  1.00  0.00    -0.234 N 
ATOM     31  H82 UNL     1      65.894  38.353  31.698  1.00  0.00     0.174 HD
ATOM     32  H81 UNL     1      64.728  37.071  31.296  1.00  0.00     0.174 HD
ENDBRANCH   8  30
TORSDOF 7
ENDMDL
MODEL 3
REMARK VINA RESULT: -7.929889652      3.000      4.322
REMARK  7 active torsions:
REMARK  status: ('A' for Active; 'I' for Inactive)
REMARK    1  A    between atoms: C2_3  and  N2_4 
REMARK       I    between atoms: N2_4  and  C3_6 
REMARK    2  A    between atoms: C5_10  and  C6_11 
REMARK    3  A    between atoms: C6_11  and  O3_12 
REMARK    4  A    between atoms: C6_11  and  N3_14 
REMARK    5  A    between atoms: N3_14  and  N4_16 
REMARK    6  A    between atoms: C7_17  and  C8_18 
REMARK    7  A    between atoms: C10_29  and  N8_30 
ROOT
HETATM    1  C1  UNL     1      64.341  38.569  28.525  1.00  0.00     0.177 C 
HETATM    2  N1  UNL     1      65.544  37.814  28.860  1.00  0.00    -0.173 N 
HETATM    3  C2  UNL     1      66.010  37.690  30.096  1.00  0.00     0.130 A 
HETATM    4  C4  UNL     1      67.199  36.926  30.300  1.00  0.00     0.079 A 
HETATM    5  C5  UNL     1      67.849  36.333  29.258  1.00  0.00     0.079 A 
HETATM    6  N7  UNL     1      67.334  36.495  28.044  1.00  0.00    -0.191 N 
ATOM      7  H7  UNL     1      67.801  36.062  27.247  1.00  0.00     0.184 HD
HETATM    8  C10 UNL     1      66.205  37.217  27.832  1.00  0.00     0.679 A 
ENDROOT
BRANCH   5   9
HETATM    9  C6  UNL     1      69.123  35.510  29.463  1.00  0.00     0.285 C 
BRANCH   9  10
HETATM   10  O3  UNL     1      69.343  35.012  28.161  1.00  0.00    -0.370 OA
ATOM     11  H3  UNL     1      70.174  34.564  28.270  1.00  0.00     0.212 HD
ENDBRANCH   9  10
BRANCH   9  12
HETATM   12  N3  UNL     1      70.211  36.344  29.795  1.00  0.00    -0.291 N 
ATOM     13  H3  UNL     1      70.898  35.877  30.388  1.00  0.00     0.184 HD
BRANCH  12  14
HETATM   14  N4  UNL     1      70.557  37.634  29.506  1.00  0.00    -0.206 N 
HETATM   15  C7  UNL     1      70.734  38.351  28.395  1.00  0.00     0.222 A 
HETATM   16  N5  UNL     1      71.032  39.659  28.728  1.00  0.00    -0.276 N 
HETATM   17  N6  UNL     1      71.042  39.747  30.025  1.00  0.00    -0.273 N 
ATOM     18  H5  UNL     1      71.212  40.420  28.073  1.00  0.00     0.189 HD
HETATM   19  C9  UNL     1      70.762  38.555  30.528  1.00  0.00     0.214 A 
ATOM     20  H6  UNL     1      71.232  40.592  30.564  1.00  0.00     0.189 HD
HETATM   21  S1  UNL     1      70.677  38.253  32.128  1.00  0.00    -0.037 SA
BRANCH  15  22
HETATM   22  C8  UNL     1      70.693  37.951  27.037  1.00  0.00     0.248 C 
HETATM   23  O4  UNL     1      71.688  38.347  26.299  1.00  0.00    -0.642 OA
HETATM   24  O5  UNL     1      69.800  37.216  26.338  1.00  0.00    -0.642 OA
ENDBRANCH  15  22
ENDBRANCH  12  14
ENDBRANCH   9  12
ENDBRANCH   5   9
BRANCH   3  25
HETATM   25  N2  UNL     1      65.468  38.203  31.103  1.00  0.00    -0.286 N 
HETATM   26  C3  UNL     1      65.482  39.342  31.839  1.00  0.00     0.289 C 
HETATM   27  O1  UNL     1      64.630  40.293  31.675  1.00  0.00    -0.629 OA
HETATM   28  O2  UNL     1      66.410  39.635  32.868  1.00  0.00    -0.629 OA
ATOM     29  H2  UNL     1      64.794  37.548  31.500  1.00  0.00     0.173 HD
ENDBRANCH   3  25
BRANCH   8  30
HETATM   30  N8  UNL     1      65.721  37.363  26.638  1.00  0.00    -0.234 N 
ATOM     31  H82 UNL     1      64.854  36.901  26.364  1.00  0.00     0.174 HD
ATOM     32  H81 UNL     1      66.238  37.952  25.984  1.00  0.00     0.174 HD
ENDBRANCH   8  30
TORSDOF 7
ENDMDL
MODEL 4
REMARK VINA RESULT: -7.835837950      4.690      6.149
REMARK  7 active torsions:
REMARK  status: ('A' for Active; 'I' for Inactive)
REMARK    1  A    between atoms: C2_3  and  N2_4 
REMARK       I    between atoms: N2_4  and  C3_6 
REMARK    2  A    between atoms: C5_10  and  C6_11 
REMARK    3  A    between atoms: C6_11  and  O3_12 
REMARK    4  A    between atoms: C6_11  and  N3_14 
REMARK    5  A    between atoms: N3_14  and  N4_16 
REMARK    6  A    between atoms: C7_17  and  C8_18 
REMARK    7  A    between atoms: C10_29  and  N8_30 
ROOT
HETATM    1  C1  UNL     1      74.973  43.202  32.942  1.00  0.00     0.177 C 
HETATM    2  N1  UNL     1      74.317  42.639  31.765  1.00  0.00    -0.173 N 
HETATM    3  C2  UNL     1      74.974  42.061  30.769  1.00  0.00     0.130 A 
HETATM    4  C4  UNL     1      74.223  41.547  29.669  1.00  0.00     0.079 A 
HETATM    5  C5  UNL     1      72.863  41.643  29.631  1.00  0.00     0.079 A 
HETATM    6  N7  UNL     1      72.263  42.234  30.659  1.00  0.00    -0.191 N 
ATOM      7  H7  UNL     1      71.246  42.319  30.656  1.00  0.00     0.184 HD
HETATM    8  C10 UNL     1      72.961  42.727  31.712  1.00  0.00     0.679 A 
ENDROOT
BRANCH   5   9
HETATM    9  C6  UNL     1      72.045  41.095  28.459  1.00  0.00     0.285 C 
BRANCH   9  10
HETATM   10  O3  UNL     1      72.999  40.273  27.819  1.00  0.00    -0.370 OA
ATOM     11  H3  UNL     1      72.518  39.999  27.046  1.00  0.00     0.212 HD
ENDBRANCH   9  10
BRANCH   9  12
HETATM   12  N3  UNL     1      71.001  40.267  28.920  1.00  0.00    -0.291 N 
ATOM     13  H3  UNL     1      70.166  40.794  29.177  1.00  0.00     0.184 HD
BRANCH  12  14
HETATM   14  N4  UNL     1      70.849  38.921  29.101  1.00  0.00    -0.206 N 
HETATM   15  C7  UNL     1      70.701  37.859  28.307  1.00  0.00     0.222 A 
HETATM   16  N5  UNL     1      70.651  36.709  29.073  1.00  0.00    -0.276 N 
HETATM   17  N6  UNL     1      70.764  37.057  30.320  1.00  0.00    -0.273 N 
ATOM     18  H5  UNL     1      70.545  35.758  28.721  1.00  0.00     0.189 HD
HETATM   19  C9  UNL     1      70.884  38.374  30.379  1.00  0.00     0.214 A 
ATOM     20  H6  UNL     1      70.761  36.422  31.119  1.00  0.00     0.189 HD
HETATM   21  S1  UNL     1      71.050  39.199  31.775  1.00  0.00    -0.037 SA
BRANCH  15  22
HETATM   22  C8  UNL     1      70.563  37.787  26.899  1.00  0.00     0.248 C 
HETATM   23  O4  UNL     1      71.490  38.384  26.208  1.00  0.00    -0.642 OA
HETATM   24  O5  UNL     1      69.635  37.202  26.110  1.00  0.00    -0.642 OA
ENDBRANCH  15  22
ENDBRANCH  12  14
ENDBRANCH   9  12
ENDBRANCH   5   9
BRANCH   3  25
HETATM   25  N2  UNL     1      76.220  41.934  30.732  1.00  0.00    -0.286 N 
HETATM   26  C3  UNL     1      77.216  41.168  31.242  1.00  0.00     0.289 C 
HETATM   27  O1  UNL     1      77.725  40.169  30.610  1.00  0.00    -0.629 OA
HETATM   28  O2  UNL     1      77.821  41.357  32.508  1.00  0.00    -0.629 OA
ATOM     29  H2  UNL     1      76.617  42.642  30.114  1.00  0.00     0.173 HD
ENDBRANCH   3  25
BRANCH   8  30
HETATM   30  N8  UNL     1      72.354  43.302  32.704  1.00  0.00    -0.234 N 
ATOM     31  H82 UNL     1      71.908  44.212  32.590  1.00  0.00     0.174 HD
ATOM     32  H81 UNL     1      72.339  42.813  33.600  1.00  0.00     0.174 HD
ENDBRANCH   8  30
TORSDOF 7
ENDMDL
MODEL 5
REMARK VINA RESULT: -7.826321224      4.586      5.844
REMARK  7 active torsions:
REMARK  status: ('A' for Active; 'I' for Inactive)
REMARK    1  A    between atoms: C2_3  and  N2_4 
REMARK       I    between atoms: N2_4  and  C3_6 
REMARK    2  A    between atoms: C5_10  and  C6_11 
REMARK    3  A    between atoms: C6_11  and  O3_12 
REMARK    4  A    between atoms: C6_11  and  N3_14 
REMARK    5  A    between atoms: N3_14  and  N4_16 
REMARK    6  A    between atoms: C7_17  and  C8_18 
REMARK    7  A    between atoms: C10_29  and  N8_30 
ROOT
HETATM    1  C1  UNL     1      68.091  37.207  32.087  1.00  0.00     0.177 C 
HETATM    2  N1  UNL     1      69.244  38.087  32.257  1.00  0.00    -0.173 N 
HETATM    3  C2  UNL     1      69.990  38.111  33.353  1.00  0.00     0.130 A 
HETATM    4  C4  UNL     1      71.093  39.016  33.402  1.00  0.00     0.079 A 
HETATM    5  C5  UNL     1      71.383  39.841  32.355  1.00  0.00     0.079 A 
HETATM    6  N7  UNL     1      70.598  39.769  31.285  1.00  0.00    -0.191 N 
ATOM      7  H7  UNL     1      70.792  40.375  30.488  1.00  0.00     0.184 HD
HETATM    8  C10 UNL     1      69.546  38.915  31.222  1.00  0.00     0.679 A 
ENDROOT
BRANCH   5   9
HETATM    9  C6  UNL     1      72.564  40.814  32.395  1.00  0.00     0.285 C 
BRANCH   9  10
HETATM   10  O3  UNL     1      73.060  40.592  33.698  1.00  0.00    -0.370 OA
ATOM     11  H3  UNL     1      72.387  41.006  34.226  1.00  0.00     0.212 HD
ENDBRANCH   9  10
BRANCH   9  12
HETATM   12  N3  UNL     1      73.564  40.426  31.479  1.00  0.00    -0.291 N 
ATOM     13  H3  UNL     1      73.572  39.420  31.310  1.00  0.00     0.184 HD
BRANCH  12  14
HETATM   14  N4  UNL     1      74.525  41.086  30.767  1.00  0.00    -0.206 N 
HETATM   15  C7  UNL     1      75.615  41.797  31.061  1.00  0.00     0.222 A 
HETATM   16  N5  UNL     1      76.247  42.183  29.895  1.00  0.00    -0.276 N 
HETATM   17  N6  UNL     1      75.556  41.720  28.895  1.00  0.00    -0.273 N 
ATOM     18  H5  UNL     1      77.104  42.733  29.829  1.00  0.00     0.189 HD
HETATM   19  C9  UNL     1      74.516  41.058  29.377  1.00  0.00     0.214 A 
ATOM     20  H6  UNL     1      75.778  41.846  27.908  1.00  0.00     0.189 HD
HETATM   21  S1  UNL     1      73.406  40.324  28.436  1.00  0.00    -0.037 SA
BRANCH  15  22
HETATM   22  C8  UNL     1      76.130  42.196  32.319  1.00  0.00     0.248 C 
HETATM   23  O4  UNL     1      75.816  41.435  33.327  1.00  0.00    -0.642 OA
HETATM   24  O5  UNL     1      76.905  43.239  32.689  1.00  0.00    -0.642 OA
ENDBRANCH  15  22
ENDBRANCH  12  14
ENDBRANCH   9  12
ENDBRANCH   5   9
BRANCH   3  25
HETATM   25  N2  UNL     1      69.788  37.385  34.354  1.00  0.00    -0.286 N 
HETATM   26  C3  UNL     1      69.626  37.468  35.698  1.00  0.00     0.289 C 
HETATM   27  O1  UNL     1      68.470  37.491  36.265  1.00  0.00    -0.629 OA
HETATM   28  O2  UNL     1      70.679  37.535  36.642  1.00  0.00    -0.629 OA
ATOM     29  H2  UNL     1      69.723  36.410  34.062  1.00  0.00     0.173 HD
ENDBRANCH   3  25
BRANCH   8  30
HETATM   30  N8  UNL     1      68.792  38.864  30.167  1.00  0.00    -0.234 N 
ATOM     31  H82 UNL     1      69.145  38.485  29.289  1.00  0.00     0.174 HD
ATOM     32  H81 UNL     1      67.838  39.217  30.247  1.00  0.00     0.174 HD
ENDBRANCH   8  30
TORSDOF 7
ENDMDL
