MODEL 1
REMARK VINA RESULT: -6.090015078      0.000      0.000
REMARK  5 active torsions:
REMARK  status: ('A' for Active; 'I' for Inactive)
REMARK    1  A    between atoms: N1_2  and  N2_3 
REMARK    2  A    between atoms: N1_2  and  C2_6 
REMARK    3  A    between atoms: N3_7  and  S1_9 
REMARK    4  A    between atoms: S1_9  and  C3_12 
REMARK    5  A    between atoms: C3_12  and  N4_13 
ROOT
HETATM    1  C3  UNL     1      15.677   1.624  15.736  1.00  0.00     0.430 C 
HETATM    2  C4  UNL     1      15.684   1.158  17.104  1.00  0.00     0.110 C 
HETATM    3  N5  UNL     1      15.708   0.789  18.220  1.00  0.00    -0.194 NA
ENDROOT
BRANCH   1   4
HETATM    4  S1  UNL     1      17.365   1.487  15.128  1.00  0.00     0.274 S 
HETATM    5  O1  UNL     1      18.185   1.035  16.324  1.00  0.00    -0.202 OA
HETATM    6  O2  UNL     1      17.836   2.812  14.611  1.00  0.00    -0.202 OA
BRANCH   4   7
HETATM    7  N3  UNL     1      17.416   0.266  13.912  1.00  0.00    -0.277 N 
HETATM    8  C2  UNL     1      17.217   0.554  12.665  1.00  0.00     0.210 C 
ATOM      9  H3  UNL     1      17.606  -0.700  14.180  1.00  0.00     0.179 HD
BRANCH   8  10
HETATM   10  N1  UNL     1      16.951   1.886  12.256  1.00  0.00    -0.298 N 
HETATM   11  C1  UNL     1      15.616   2.414  12.256  1.00  0.00     0.178 C 
BRANCH  10  12
HETATM   12  N2  UNL     1      17.988   2.726  11.843  1.00  0.00    -0.343 N 
ATOM     13  H22 UNL     1      18.927   2.622  12.229  1.00  0.00     0.177 HD
ATOM     14  H21 UNL     1      17.777   3.442  11.148  1.00  0.00     0.177 HD
ENDBRANCH  10  12
ENDBRANCH   8  10
ENDBRANCH   4   7
ENDBRANCH   1   4
BRANCH   1  15
HETATM   15  N4  UNL     1      15.269   3.024  15.670  1.00  0.00    -0.047 N 
ATOM     16  H43 UNL     1      16.045   3.665  15.835  1.00  0.00     0.277 HD
ATOM     17  H42 UNL     1      15.042   3.321  14.721  1.00  0.00     0.277 HD
ATOM     18  H41 UNL     1      14.497   3.169  16.320  1.00  0.00     0.277 HD
ENDBRANCH   1  15
TORSDOF 5
ENDMDL
MODEL 2
REMARK VINA RESULT: -5.996167623      2.406      4.042
REMARK  5 active torsions:
REMARK  status: ('A' for Active; 'I' for Inactive)
REMARK    1  A    between atoms: N1_2  and  N2_3 
REMARK    2  A    between atoms: N1_2  and  C2_6 
REMARK    3  A    between atoms: N3_7  and  S1_9 
REMARK    4  A    between atoms: S1_9  and  C3_12 
REMARK    5  A    between atoms: C3_12  and  N4_13 
ROOT
HETATM    1  C3  UNL     1      16.840   2.934  12.940  1.00  0.00     0.430 C 
HETATM    2  C4  UNL     1      17.988   3.493  13.617  1.00  0.00     0.110 C 
HETATM    3  N5  UNL     1      18.935   3.934  14.158  1.00  0.00    -0.194 NA
ENDROOT
BRANCH   1   4
HETATM    4  S1  UNL     1      17.080   1.152  12.887  1.00  0.00     0.274 S 
HETATM    5  O1  UNL     1      17.850   0.891  11.605  1.00  0.00    -0.202 OA
HETATM    6  O2  UNL     1      15.755   0.454  12.882  1.00  0.00    -0.202 OA
BRANCH   4   7
HETATM    7  N3  UNL     1      18.049   0.686  14.234  1.00  0.00    -0.277 N 
HETATM    8  C2  UNL     1      17.533   0.552  15.416  1.00  0.00     0.210 C 
ATOM      9  H3  UNL     1      19.045   0.513  14.099  1.00  0.00     0.179 HD
BRANCH   8  10
HETATM   10  N1  UNL     1      16.152   0.784  15.641  1.00  0.00    -0.298 N 
HETATM   11  C1  UNL     1      15.673   2.066  16.074  1.00  0.00     0.178 C 
BRANCH  10  12
HETATM   12  N2  UNL     1      15.217  -0.234  15.443  1.00  0.00    -0.343 N 
ATOM     13  H22 UNL     1      14.349  -0.254  15.977  1.00  0.00     0.177 HD
ATOM     14  H21 UNL     1      15.431  -0.953  14.751  1.00  0.00     0.177 HD
ENDBRANCH  10  12
ENDBRANCH   8  10
ENDBRANCH   4   7
ENDBRANCH   1   4
BRANCH   1  15
HETATM   15  N4  UNL     1      16.755   3.435  11.571  1.00  0.00    -0.047 N 
ATOM     16  H43 UNL     1      16.795   2.687  10.879  1.00  0.00     0.277 HD
ATOM     17  H42 UNL     1      15.826   3.789  11.342  1.00  0.00     0.277 HD
ATOM     18  H41 UNL     1      17.484   4.135  11.434  1.00  0.00     0.277 HD
ENDBRANCH   1  15
TORSDOF 5
ENDMDL
MODEL 3
REMARK VINA RESULT: -5.913560395      1.630      4.683
REMARK  5 active torsions:
REMARK  status: ('A' for Active; 'I' for Inactive)
REMARK    1  A    between atoms: N1_2  and  N2_3 
REMARK    2  A    between atoms: N1_2  and  C2_6 
REMARK    3  A    between atoms: N3_7  and  S1_9 
REMARK    4  A    between atoms: S1_9  and  C3_12 
REMARK    5  A    between atoms: C3_12  and  N4_13 
ROOT
HETATM    1  C3  UNL     1      16.798   0.785  12.499  1.00  0.00     0.430 C 
HETATM    2  C4  UNL     1      17.288   2.068  12.050  1.00  0.00     0.110 C 
HETATM    3  N5  UNL     1      17.700   3.114  11.701  1.00  0.00    -0.194 NA
ENDROOT
BRANCH   1   4
HETATM    4  S1  UNL     1      16.581   0.903  14.280  1.00  0.00     0.274 S 
HETATM    5  O1  UNL     1      17.964   0.685  14.867  1.00  0.00    -0.202 OA
HETATM    6  O2  UNL     1      15.615  -0.141  14.752  1.00  0.00    -0.202 OA
BRANCH   4   7
HETATM    7  N3  UNL     1      16.047   2.496  14.667  1.00  0.00    -0.277 N 
HETATM    8  C2  UNL     1      15.520   2.765  15.819  1.00  0.00     0.210 C 
ATOM      9  H3  UNL     1      16.147   3.239  13.976  1.00  0.00     0.179 HD
BRANCH   8  10
HETATM   10  N1  UNL     1      15.365   1.756  16.805  1.00  0.00    -0.298 N 
HETATM   11  C1  UNL     1      16.493   1.241  17.528  1.00  0.00     0.178 C 
BRANCH  10  12
HETATM   12  N2  UNL     1      14.103   1.236  17.100  1.00  0.00    -0.343 N 
ATOM     13  H22 UNL     1      13.994   0.262  17.380  1.00  0.00     0.177 HD
ATOM     14  H21 UNL     1      13.298   1.859  17.026  1.00  0.00     0.177 HD
ENDBRANCH  10  12
ENDBRANCH   8  10
ENDBRANCH   4   7
ENDBRANCH   1   4
BRANCH   1  15
HETATM   15  N4  UNL     1      17.770  -0.266  12.215  1.00  0.00    -0.047 N 
ATOM     16  H43 UNL     1      18.469  -0.361  12.952  1.00  0.00     0.277 HD
ATOM     17  H42 UNL     1      17.366  -1.200  12.283  1.00  0.00     0.277 HD
ATOM     18  H41 UNL     1      18.187  -0.087  11.302  1.00  0.00     0.277 HD
ENDBRANCH   1  15
TORSDOF 5
ENDMDL
MODEL 4
REMARK VINA RESULT: -5.679174895      1.924      2.166
REMARK  5 active torsions:
REMARK  status: ('A' for Active; 'I' for Inactive)
REMARK    1  A    between atoms: N1_2  and  N2_3 
REMARK    2  A    between atoms: N1_2  and  C2_6 
REMARK    3  A    between atoms: N3_7  and  S1_9 
REMARK    4  A    between atoms: S1_9  and  C3_12 
REMARK    5  A    between atoms: C3_12  and  N4_13 
ROOT
HETATM    1  C3  UNL     1      16.919   1.557  16.131  1.00  0.00     0.430 C 
HETATM    2  C4  UNL     1      16.088   1.224  17.266  1.00  0.00     0.110 C 
HETATM    3  N5  UNL     1      15.413   0.933  18.184  1.00  0.00    -0.194 NA
ENDROOT
BRANCH   1   4
HETATM    4  S1  UNL     1      16.371   0.527  14.762  1.00  0.00     0.274 S 
HETATM    5  O1  UNL     1      15.596  -0.610  15.403  1.00  0.00    -0.202 OA
HETATM    6  O2  UNL     1      17.552   0.021  13.993  1.00  0.00    -0.202 OA
BRANCH   4   7
HETATM    7  N3  UNL     1      15.305   1.451  13.770  1.00  0.00    -0.277 N 
HETATM    8  C2  UNL     1      15.761   2.328  12.933  1.00  0.00     0.210 C 
ATOM      9  H3  UNL     1      14.298   1.304  13.845  1.00  0.00     0.179 HD
BRANCH   8  10
HETATM   10  N1  UNL     1      17.154   2.558  12.802  1.00  0.00    -0.298 N 
HETATM   11  C1  UNL     1      17.843   3.473  13.666  1.00  0.00     0.178 C 
BRANCH  10  12
HETATM   12  N2  UNL     1      17.897   1.894  11.823  1.00  0.00    -0.343 N 
ATOM     13  H22 UNL     1      18.828   1.534  12.031  1.00  0.00     0.177 HD
ATOM     14  H21 UNL     1      17.480   1.783  10.898  1.00  0.00     0.177 HD
ENDBRANCH  10  12
ENDBRANCH   8  10
ENDBRANCH   4   7
ENDBRANCH   1   4
BRANCH   1  15
HETATM   15  N4  UNL     1      18.320   1.255  16.411  1.00  0.00    -0.047 N 
ATOM     16  H43 UNL     1      18.548   1.345  17.401  1.00  0.00     0.277 HD
ATOM     17  H42 UNL     1      18.533   0.263  16.308  1.00  0.00     0.277 HD
ATOM     18  H41 UNL     1      18.905   1.844  15.820  1.00  0.00     0.277 HD
ENDBRANCH   1  15
TORSDOF 5
ENDMDL
MODEL 5
REMARK VINA RESULT: -5.636473168      1.396      1.572
REMARK  5 active torsions:
REMARK  status: ('A' for Active; 'I' for Inactive)
REMARK    1  A    between atoms: N1_2  and  N2_3 
REMARK    2  A    between atoms: N1_2  and  C2_6 
REMARK    3  A    between atoms: N3_7  and  S1_9 
REMARK    4  A    between atoms: S1_9  and  C3_12 
REMARK    5  A    between atoms: C3_12  and  N4_13 
ROOT
HETATM    1  C3  UNL     1      16.034   0.676  16.146  1.00  0.00     0.430 C 
HETATM    2  C4  UNL     1      15.086   1.540  16.810  1.00  0.00     0.110 C 
HETATM    3  N5  UNL     1      14.308   2.252  17.332  1.00  0.00    -0.194 NA
ENDROOT
BRANCH   1   4
HETATM    4  S1  UNL     1      16.759   1.627  14.803  1.00  0.00     0.274 S 
HETATM    5  O1  UNL     1      18.140   2.023  15.293  1.00  0.00    -0.202 OA
HETATM    6  O2  UNL     1      15.916   2.831  14.510  1.00  0.00    -0.202 OA
BRANCH   4   7
HETATM    7  N3  UNL     1      16.919   0.603  13.425  1.00  0.00    -0.277 N 
HETATM    8  C2  UNL     1      17.132   1.095  12.246  1.00  0.00     0.210 C 
ATOM      9  H3  UNL     1      16.844  -0.408  13.542  1.00  0.00     0.179 HD
BRANCH   8  10
HETATM   10  N1  UNL     1      17.242   2.495  12.047  1.00  0.00    -0.298 N 
HETATM   11  C1  UNL     1      16.247   3.224  11.314  1.00  0.00     0.178 C 
BRANCH  10  12
HETATM   12  N2  UNL     1      18.327   3.205  12.565  1.00  0.00    -0.343 N 
ATOM     13  H22 UNL     1      18.415   3.364  13.568  1.00  0.00     0.177 HD
ATOM     14  H21 UNL     1      19.026   3.558  11.909  1.00  0.00     0.177 HD
ENDBRANCH  10  12
ENDBRANCH   8  10
ENDBRANCH   4   7
ENDBRANCH   1   4
BRANCH   1  15
HETATM   15  N4  UNL     1      15.361  -0.491  15.582  1.00  0.00    -0.047 N 
ATOM     16  H43 UNL     1      14.491  -0.712  16.066  1.00  0.00     0.277 HD
ATOM     17  H42 UNL     1      14.966  -0.306  14.660  1.00  0.00     0.277 HD
ATOM     18  H41 UNL     1      16.015  -1.273  15.576  1.00  0.00     0.277 HD
ENDBRANCH   1  15
TORSDOF 5
ENDMDL
