MODEL 1
REMARK VINA RESULT: -5.571087814      0.000      0.000
REMARK  5 active torsions:
REMARK  status: ('A' for Active; 'I' for Inactive)
REMARK    1  A    between atoms: S1_2  and  C2_4 
REMARK    2  A    between atoms: C2_4  and  C3_5 
REMARK    3  A    between atoms: C4_7  and  O3_8 
REMARK    4  A    between atoms: C5_10  and  O4_11 
REMARK    5  A    between atoms: C6_13  and  O5_14 
ROOT
HETATM    1  C3  UNL     1      17.277   2.114  15.098  1.00  0.00     0.167 C 
HETATM    2  O2  UNL     1      17.911   0.981  14.650  1.00  0.00    -0.350 OA
HETATM    3  C4  UNL     1      17.854   0.045  15.707  1.00  0.00     0.288 C 
HETATM    4  C5  UNL     1      16.373   0.221  16.088  1.00  0.00     0.204 C 
HETATM    5  C6  UNL     1      16.399   1.727  16.263  1.00  0.00     0.181 C 
ENDROOT
BRANCH   1   6
HETATM    6  C2  UNL     1      16.394   2.759  14.060  1.00  0.00     0.143 C 
BRANCH   6   7
HETATM    7  S1  UNL     1      16.618   2.118  12.447  1.00  0.00     0.013 S 
HETATM    8  C1  UNL     1      16.287   3.269  11.168  1.00  0.00     0.127 C 
HETATM    9  O1  UNL     1      15.699   0.719  12.301  1.00  0.00    -0.258 OA
ENDBRANCH   6   7
ENDBRANCH   1   6
BRANCH   5  10
HETATM   10  O5  UNL     1      15.127   2.281  16.183  1.00  0.00    -0.390 OA
ATOM     11  H5  UNL     1      14.541   1.950  16.853  1.00  0.00     0.210 HD
ENDBRANCH   5  10
BRANCH   3  12
HETATM   12  O3  UNL     1      18.146  -1.222  15.308  1.00  0.00    -0.369 OA
ATOM     13  H3  UNL     1      17.415  -1.819  15.408  1.00  0.00     0.212 HD
ENDBRANCH   3  12
BRANCH   4  14
HETATM   14  O4  UNL     1      15.645  -0.148  14.976  1.00  0.00    -0.388 OA
ATOM     15  H4  UNL     1      14.940   0.485  14.899  1.00  0.00     0.210 HD
ENDBRANCH   4  14
TORSDOF 5
ENDMDL
MODEL 2
REMARK VINA RESULT: -5.219318629      1.350      1.350
REMARK  5 active torsions:
REMARK  status: ('A' for Active; 'I' for Inactive)
REMARK    1  A    between atoms: S1_2  and  C2_4 
REMARK    2  A    between atoms: C2_4  and  C3_5 
REMARK    3  A    between atoms: C4_7  and  O3_8 
REMARK    4  A    between atoms: C5_10  and  O4_11 
REMARK    5  A    between atoms: C6_13  and  O5_14 
ROOT
HETATM    1  C3  UNL     1      17.199   2.123  14.861  1.00  0.00     0.167 C 
HETATM    2  O2  UNL     1      17.825   0.939  14.559  1.00  0.00    -0.350 OA
HETATM    3  C4  UNL     1      17.785   0.153  15.732  1.00  0.00     0.288 C 
HETATM    4  C5  UNL     1      16.311   0.382  16.109  1.00  0.00     0.204 C 
HETATM    5  C6  UNL     1      16.340   1.898  16.082  1.00  0.00     0.181 C 
ENDROOT
BRANCH   1   6
HETATM    6  C2  UNL     1      16.300   2.626  13.761  1.00  0.00     0.143 C 
BRANCH   6   7
HETATM    7  S1  UNL     1      16.806   2.138  12.158  1.00  0.00     0.013 S 
HETATM    8  C1  UNL     1      17.131   0.424  12.001  1.00  0.00     0.127 C 
HETATM    9  O1  UNL     1      18.122   3.082  11.709  1.00  0.00    -0.258 OA
ENDBRANCH   6   7
ENDBRANCH   1   6
BRANCH   5  10
HETATM   10  O5  UNL     1      15.067   2.439  15.949  1.00  0.00    -0.390 OA
ATOM     11  H5  UNL     1      14.793   2.923  16.719  1.00  0.00     0.210 HD
ENDBRANCH   5  10
BRANCH   3  12
HETATM   12  O3  UNL     1      18.071  -1.157  15.502  1.00  0.00    -0.369 OA
ATOM     13  H3  UNL     1      17.336  -1.638  15.141  1.00  0.00     0.212 HD
ENDBRANCH   3  12
BRANCH   4  14
HETATM   14  O4  UNL     1      15.565  -0.131  15.068  1.00  0.00    -0.388 OA
ATOM     15  H4  UNL     1      15.175   0.616  14.628  1.00  0.00     0.210 HD
ENDBRANCH   4  14
TORSDOF 5
ENDMDL
MODEL 3
REMARK VINA RESULT: -5.059624909      1.794      2.460
REMARK  5 active torsions:
REMARK  status: ('A' for Active; 'I' for Inactive)
REMARK    1  A    between atoms: S1_2  and  C2_4 
REMARK    2  A    between atoms: C2_4  and  C3_5 
REMARK    3  A    between atoms: C4_7  and  O3_8 
REMARK    4  A    between atoms: C5_10  and  O4_11 
REMARK    5  A    between atoms: C6_13  and  O5_14 
ROOT
HETATM    1  C3  UNL     1      16.460   1.172  15.755  1.00  0.00     0.167 C 
HETATM    2  O2  UNL     1      16.139   0.291  16.758  1.00  0.00    -0.350 OA
HETATM    3  C4  UNL     1      15.827   1.071  17.893  1.00  0.00     0.288 C 
HETATM    4  C5  UNL     1      14.920   2.111  17.213  1.00  0.00     0.204 C 
HETATM    5  C6  UNL     1      15.886   2.520  16.118  1.00  0.00     0.181 C 
ENDROOT
BRANCH   1   6
HETATM    6  C2  UNL     1      15.895   0.786  14.412  1.00  0.00     0.143 C 
BRANCH   6   7
HETATM    7  S1  UNL     1      16.916   1.233  13.062  1.00  0.00     0.013 S 
HETATM    8  C1  UNL     1      16.247   2.492  12.044  1.00  0.00     0.127 C 
HETATM    9  O1  UNL     1      17.288  -0.159  12.197  1.00  0.00    -0.258 OA
ENDBRANCH   6   7
ENDBRANCH   1   6
BRANCH   5  10
HETATM   10  O5  UNL     1      15.235   3.130  15.052  1.00  0.00    -0.390 OA
ATOM     11  H5  UNL     1      15.789   3.749  14.591  1.00  0.00     0.210 HD
ENDBRANCH   5  10
BRANCH   3  12
HETATM   12  O3  UNL     1      15.182   0.365  18.861  1.00  0.00    -0.369 OA
ATOM     13  H3  UNL     1      15.213   0.788  19.711  1.00  0.00     0.212 HD
ENDBRANCH   3  12
BRANCH   4  14
HETATM   14  O4  UNL     1      13.845   1.409  16.705  1.00  0.00    -0.388 OA
ATOM     15  H4  UNL     1      13.965   1.387  15.763  1.00  0.00     0.210 HD
ENDBRANCH   4  14
TORSDOF 5
ENDMDL
MODEL 4
REMARK VINA RESULT: -4.986033114      2.092      2.739
REMARK  5 active torsions:
REMARK  status: ('A' for Active; 'I' for Inactive)
REMARK    1  A    between atoms: S1_2  and  C2_4 
REMARK    2  A    between atoms: C2_4  and  C3_5 
REMARK    3  A    between atoms: C4_7  and  O3_8 
REMARK    4  A    between atoms: C5_10  and  O4_11 
REMARK    5  A    between atoms: C6_13  and  O5_14 
ROOT
HETATM    1  C3  UNL     1      16.458   1.143  15.713  1.00  0.00     0.167 C 
HETATM    2  O2  UNL     1      16.156   0.281  16.739  1.00  0.00    -0.350 OA
HETATM    3  C4  UNL     1      15.871   1.084  17.866  1.00  0.00     0.288 C 
HETATM    4  C5  UNL     1      14.952   2.114  17.186  1.00  0.00     0.204 C 
HETATM    5  C6  UNL     1      15.896   2.500  16.063  1.00  0.00     0.181 C 
ENDROOT
BRANCH   1   6
HETATM    6  C2  UNL     1      15.863   0.734  14.390  1.00  0.00     0.143 C 
BRANCH   6   7
HETATM    7  S1  UNL     1      16.791   1.267  13.005  1.00  0.00     0.013 S 
HETATM    8  C1  UNL     1      17.643  -0.020  12.177  1.00  0.00     0.127 C 
HETATM    9  O1  UNL     1      17.821   2.500  13.501  1.00  0.00    -0.258 OA
ENDBRANCH   6   7
ENDBRANCH   1   6
BRANCH   5  10
HETATM   10  O5  UNL     1      15.225   3.092  15.000  1.00  0.00    -0.390 OA
ATOM     11  H5  UNL     1      15.745   3.115  14.206  1.00  0.00     0.210 HD
ENDBRANCH   5  10
BRANCH   3  12
HETATM   12  O3  UNL     1      15.244   0.399  18.860  1.00  0.00    -0.369 OA
ATOM     13  H3  UNL     1      14.400   0.053  18.596  1.00  0.00     0.212 HD
ENDBRANCH   3  12
BRANCH   4  14
HETATM   14  O4  UNL     1      13.865   1.407  16.715  1.00  0.00    -0.388 OA
ATOM     15  H4  UNL     1      13.463   1.952  16.048  1.00  0.00     0.210 HD
ENDBRANCH   4  14
TORSDOF 5
ENDMDL
MODEL 5
REMARK VINA RESULT: -4.903259192      2.219      4.179
REMARK  5 active torsions:
REMARK  status: ('A' for Active; 'I' for Inactive)
REMARK    1  A    between atoms: S1_2  and  C2_4 
REMARK    2  A    between atoms: C2_4  and  C3_5 
REMARK    3  A    between atoms: C4_7  and  O3_8 
REMARK    4  A    between atoms: C5_10  and  O4_11 
REMARK    5  A    between atoms: C6_13  and  O5_14 
ROOT
HETATM    1  C3  UNL     1      17.297   2.353  14.014  1.00  0.00     0.167 C 
HETATM    2  O2  UNL     1      17.262   3.440  13.176  1.00  0.00    -0.350 OA
HETATM    3  C4  UNL     1      17.352   2.935  11.859  1.00  0.00     0.288 C 
HETATM    4  C5  UNL     1      16.327   1.794  11.983  1.00  0.00     0.204 C 
HETATM    5  C6  UNL     1      16.925   1.132  13.209  1.00  0.00     0.181 C 
ENDROOT
BRANCH   1   6
HETATM    6  C2  UNL     1      16.329   2.449  15.164  1.00  0.00     0.143 C 
BRANCH   6   7
HETATM    7  S1  UNL     1      16.775   1.470  16.546  1.00  0.00     0.013 S 
HETATM    8  C1  UNL     1      18.458   0.985  16.565  1.00  0.00     0.127 C 
HETATM    9  O1  UNL     1      15.729   0.156  16.622  1.00  0.00    -0.258 OA
ENDBRANCH   6   7
ENDBRANCH   1   6
BRANCH   5  10
HETATM   10  O5  UNL     1      16.007   0.319  13.861  1.00  0.00    -0.390 OA
ATOM     11  H5  UNL     1      15.288   0.811  14.242  1.00  0.00     0.210 HD
ENDBRANCH   5  10
BRANCH   3  12
HETATM   12  O3  UNL     1      17.005   3.852  10.916  1.00  0.00    -0.369 OA
ATOM     13  H3  UNL     1      17.251   3.589  10.037  1.00  0.00     0.212 HD
ENDBRANCH   3  12
BRANCH   4  14
HETATM   14  O4  UNL     1      15.117   2.394  12.270  1.00  0.00    -0.388 OA
ATOM     15  H4  UNL     1      14.911   2.944  11.522  1.00  0.00     0.210 HD
ENDBRANCH   4  14
TORSDOF 5
ENDMDL
