MODEL 1
REMARK VINA RESULT: -6.610982419      0.000      0.000
REMARK  17 active torsions:
REMARK  status: ('A' for Active; 'I' for Inactive)
REMARK    1  A    between atoms: C4_5  and  C5_6 
REMARK    2  A    between atoms: C5_6  and  O2_7 
REMARK    3  A    between atoms: O2_7  and  C6_8 
REMARK    4  A    between atoms: C6_8  and  C7_9 
REMARK    5  A    between atoms: C7_9  and  O3_10 
REMARK    6  A    between atoms: O3_10  and  C8_11 
REMARK    7  A    between atoms: C8_11  and  C9_12 
REMARK    8  A    between atoms: C9_12  and  O4_13 
REMARK    9  A    between atoms: O4_13  and  C10_14 
REMARK   10  A    between atoms: C10_14  and  C11_15 
REMARK   11  A    between atoms: C11_15  and  O5_16 
REMARK   12  A    between atoms: O5_16  and  C12_17 
REMARK   13  A    between atoms: C12_17  and  C13_18 
REMARK   14  A    between atoms: C13_18  and  O6_19 
REMARK   15  A    between atoms: O6_19  and  C14_20 
REMARK   16  A    between atoms: C14_20  and  C15_21 
REMARK   17  A    between atoms: C17_23  and  C18_24 
ROOT
HETATM    1  C10 UNL     1      36.444  23.268  -3.635  1.00  0.00     0.193 C 
ENDROOT
BRANCH   1   2
HETATM    2  O4  UNL     1      37.713  23.409  -3.164  1.00  0.00    -0.387 OA
BRANCH   2   3
HETATM    3  C9  UNL     1      37.897  23.091  -1.868  1.00  0.00     0.193 C 
BRANCH   3   4
HETATM    4  C8  UNL     1      39.384  23.103  -1.523  1.00  0.00     0.193 C 
BRANCH   4   5
HETATM    5  O3  UNL     1      39.721  22.107  -0.699  1.00  0.00    -0.387 OA
BRANCH   5   6
HETATM    6  C7  UNL     1      39.419  20.816  -0.945  1.00  0.00     0.193 C 
BRANCH   6   7
HETATM    7  C6  UNL     1      40.172  19.831  -0.116  1.00  0.00     0.194 C 
BRANCH   7   8
HETATM    8  O2  UNL     1      41.067  20.165   0.738  1.00  0.00    -0.385 OA
BRANCH   8   9
HETATM    9  C5  UNL     1      42.341  20.262   0.887  1.00  0.00     0.231 C 
BRANCH   9  10
HETATM   10  C4  UNL     1      43.268  21.144   0.127  1.00  0.00     0.382 C 
HETATM   11  O1  UNL     1      42.819  22.493   0.183  1.00  0.00    -0.353 OA
HETATM   12  C3  UNL     1      43.316  22.949   1.407  1.00  0.00     0.206 C 
HETATM   13  C2  UNL     1      44.638  22.275   1.605  1.00  0.00     0.245 C 
HETATM   14  C1  UNL     1      44.775  21.739   3.008  1.00  0.00     0.045 C 
HETATM   15  N1  UNL     1      44.585  21.168   0.662  1.00  0.00     0.121 N 
HETATM   16  C25 UNL     1      45.600  21.327  -0.373  1.00  0.00     0.314 C 
ENDBRANCH   9  10
ENDBRANCH   8   9
ENDBRANCH   7   8
ENDBRANCH   6   7
ENDBRANCH   5   6
ENDBRANCH   4   5
ENDBRANCH   3   4
ENDBRANCH   2   3
ENDBRANCH   1   2
BRANCH   1  17
HETATM   17  C11 UNL     1      35.610  24.464  -3.338  1.00  0.00     0.193 C 
BRANCH  17  18
HETATM   18  O5  UNL     1      34.556  24.173  -2.517  1.00  0.00    -0.387 OA
BRANCH  18  19
HETATM   19  C12 UNL     1      34.574  24.758  -1.281  1.00  0.00     0.193 C 
BRANCH  19  20
HETATM   20  C13 UNL     1      35.119  26.181  -1.490  1.00  0.00     0.193 C 
BRANCH  20  21
HETATM   21  O6  UNL     1      35.669  26.595  -0.272  1.00  0.00    -0.389 OA
BRANCH  21  22
HETATM   22  C14 UNL     1      37.030  26.343  -0.249  1.00  0.00     0.172 C 
BRANCH  22  23
HETATM   23  C15 UNL     1      37.518  26.413   1.168  1.00  0.00     0.011 C 
HETATM   24  C16 UNL     1      36.983  25.224   1.955  1.00  0.00     0.016 C 
HETATM   25  C17 UNL     1      38.289  24.494   1.650  1.00  0.00     0.019 C 
HETATM   26  C24 UNL     1      38.907  25.860   1.415  1.00  0.00     0.016 C 
BRANCH  25  27
HETATM   27  C18 UNL     1      38.917  23.841   2.831  1.00  0.00    -0.054 A 
HETATM   28  C19 UNL     1      38.679  24.284   4.113  1.00  0.00     0.007 A 
HETATM   29  C20 UNL     1      39.259  23.683   5.211  1.00  0.00     0.001 A 
HETATM   30  C21 UNL     1      40.111  22.594   5.005  1.00  0.00     0.000 A 
HETATM   31  C22 UNL     1      40.367  22.130   3.733  1.00  0.00     0.001 A 
HETATM   32  C23 UNL     1      39.773  22.752   2.656  1.00  0.00     0.007 A 
ENDBRANCH  25  27
ENDBRANCH  22  23
ENDBRANCH  21  22
ENDBRANCH  20  21
ENDBRANCH  19  20
ENDBRANCH  18  19
ENDBRANCH  17  18
ENDBRANCH   1  17
TORSDOF 17
ENDMDL
MODEL 2
REMARK VINA RESULT: -6.544913649      1.271      1.873
REMARK  17 active torsions:
REMARK  status: ('A' for Active; 'I' for Inactive)
REMARK    1  A    between atoms: C4_5  and  C5_6 
REMARK    2  A    between atoms: C5_6  and  O2_7 
REMARK    3  A    between atoms: O2_7  and  C6_8 
REMARK    4  A    between atoms: C6_8  and  C7_9 
REMARK    5  A    between atoms: C7_9  and  O3_10 
REMARK    6  A    between atoms: O3_10  and  C8_11 
REMARK    7  A    between atoms: C8_11  and  C9_12 
REMARK    8  A    between atoms: C9_12  and  O4_13 
REMARK    9  A    between atoms: O4_13  and  C10_14 
REMARK   10  A    between atoms: C10_14  and  C11_15 
REMARK   11  A    between atoms: C11_15  and  O5_16 
REMARK   12  A    between atoms: O5_16  and  C12_17 
REMARK   13  A    between atoms: C12_17  and  C13_18 
REMARK   14  A    between atoms: C13_18  and  O6_19 
REMARK   15  A    between atoms: O6_19  and  C14_20 
REMARK   16  A    between atoms: C14_20  and  C15_21 
REMARK   17  A    between atoms: C17_23  and  C18_24 
ROOT
HETATM    1  C10 UNL     1      38.674  23.599  -2.193  1.00  0.00     0.193 C 
ENDROOT
BRANCH   1   2
HETATM    2  O4  UNL     1      39.992  23.406  -2.469  1.00  0.00    -0.387 OA
BRANCH   2   3
HETATM    3  C9  UNL     1      40.428  22.134  -2.388  1.00  0.00     0.193 C 
BRANCH   3   4
HETATM    4  C8  UNL     1      40.713  21.759  -0.936  1.00  0.00     0.193 C 
BRANCH   4   5
HETATM    5  O3  UNL     1      40.052  20.663  -0.556  1.00  0.00    -0.387 OA
BRANCH   5   6
HETATM    6  C7  UNL     1      40.509  19.822   0.395  1.00  0.00     0.193 C 
BRANCH   6   7
HETATM    7  C6  UNL     1      41.870  19.271   0.138  1.00  0.00     0.194 C 
BRANCH   7   8
HETATM    8  O2  UNL     1      42.878  19.496   0.897  1.00  0.00    -0.385 OA
BRANCH   8   9
HETATM    9  C5  UNL     1      43.195  19.976   2.047  1.00  0.00     0.231 C 
BRANCH   9  10
HETATM   10  C4  UNL     1      43.345  21.412   2.408  1.00  0.00     0.382 C 
HETATM   11  O1  UNL     1      44.450  21.584   3.288  1.00  0.00    -0.353 OA
HETATM   12  C3  UNL     1      45.547  21.639   2.423  1.00  0.00     0.206 C 
HETATM   13  C2  UNL     1      45.075  22.335   1.184  1.00  0.00     0.245 C 
HETATM   14  C1  UNL     1      45.538  21.615  -0.058  1.00  0.00     0.045 C 
HETATM   15  N1  UNL     1      43.626  22.244   1.290  1.00  0.00     0.121 N 
HETATM   16  C25 UNL     1      43.039  23.572   1.428  1.00  0.00     0.314 C 
ENDBRANCH   9  10
ENDBRANCH   8   9
ENDBRANCH   7   8
ENDBRANCH   6   7
ENDBRANCH   5   6
ENDBRANCH   4   5
ENDBRANCH   3   4
ENDBRANCH   2   3
ENDBRANCH   1   2
BRANCH   1  17
HETATM   17  C11 UNL     1      37.888  23.874  -3.427  1.00  0.00     0.193 C 
BRANCH  17  18
HETATM   18  O5  UNL     1      36.707  24.509  -3.161  1.00  0.00    -0.387 OA
BRANCH  18  19
HETATM   19  C12 UNL     1      36.757  25.513  -2.233  1.00  0.00     0.193 C 
BRANCH  19  20
HETATM   20  C13 UNL     1      35.365  25.561  -1.581  1.00  0.00     0.193 C 
BRANCH  20  21
HETATM   21  O6  UNL     1      35.493  26.282  -0.389  1.00  0.00    -0.389 OA
BRANCH  21  22
HETATM   22  C14 UNL     1      36.814  26.645  -0.186  1.00  0.00     0.172 C 
BRANCH  22  23
HETATM   23  C15 UNL     1      37.134  26.536   1.275  1.00  0.00     0.011 C 
HETATM   24  C16 UNL     1      36.762  25.147   1.781  1.00  0.00     0.016 C 
HETATM   25  C17 UNL     1      38.208  24.722   1.538  1.00  0.00     0.019 C 
HETATM   26  C24 UNL     1      38.571  26.194   1.612  1.00  0.00     0.016 C 
BRANCH  25  27
HETATM   27  C18 UNL     1      38.828  23.980   2.668  1.00  0.00    -0.054 A 
HETATM   28  C19 UNL     1      38.702  24.411   3.971  1.00  0.00     0.007 A 
HETATM   29  C20 UNL     1      39.276  23.728   5.023  1.00  0.00     0.001 A 
HETATM   30  C21 UNL     1      40.003  22.566   4.749  1.00  0.00     0.000 A 
HETATM   31  C22 UNL     1      40.145  22.112   3.456  1.00  0.00     0.001 A 
HETATM   32  C23 UNL     1      39.560  22.817   2.425  1.00  0.00     0.007 A 
ENDBRANCH  25  27
ENDBRANCH  22  23
ENDBRANCH  21  22
ENDBRANCH  20  21
ENDBRANCH  19  20
ENDBRANCH  18  19
ENDBRANCH  17  18
ENDBRANCH   1  17
TORSDOF 17
ENDMDL
MODEL 3
REMARK VINA RESULT: -6.459605741      2.614      5.872
REMARK  17 active torsions:
REMARK  status: ('A' for Active; 'I' for Inactive)
REMARK    1  A    between atoms: C4_5  and  C5_6 
REMARK    2  A    between atoms: C5_6  and  O2_7 
REMARK    3  A    between atoms: O2_7  and  C6_8 
REMARK    4  A    between atoms: C6_8  and  C7_9 
REMARK    5  A    between atoms: C7_9  and  O3_10 
REMARK    6  A    between atoms: O3_10  and  C8_11 
REMARK    7  A    between atoms: C8_11  and  C9_12 
REMARK    8  A    between atoms: C9_12  and  O4_13 
REMARK    9  A    between atoms: O4_13  and  C10_14 
REMARK   10  A    between atoms: C10_14  and  C11_15 
REMARK   11  A    between atoms: C11_15  and  O5_16 
REMARK   12  A    between atoms: O5_16  and  C12_17 
REMARK   13  A    between atoms: C12_17  and  C13_18 
REMARK   14  A    between atoms: C13_18  and  O6_19 
REMARK   15  A    between atoms: O6_19  and  C14_20 
REMARK   16  A    between atoms: C14_20  and  C15_21 
REMARK   17  A    between atoms: C17_23  and  C18_24 
ROOT
HETATM    1  C10 UNL     1      40.749  18.388   2.207  1.00  0.00     0.193 C 
ENDROOT
BRANCH   1   2
HETATM    2  O4  UNL     1      40.825  17.694   1.039  1.00  0.00    -0.387 OA
BRANCH   2   3
HETATM    3  C9  UNL     1      39.653  17.261   0.536  1.00  0.00     0.193 C 
BRANCH   3   4
HETATM    4  C8  UNL     1      39.496  17.714  -0.913  1.00  0.00     0.193 C 
BRANCH   4   5
HETATM    5  O3  UNL     1      38.753  18.819  -1.021  1.00  0.00    -0.387 OA
BRANCH   5   6
HETATM    6  C7  UNL     1      39.218  19.968  -1.554  1.00  0.00     0.193 C 
BRANCH   6   7
HETATM    7  C6  UNL     1      39.655  20.985  -0.555  1.00  0.00     0.194 C 
BRANCH   7   8
HETATM    8  O2  UNL     1      40.818  20.992  -0.016  1.00  0.00    -0.385 OA
BRANCH   8   9
HETATM    9  C5  UNL     1      41.999  21.481  -0.157  1.00  0.00     0.231 C 
BRANCH   9  10
HETATM   10  C4  UNL     1      43.279  20.726  -0.232  1.00  0.00     0.382 C 
HETATM   11  O1  UNL     1      43.075  19.478  -0.883  1.00  0.00    -0.353 OA
HETATM   12  C3  UNL     1      43.136  19.806  -2.240  1.00  0.00     0.206 C 
HETATM   13  C2  UNL     1      44.150  20.901  -2.366  1.00  0.00     0.245 C 
HETATM   14  C1  UNL     1      43.649  22.011  -3.256  1.00  0.00     0.045 C 
HETATM   15  N1  UNL     1      44.276  21.388  -1.000  1.00  0.00     0.121 N 
HETATM   16  C25 UNL     1      45.620  21.142  -0.491  1.00  0.00     0.314 C 
ENDBRANCH   9  10
ENDBRANCH   8   9
ENDBRANCH   7   8
ENDBRANCH   6   7
ENDBRANCH   5   6
ENDBRANCH   4   5
ENDBRANCH   3   4
ENDBRANCH   2   3
ENDBRANCH   1   2
BRANCH   1  17
HETATM   17  C11 UNL     1      42.098  18.762   2.713  1.00  0.00     0.193 C 
BRANCH  17  18
HETATM   18  O5  UNL     1      42.086  19.942   3.404  1.00  0.00    -0.387 OA
BRANCH  18  19
HETATM   19  C12 UNL     1      43.277  20.608   3.483  1.00  0.00     0.193 C 
BRANCH  19  20
HETATM   20  C13 UNL     1      42.935  22.051   3.888  1.00  0.00     0.193 C 
BRANCH  20  21
HETATM   21  O6  UNL     1      41.831  21.988   4.746  1.00  0.00    -0.389 OA
BRANCH  21  22
HETATM   22  C14 UNL     1      41.122  23.177   4.704  1.00  0.00     0.172 C 
BRANCH  22  23
HETATM   23  C15 UNL     1      39.732  22.902   4.212  1.00  0.00     0.011 C 
HETATM   24  C16 UNL     1      38.954  24.208   4.117  1.00  0.00     0.016 C 
HETATM   25  C17 UNL     1      39.349  24.283   2.645  1.00  0.00     0.019 C 
HETATM   26  C24 UNL     1      39.576  22.784   2.710  1.00  0.00     0.016 C 
BRANCH  25  27
HETATM   27  C18 UNL     1      38.225  24.595   1.722  1.00  0.00    -0.054 A 
HETATM   28  C19 UNL     1      38.119  23.998   0.485  1.00  0.00     0.007 A 
HETATM   29  C20 UNL     1      37.079  24.285  -0.376  1.00  0.00     0.001 A 
HETATM   30  C21 UNL     1      36.111  25.208   0.029  1.00  0.00     0.000 A 
HETATM   31  C22 UNL     1      36.192  25.820   1.261  1.00  0.00     0.001 A 
HETATM   32  C23 UNL     1      37.243  25.513   2.098  1.00  0.00     0.007 A 
ENDBRANCH  25  27
ENDBRANCH  22  23
ENDBRANCH  21  22
ENDBRANCH  20  21
ENDBRANCH  19  20
ENDBRANCH  18  19
ENDBRANCH  17  18
ENDBRANCH   1  17
TORSDOF 17
ENDMDL
MODEL 4
REMARK VINA RESULT: -6.403200122      2.444      6.557
REMARK  17 active torsions:
REMARK  status: ('A' for Active; 'I' for Inactive)
REMARK    1  A    between atoms: C4_5  and  C5_6 
REMARK    2  A    between atoms: C5_6  and  O2_7 
REMARK    3  A    between atoms: O2_7  and  C6_8 
REMARK    4  A    between atoms: C6_8  and  C7_9 
REMARK    5  A    between atoms: C7_9  and  O3_10 
REMARK    6  A    between atoms: O3_10  and  C8_11 
REMARK    7  A    between atoms: C8_11  and  C9_12 
REMARK    8  A    between atoms: C9_12  and  O4_13 
REMARK    9  A    between atoms: O4_13  and  C10_14 
REMARK   10  A    between atoms: C10_14  and  C11_15 
REMARK   11  A    between atoms: C11_15  and  O5_16 
REMARK   12  A    between atoms: O5_16  and  C12_17 
REMARK   13  A    between atoms: C12_17  and  C13_18 
REMARK   14  A    between atoms: C13_18  and  O6_19 
REMARK   15  A    between atoms: O6_19  and  C14_20 
REMARK   16  A    between atoms: C14_20  and  C15_21 
REMARK   17  A    between atoms: C17_23  and  C18_24 
ROOT
HETATM    1  C10 UNL     1      38.347  24.799   2.796  1.00  0.00     0.193 C 
ENDROOT
BRANCH   1   2
HETATM    2  O4  UNL     1      38.698  25.930   2.125  1.00  0.00    -0.387 OA
BRANCH   2   3
HETATM    3  C9  UNL     1      37.768  26.427   1.287  1.00  0.00     0.193 C 
BRANCH   3   4
HETATM    4  C8  UNL     1      36.451  25.672   1.444  1.00  0.00     0.193 C 
BRANCH   4   5
HETATM    5  O3  UNL     1      35.590  25.945   0.461  1.00  0.00    -0.387 OA
BRANCH   5   6
HETATM    6  C7  UNL     1      35.713  25.442  -0.785  1.00  0.00     0.193 C 
BRANCH   6   7
HETATM    7  C6  UNL     1      36.060  23.993  -0.840  1.00  0.00     0.194 C 
BRANCH   7   8
HETATM    8  O2  UNL     1      37.099  23.537  -1.433  1.00  0.00    -0.385 OA
BRANCH   8   9
HETATM    9  C5  UNL     1      38.376  23.679  -1.495  1.00  0.00     0.231 C 
BRANCH   9  10
HETATM   10  C4  UNL     1      39.346  23.567  -0.372  1.00  0.00     0.382 C 
HETATM   11  O1  UNL     1      39.351  22.240   0.142  1.00  0.00    -0.353 OA
HETATM   12  C3  UNL     1      40.210  21.561  -0.727  1.00  0.00     0.206 C 
HETATM   13  C2  UNL     1      41.275  22.537  -1.121  1.00  0.00     0.245 C 
HETATM   14  C1  UNL     1      41.534  22.495  -2.606  1.00  0.00     0.045 C 
HETATM   15  N1  UNL     1      40.689  23.821  -0.763  1.00  0.00     0.121 N 
HETATM   16  C25 UNL     1      41.462  24.459   0.295  1.00  0.00     0.314 C 
ENDBRANCH   9  10
ENDBRANCH   8   9
ENDBRANCH   7   8
ENDBRANCH   6   7
ENDBRANCH   5   6
ENDBRANCH   4   5
ENDBRANCH   3   4
ENDBRANCH   2   3
ENDBRANCH   1   2
BRANCH   1  17
HETATM   17  C11 UNL     1      39.371  24.418   3.806  1.00  0.00     0.193 C 
BRANCH  17  18
HETATM   18  O5  UNL     1      38.815  23.878   4.933  1.00  0.00    -0.387 OA
BRANCH  18  19
HETATM   19  C12 UNL     1      39.575  22.956   5.598  1.00  0.00     0.193 C 
BRANCH  19  20
HETATM   20  C13 UNL     1      41.035  23.251   5.218  1.00  0.00     0.193 C 
BRANCH  20  21
HETATM   21  O6  UNL     1      41.686  22.019   5.090  1.00  0.00    -0.389 OA
BRANCH  21  22
HETATM   22  C14 UNL     1      42.593  22.061   4.045  1.00  0.00     0.172 C 
BRANCH  22  23
HETATM   23  C15 UNL     1      41.883  21.731   2.766  1.00  0.00     0.011 C 
HETATM   24  C16 UNL     1      42.782  20.871   1.886  1.00  0.00     0.016 C 
HETATM   25  C17 UNL     1      42.092  19.639   2.466  1.00  0.00     0.019 C 
HETATM   26  C24 UNL     1      40.934  20.551   2.824  1.00  0.00     0.016 C 
BRANCH  25  27
HETATM   27  C18 UNL     1      41.667  18.638   1.451  1.00  0.00    -0.054 A 
HETATM   28  C19 UNL     1      40.380  18.148   1.415  1.00  0.00     0.007 A 
HETATM   29  C20 UNL     1      39.980  17.218   0.477  1.00  0.00     0.001 A 
HETATM   30  C21 UNL     1      40.915  16.769  -0.460  1.00  0.00     0.000 A 
HETATM   31  C22 UNL     1      42.209  17.242  -0.448  1.00  0.00     0.001 A 
HETATM   32  C23 UNL     1      42.579  18.170   0.503  1.00  0.00     0.007 A 
ENDBRANCH  25  27
ENDBRANCH  22  23
ENDBRANCH  21  22
ENDBRANCH  20  21
ENDBRANCH  19  20
ENDBRANCH  18  19
ENDBRANCH  17  18
ENDBRANCH   1  17
TORSDOF 17
ENDMDL
MODEL 5
REMARK VINA RESULT: -6.398122355      2.468      6.272
REMARK  17 active torsions:
REMARK  status: ('A' for Active; 'I' for Inactive)
REMARK    1  A    between atoms: C4_5  and  C5_6 
REMARK    2  A    between atoms: C5_6  and  O2_7 
REMARK    3  A    between atoms: O2_7  and  C6_8 
REMARK    4  A    between atoms: C6_8  and  C7_9 
REMARK    5  A    between atoms: C7_9  and  O3_10 
REMARK    6  A    between atoms: O3_10  and  C8_11 
REMARK    7  A    between atoms: C8_11  and  C9_12 
REMARK    8  A    between atoms: C9_12  and  O4_13 
REMARK    9  A    between atoms: O4_13  and  C10_14 
REMARK   10  A    between atoms: C10_14  and  C11_15 
REMARK   11  A    between atoms: C11_15  and  O5_16 
REMARK   12  A    between atoms: O5_16  and  C12_17 
REMARK   13  A    between atoms: C12_17  and  C13_18 
REMARK   14  A    between atoms: C13_18  and  O6_19 
REMARK   15  A    between atoms: O6_19  and  C14_20 
REMARK   16  A    between atoms: C14_20  and  C15_21 
REMARK   17  A    between atoms: C17_23  and  C18_24 
ROOT
HETATM    1  C10 UNL     1      42.203  21.017   3.003  1.00  0.00     0.193 C 
ENDROOT
BRANCH   1   2
HETATM    2  O4  UNL     1      43.248  21.000   2.132  1.00  0.00    -0.387 OA
BRANCH   2   3
HETATM    3  C9  UNL     1      43.993  22.121   2.087  1.00  0.00     0.193 C 
BRANCH   3   4
HETATM    4  C8  UNL     1      45.463  21.794   2.339  1.00  0.00     0.193 C 
BRANCH   4   5
HETATM    5  O3  UNL     1      46.096  21.416   1.226  1.00  0.00    -0.387 OA
BRANCH   5   6
HETATM    6  C7  UNL     1      45.757  21.864  -0.001  1.00  0.00     0.193 C 
BRANCH   6   7
HETATM    7  C6  UNL     1      45.444  20.793  -0.990  1.00  0.00     0.194 C 
BRANCH   7   8
HETATM    8  O2  UNL     1      44.314  20.688  -1.584  1.00  0.00    -0.385 OA
BRANCH   8   9
HETATM    9  C5  UNL     1      43.063  20.950  -1.439  1.00  0.00     0.231 C 
BRANCH   9  10
HETATM   10  C4  UNL     1      42.401  22.273  -1.596  1.00  0.00     0.382 C 
HETATM   11  O1  UNL     1      41.553  22.265  -2.738  1.00  0.00    -0.353 OA
HETATM   12  C3  UNL     1      40.376  21.680  -2.264  1.00  0.00     0.206 C 
HETATM   13  C2  UNL     1      40.219  22.134  -0.845  1.00  0.00     0.245 C 
HETATM   14  C1  UNL     1      39.844  20.986   0.059  1.00  0.00     0.045 C 
HETATM   15  N1  UNL     1      41.553  22.608  -0.505  1.00  0.00     0.121 N 
HETATM   16  C25 UNL     1      41.534  24.041  -0.240  1.00  0.00     0.314 C 
ENDBRANCH   9  10
ENDBRANCH   8   9
ENDBRANCH   7   8
ENDBRANCH   6   7
ENDBRANCH   5   6
ENDBRANCH   4   5
ENDBRANCH   3   4
ENDBRANCH   2   3
ENDBRANCH   1   2
BRANCH   1  17
HETATM   17  C11 UNL     1      42.109  22.315   3.725  1.00  0.00     0.193 C 
BRANCH  17  18
HETATM   18  O5  UNL     1      41.667  22.165   5.010  1.00  0.00    -0.387 OA
BRANCH  18  19
HETATM   19  C12 UNL     1      41.188  23.292   5.619  1.00  0.00     0.193 C 
BRANCH  19  20
HETATM   20  C13 UNL     1      39.670  23.088   5.761  1.00  0.00     0.193 C 
BRANCH  20  21
HETATM   21  O6  UNL     1      39.088  23.471   4.548  1.00  0.00    -0.389 OA
BRANCH  21  22
HETATM   22  C14 UNL     1      39.400  24.790   4.260  1.00  0.00     0.172 C 
BRANCH  22  23
HETATM   23  C15 UNL     1      39.627  24.929   2.784  1.00  0.00     0.011 C 
HETATM   24  C16 UNL     1      38.687  23.997   2.029  1.00  0.00     0.016 C 
HETATM   25  C17 UNL     1      37.717  25.166   1.886  1.00  0.00     0.019 C 
HETATM   26  C24 UNL     1      38.906  26.081   2.112  1.00  0.00     0.016 C 
BRANCH  25  27
HETATM   27  C18 UNL     1      37.177  25.352   0.512  1.00  0.00    -0.054 A 
HETATM   28  C19 UNL     1      37.645  24.614  -0.553  1.00  0.00     0.007 A 
HETATM   29  C20 UNL     1      37.150  24.783  -1.829  1.00  0.00     0.001 A 
HETATM   30  C21 UNL     1      36.144  25.731  -2.037  1.00  0.00     0.000 A 
HETATM   31  C22 UNL     1      35.656  26.483  -0.990  1.00  0.00     0.001 A 
HETATM   32  C23 UNL     1      36.172  26.292   0.274  1.00  0.00     0.007 A 
ENDBRANCH  25  27
ENDBRANCH  22  23
ENDBRANCH  21  22
ENDBRANCH  20  21
ENDBRANCH  19  20
ENDBRANCH  18  19
ENDBRANCH  17  18
ENDBRANCH   1  17
TORSDOF 17
ENDMDL
