MODEL 1
REMARK VINA RESULT: -6.476182479      0.000      0.000
REMARK  18 active torsions:
REMARK  status: ('A' for Active; 'I' for Inactive)
REMARK    1  A    between atoms: O1_2  and  C2_3 
REMARK    2  A    between atoms: C2_3  and  C3_4 
REMARK    3  A    between atoms: C3_4  and  O2_5 
REMARK    4  A    between atoms: O2_5  and  C4_6 
REMARK    5  A    between atoms: C4_6  and  C5_7 
REMARK    6  A    between atoms: C5_7  and  O3_8 
REMARK    7  A    between atoms: O3_8  and  C6_9 
REMARK    8  A    between atoms: C6_9  and  C7_10 
REMARK    9  A    between atoms: C7_10  and  O4_11 
REMARK   10  A    between atoms: O4_11  and  C8_12 
REMARK   11  A    between atoms: C8_12  and  C9_13 
REMARK   12  A    between atoms: C9_13  and  O5_14 
REMARK   13  A    between atoms: O5_14  and  C10_15 
REMARK   14  A    between atoms: C10_15  and  C11_16 
REMARK   15  A    between atoms: C11_16  and  O6_17 
REMARK   16  A    between atoms: O6_17  and  C12_18 
REMARK   17  A    between atoms: C12_18  and  C13_19 
REMARK   18  A    between atoms: N1_24  and  C18_25 
ROOT
HETATM    1  C11 UNL     1      39.301  23.467   4.916  1.00  0.00     0.193 C 
ENDROOT
BRANCH   1   2
HETATM    2  C10 UNL     1      40.753  23.285   4.690  1.00  0.00     0.193 C 
BRANCH   2   3
HETATM    3  O5  UNL     1      41.145  22.048   4.279  1.00  0.00    -0.387 OA
BRANCH   3   4
HETATM    4  C9  UNL     1      42.193  22.009   3.403  1.00  0.00     0.193 C 
BRANCH   4   5
HETATM    5  C8  UNL     1      43.432  21.345   3.963  1.00  0.00     0.193 C 
BRANCH   5   6
HETATM    6  O4  UNL     1      44.338  21.129   2.928  1.00  0.00    -0.387 OA
BRANCH   6   7
HETATM    7  C7  UNL     1      45.329  22.071   2.825  1.00  0.00     0.193 C 
BRANCH   7   8
HETATM    8  C6  UNL     1      45.470  22.602   1.383  1.00  0.00     0.193 C 
BRANCH   8   9
HETATM    9  O3  UNL     1      45.825  21.529   0.612  1.00  0.00    -0.387 OA
BRANCH   9  10
HETATM   10  C5  UNL     1      45.133  21.393  -0.572  1.00  0.00     0.193 C 
BRANCH  10  11
HETATM   11  C4  UNL     1      44.100  20.299  -0.490  1.00  0.00     0.193 C 
BRANCH  11  12
HETATM   12  O2  UNL     1      42.850  20.842  -0.140  1.00  0.00    -0.387 OA
BRANCH  12  13
HETATM   13  C3  UNL     1      42.025  19.855   0.401  1.00  0.00     0.193 C 
BRANCH  13  14
HETATM   14  C2  UNL     1      42.864  18.738   0.939  1.00  0.00     0.193 C 
BRANCH  14  15
HETATM   15  O1  UNL     1      42.400  18.222   2.126  1.00  0.00    -0.394 OA
HETATM   16  C1  UNL     1      41.101  18.623   2.425  1.00  0.00     0.201 C 
ENDBRANCH  14  15
ENDBRANCH  13  14
ENDBRANCH  12  13
ENDBRANCH  11  12
ENDBRANCH  10  11
ENDBRANCH   9  10
ENDBRANCH   8   9
ENDBRANCH   7   8
ENDBRANCH   6   7
ENDBRANCH   5   6
ENDBRANCH   4   5
ENDBRANCH   3   4
ENDBRANCH   2   3
ENDBRANCH   1   2
BRANCH   1  17
HETATM   17  O6  UNL     1      38.673  24.406   4.166  1.00  0.00    -0.388 OA
BRANCH  17  18
HETATM   18  C12 UNL     1      39.389  24.997   3.172  1.00  0.00     0.177 C 
BRANCH  18  19
HETATM   19  C13 UNL     1      38.553  25.584   2.058  1.00  0.00     0.048 C 
HETATM   20  C14 UNL     1      37.117  25.178   2.132  1.00  0.00     0.012 C 
HETATM   21  C15 UNL     1      36.294  26.287   1.510  1.00  0.00     0.006 C 
HETATM   22  C16 UNL     1      36.105  26.076   0.025  1.00  0.00     0.044 C 
HETATM   23  C17 UNL     1      37.408  25.935  -0.707  1.00  0.00     0.063 C 
HETATM   24  N1  UNL     1      38.144  24.855  -0.181  1.00  0.00    -0.369 N 
HETATM   25  C24 UNL     1      39.171  25.127   0.742  1.00  0.00     0.070 C 
BRANCH  24  26
HETATM   26  C18 UNL     1      38.158  23.651  -0.905  1.00  0.00     0.088 C 
HETATM   27  C19 UNL     1      38.961  22.532  -0.281  1.00  0.00     0.026 C 
HETATM   28  C20 UNL     1      38.966  21.386  -1.259  1.00  0.00     0.002 C 
HETATM   29  C21 UNL     1      38.178  21.670  -2.517  1.00  0.00     0.000 C 
HETATM   30  C22 UNL     1      36.786  22.148  -2.266  1.00  0.00     0.002 C 
HETATM   31  C23 UNL     1      36.754  23.141  -1.134  1.00  0.00     0.026 C 
ENDBRANCH  24  26
ENDBRANCH  18  19
ENDBRANCH  17  18
ENDBRANCH   1  17
TORSDOF 18
ENDMDL
MODEL 2
REMARK VINA RESULT: -6.198115503      1.756      4.275
REMARK  18 active torsions:
REMARK  status: ('A' for Active; 'I' for Inactive)
REMARK    1  A    between atoms: O1_2  and  C2_3 
REMARK    2  A    between atoms: C2_3  and  C3_4 
REMARK    3  A    between atoms: C3_4  and  O2_5 
REMARK    4  A    between atoms: O2_5  and  C4_6 
REMARK    5  A    between atoms: C4_6  and  C5_7 
REMARK    6  A    between atoms: C5_7  and  O3_8 
REMARK    7  A    between atoms: O3_8  and  C6_9 
REMARK    8  A    between atoms: C6_9  and  C7_10 
REMARK    9  A    between atoms: C7_10  and  O4_11 
REMARK   10  A    between atoms: O4_11  and  C8_12 
REMARK   11  A    between atoms: C8_12  and  C9_13 
REMARK   12  A    between atoms: C9_13  and  O5_14 
REMARK   13  A    between atoms: O5_14  and  C10_15 
REMARK   14  A    between atoms: C10_15  and  C11_16 
REMARK   15  A    between atoms: C11_16  and  O6_17 
REMARK   16  A    between atoms: O6_17  and  C12_18 
REMARK   17  A    between atoms: C12_18  and  C13_19 
REMARK   18  A    between atoms: N1_24  and  C18_25 
ROOT
HETATM    1  C11 UNL     1      40.475  20.882  -0.990  1.00  0.00     0.193 C 
ENDROOT
BRANCH   1   2
HETATM    2  C10 UNL     1      40.224  19.766  -0.051  1.00  0.00     0.193 C 
BRANCH   2   3
HETATM    3  O5  UNL     1      41.083  18.713  -0.128  1.00  0.00    -0.387 OA
BRANCH   3   4
HETATM    4  C9  UNL     1      41.742  18.389   1.025  1.00  0.00     0.193 C 
BRANCH   4   5
HETATM    5  C8  UNL     1      40.919  18.594   2.277  1.00  0.00     0.193 C 
BRANCH   5   6
HETATM    6  O4  UNL     1      41.655  19.350   3.185  1.00  0.00    -0.387 OA
BRANCH   6   7
HETATM    7  C7  UNL     1      42.893  19.737   2.742  1.00  0.00     0.193 C 
BRANCH   7   8
HETATM    8  C6  UNL     1      43.444  20.933   3.546  1.00  0.00     0.193 C 
BRANCH   8   9
HETATM    9  O3  UNL     1      44.756  21.068   3.182  1.00  0.00    -0.387 OA
BRANCH   9  10
HETATM   10  C5  UNL     1      45.142  22.339   2.814  1.00  0.00     0.193 C 
BRANCH  10  11
HETATM   11  C4  UNL     1      45.251  22.477   1.318  1.00  0.00     0.193 C 
BRANCH  11  12
HETATM   12  O2  UNL     1      45.876  21.339   0.774  1.00  0.00    -0.387 OA
BRANCH  12  13
HETATM   13  C3  UNL     1      45.573  21.221  -0.583  1.00  0.00     0.193 C 
BRANCH  13  14
HETATM   14  C2  UNL     1      44.438  20.262  -0.763  1.00  0.00     0.193 C 
BRANCH  14  15
HETATM   15  O1  UNL     1      43.776  20.408  -1.960  1.00  0.00    -0.394 OA
HETATM   16  C1  UNL     1      43.826  21.708  -2.456  1.00  0.00     0.201 C 
ENDBRANCH  14  15
ENDBRANCH  13  14
ENDBRANCH  12  13
ENDBRANCH  11  12
ENDBRANCH  10  11
ENDBRANCH   9  10
ENDBRANCH   8   9
ENDBRANCH   7   8
ENDBRANCH   6   7
ENDBRANCH   5   6
ENDBRANCH   4   5
ENDBRANCH   3   4
ENDBRANCH   2   3
ENDBRANCH   1   2
BRANCH   1  17
HETATM   17  O6  UNL     1      40.687  22.108  -0.449  1.00  0.00    -0.388 OA
BRANCH  17  18
HETATM   18  C12 UNL     1      41.493  22.181   0.644  1.00  0.00     0.177 C 
BRANCH  18  19
HETATM   19  C13 UNL     1      40.941  23.013   1.779  1.00  0.00     0.048 C 
HETATM   20  C14 UNL     1      39.970  22.263   2.631  1.00  0.00     0.012 C 
HETATM   21  C15 UNL     1      40.037  22.847   4.027  1.00  0.00     0.006 C 
HETATM   22  C16 UNL     1      39.059  23.986   4.204  1.00  0.00     0.044 C 
HETATM   23  C17 UNL     1      39.250  25.072   3.185  1.00  0.00     0.063 C 
HETATM   24  N1  UNL     1      39.111  24.547   1.885  1.00  0.00    -0.369 N 
HETATM   25  C24 UNL     1      40.275  24.235   1.159  1.00  0.00     0.070 C 
BRANCH  24  26
HETATM   26  C18 UNL     1      37.905  24.781   1.204  1.00  0.00     0.088 C 
HETATM   27  C19 UNL     1      37.383  26.198   1.283  1.00  0.00     0.026 C 
HETATM   28  C20 UNL     1      36.032  26.214   0.617  1.00  0.00     0.002 C 
HETATM   29  C21 UNL     1      35.621  24.869   0.064  1.00  0.00     0.000 C 
HETATM   30  C22 UNL     1      36.643  24.239  -0.823  1.00  0.00     0.002 C 
HETATM   31  C23 UNL     1      38.028  24.413  -0.256  1.00  0.00     0.026 C 
ENDBRANCH  24  26
ENDBRANCH  18  19
ENDBRANCH  17  18
ENDBRANCH   1  17
TORSDOF 18
ENDMDL
MODEL 3
REMARK VINA RESULT: -6.180642896      0.729      2.562
REMARK  18 active torsions:
REMARK  status: ('A' for Active; 'I' for Inactive)
REMARK    1  A    between atoms: O1_2  and  C2_3 
REMARK    2  A    between atoms: C2_3  and  C3_4 
REMARK    3  A    between atoms: C3_4  and  O2_5 
REMARK    4  A    between atoms: O2_5  and  C4_6 
REMARK    5  A    between atoms: C4_6  and  C5_7 
REMARK    6  A    between atoms: C5_7  and  O3_8 
REMARK    7  A    between atoms: O3_8  and  C6_9 
REMARK    8  A    between atoms: C6_9  and  C7_10 
REMARK    9  A    between atoms: C7_10  and  O4_11 
REMARK   10  A    between atoms: O4_11  and  C8_12 
REMARK   11  A    between atoms: C8_12  and  C9_13 
REMARK   12  A    between atoms: C9_13  and  O5_14 
REMARK   13  A    between atoms: O5_14  and  C10_15 
REMARK   14  A    between atoms: C10_15  and  C11_16 
REMARK   15  A    between atoms: C11_16  and  O6_17 
REMARK   16  A    between atoms: O6_17  and  C12_18 
REMARK   17  A    between atoms: C12_18  and  C13_19 
REMARK   18  A    between atoms: N1_24  and  C18_25 
ROOT
HETATM    1  C11 UNL     1      39.167  23.670   4.937  1.00  0.00     0.193 C 
ENDROOT
BRANCH   1   2
HETATM    2  C10 UNL     1      40.144  22.559   4.990  1.00  0.00     0.193 C 
BRANCH   2   3
HETATM    3  O5  UNL     1      41.377  22.820   4.478  1.00  0.00    -0.387 OA
BRANCH   3   4
HETATM    4  C9  UNL     1      41.697  22.172   3.318  1.00  0.00     0.193 C 
BRANCH   4   5
HETATM    5  C8  UNL     1      42.800  21.149   3.475  1.00  0.00     0.193 C 
BRANCH   5   6
HETATM    6  O4  UNL     1      42.242  19.873   3.454  1.00  0.00    -0.387 OA
BRANCH   6   7
HETATM    7  C7  UNL     1      41.099  19.758   2.706  1.00  0.00     0.193 C 
BRANCH   7   8
HETATM    8  C6  UNL     1      41.090  18.464   1.865  1.00  0.00     0.193 C 
BRANCH   8   9
HETATM    9  O3  UNL     1      42.401  18.135   1.653  1.00  0.00    -0.387 OA
BRANCH   9  10
HETATM   10  C5  UNL     1      42.782  18.036   0.332  1.00  0.00     0.193 C 
BRANCH  10  11
HETATM   11  C4  UNL     1      42.671  19.359  -0.380  1.00  0.00     0.193 C 
BRANCH  11  12
HETATM   12  O2  UNL     1      43.596  20.275   0.157  1.00  0.00    -0.387 OA
BRANCH  12  13
HETATM   13  C3  UNL     1      44.718  20.370  -0.666  1.00  0.00     0.193 C 
BRANCH  13  14
HETATM   14  C2  UNL     1      45.517  21.579  -0.290  1.00  0.00     0.193 C 
BRANCH  14  15
HETATM   15  O1  UNL     1      45.889  21.605   1.033  1.00  0.00    -0.394 OA
HETATM   16  C1  UNL     1      45.552  22.795   1.672  1.00  0.00     0.201 C 
ENDBRANCH  14  15
ENDBRANCH  13  14
ENDBRANCH  12  13
ENDBRANCH  11  12
ENDBRANCH  10  11
ENDBRANCH   9  10
ENDBRANCH   8   9
ENDBRANCH   7   8
ENDBRANCH   6   7
ENDBRANCH   5   6
ENDBRANCH   4   5
ENDBRANCH   3   4
ENDBRANCH   2   3
ENDBRANCH   1   2
BRANCH   1  17
HETATM   17  O6  UNL     1      38.722  24.043   3.711  1.00  0.00    -0.388 OA
BRANCH  17  18
HETATM   18  C12 UNL     1      39.152  25.237   3.224  1.00  0.00     0.177 C 
BRANCH  18  19
HETATM   19  C13 UNL     1      38.379  25.744   2.028  1.00  0.00     0.048 C 
HETATM   20  C14 UNL     1      36.949  25.312   2.034  1.00  0.00     0.012 C 
HETATM   21  C15 UNL     1      36.148  26.366   1.298  1.00  0.00     0.006 C 
HETATM   22  C16 UNL     1      36.058  26.070  -0.181  1.00  0.00     0.044 C 
HETATM   23  C17 UNL     1      37.409  25.916  -0.820  1.00  0.00     0.063 C 
HETATM   24  N1  UNL     1      38.129  24.883  -0.188  1.00  0.00    -0.369 N 
HETATM   25  C24 UNL     1      39.088  25.228   0.782  1.00  0.00     0.070 C 
BRANCH  24  26
HETATM   26  C18 UNL     1      38.210  23.641  -0.840  1.00  0.00     0.088 C 
HETATM   27  C19 UNL     1      39.044  22.596  -0.134  1.00  0.00     0.026 C 
HETATM   28  C20 UNL     1      39.122  21.397  -1.044  1.00  0.00     0.002 C 
HETATM   29  C21 UNL     1      38.353  21.574  -2.334  1.00  0.00     0.000 C 
HETATM   30  C22 UNL     1      36.937  22.005  -2.141  1.00  0.00     0.002 C 
HETATM   31  C23 UNL     1      36.835  23.059  -1.070  1.00  0.00     0.026 C 
ENDBRANCH  24  26
ENDBRANCH  18  19
ENDBRANCH  17  18
ENDBRANCH   1  17
TORSDOF 18
ENDMDL
MODEL 4
REMARK VINA RESULT: -6.176840415      2.339      4.932
REMARK  18 active torsions:
REMARK  status: ('A' for Active; 'I' for Inactive)
REMARK    1  A    between atoms: O1_2  and  C2_3 
REMARK    2  A    between atoms: C2_3  and  C3_4 
REMARK    3  A    between atoms: C3_4  and  O2_5 
REMARK    4  A    between atoms: O2_5  and  C4_6 
REMARK    5  A    between atoms: C4_6  and  C5_7 
REMARK    6  A    between atoms: C5_7  and  O3_8 
REMARK    7  A    between atoms: O3_8  and  C6_9 
REMARK    8  A    between atoms: C6_9  and  C7_10 
REMARK    9  A    between atoms: C7_10  and  O4_11 
REMARK   10  A    between atoms: O4_11  and  C8_12 
REMARK   11  A    between atoms: C8_12  and  C9_13 
REMARK   12  A    between atoms: C9_13  and  O5_14 
REMARK   13  A    between atoms: O5_14  and  C10_15 
REMARK   14  A    between atoms: C10_15  and  C11_16 
REMARK   15  A    between atoms: C11_16  and  O6_17 
REMARK   16  A    between atoms: O6_17  and  C12_18 
REMARK   17  A    between atoms: C12_18  and  C13_19 
REMARK   18  A    between atoms: N1_24  and  C18_25 
ROOT
HETATM    1  C11 UNL     1      44.816  21.716   2.786  1.00  0.00     0.193 C 
ENDROOT
BRANCH   1   2
HETATM    2  C10 UNL     1      45.029  22.640   1.650  1.00  0.00     0.193 C 
BRANCH   2   3
HETATM    3  O5  UNL     1      45.760  22.153   0.610  1.00  0.00    -0.387 OA
BRANCH   3   4
HETATM    4  C9  UNL     1      45.201  21.120  -0.088  1.00  0.00     0.193 C 
BRANCH   4   5
HETATM    5  C8  UNL     1      43.878  21.467  -0.735  1.00  0.00     0.193 C 
BRANCH   5   6
HETATM    6  O4  UNL     1      42.915  20.552  -0.318  1.00  0.00    -0.387 OA
BRANCH   6   7
HETATM    7  C7  UNL     1      43.391  19.291  -0.065  1.00  0.00     0.193 C 
BRANCH   7   8
HETATM    8  C6  UNL     1      42.772  18.690   1.215  1.00  0.00     0.193 C 
BRANCH   8   9
HETATM    9  O3  UNL     1      41.472  19.111   1.247  1.00  0.00    -0.387 OA
BRANCH   9  10
HETATM   10  C5  UNL     1      40.531  18.123   1.443  1.00  0.00     0.193 C 
BRANCH  10  11
HETATM   11  C4  UNL     1      39.996  17.597   0.136  1.00  0.00     0.193 C 
BRANCH  11  12
HETATM   12  O2  UNL     1      38.817  16.862   0.359  1.00  0.00    -0.387 OA
BRANCH  12  13
HETATM   13  C3  UNL     1      38.378  16.276  -0.828  1.00  0.00     0.193 C 
BRANCH  13  14
HETATM   14  C2  UNL     1      36.899  16.458  -0.964  1.00  0.00     0.193 C 
BRANCH  14  15
HETATM   15  O1  UNL     1      36.471  17.731  -0.669  1.00  0.00    -0.394 OA
HETATM   16  C1  UNL     1      36.691  18.635  -1.705  1.00  0.00     0.201 C 
ENDBRANCH  14  15
ENDBRANCH  13  14
ENDBRANCH  12  13
ENDBRANCH  11  12
ENDBRANCH  10  11
ENDBRANCH   9  10
ENDBRANCH   8   9
ENDBRANCH   7   8
ENDBRANCH   6   7
ENDBRANCH   5   6
ENDBRANCH   4   5
ENDBRANCH   3   4
ENDBRANCH   2   3
ENDBRANCH   1   2
BRANCH   1  17
HETATM   17  O6  UNL     1      43.616  21.780   3.417  1.00  0.00    -0.388 OA
BRANCH  17  18
HETATM   18  C12 UNL     1      42.543  22.178   2.683  1.00  0.00     0.177 C 
BRANCH  18  19
HETATM   19  C13 UNL     1      41.521  22.985   3.452  1.00  0.00     0.048 C 
HETATM   20  C14 UNL     1      40.403  22.151   3.986  1.00  0.00     0.012 C 
HETATM   21  C15 UNL     1      39.889  22.824   5.242  1.00  0.00     0.006 C 
HETATM   22  C16 UNL     1      38.786  23.811   4.936  1.00  0.00     0.044 C 
HETATM   23  C17 UNL     1      39.204  24.849   3.935  1.00  0.00     0.063 C 
HETATM   24  N1  UNL     1      39.610  24.230   2.736  1.00  0.00    -0.369 N 
HETATM   25  C24 UNL     1      40.987  24.053   2.505  1.00  0.00     0.070 C 
BRANCH  24  26
HETATM   26  C18 UNL     1      38.715  24.237   1.654  1.00  0.00     0.088 C 
HETATM   27  C19 UNL     1      37.586  25.238   1.756  1.00  0.00     0.026 C 
HETATM   28  C20 UNL     1      36.671  25.000   0.583  1.00  0.00     0.002 C 
HETATM   29  C21 UNL     1      37.143  23.891  -0.330  1.00  0.00     0.000 C 
HETATM   30  C22 UNL     1      38.558  24.039  -0.781  1.00  0.00     0.002 C 
HETATM   31  C23 UNL     1      39.441  24.489   0.353  1.00  0.00     0.026 C 
ENDBRANCH  24  26
ENDBRANCH  18  19
ENDBRANCH  17  18
ENDBRANCH   1  17
TORSDOF 18
ENDMDL
MODEL 5
REMARK VINA RESULT: -6.141432141      1.743      4.433
REMARK  18 active torsions:
REMARK  status: ('A' for Active; 'I' for Inactive)
REMARK    1  A    between atoms: O1_2  and  C2_3 
REMARK    2  A    between atoms: C2_3  and  C3_4 
REMARK    3  A    between atoms: C3_4  and  O2_5 
REMARK    4  A    between atoms: O2_5  and  C4_6 
REMARK    5  A    between atoms: C4_6  and  C5_7 
REMARK    6  A    between atoms: C5_7  and  O3_8 
REMARK    7  A    between atoms: O3_8  and  C6_9 
REMARK    8  A    between atoms: C6_9  and  C7_10 
REMARK    9  A    between atoms: C7_10  and  O4_11 
REMARK   10  A    between atoms: O4_11  and  C8_12 
REMARK   11  A    between atoms: C8_12  and  C9_13 
REMARK   12  A    between atoms: C9_13  and  O5_14 
REMARK   13  A    between atoms: O5_14  and  C10_15 
REMARK   14  A    between atoms: C10_15  and  C11_16 
REMARK   15  A    between atoms: C11_16  and  O6_17 
REMARK   16  A    between atoms: O6_17  and  C12_18 
REMARK   17  A    between atoms: C12_18  and  C13_19 
REMARK   18  A    between atoms: N1_24  and  C18_25 
ROOT
HETATM    1  C11 UNL     1      41.226  22.032  -1.398  1.00  0.00     0.193 C 
ENDROOT
BRANCH   1   2
HETATM    2  C10 UNL     1      39.845  21.508  -1.490  1.00  0.00     0.193 C 
BRANCH   2   3
HETATM    3  O5  UNL     1      39.466  20.640  -0.512  1.00  0.00    -0.387 OA
BRANCH   3   4
HETATM    4  C9  UNL     1      39.456  19.317  -0.852  1.00  0.00     0.193 C 
BRANCH   4   5
HETATM    5  C8  UNL     1      40.124  18.421   0.167  1.00  0.00     0.193 C 
BRANCH   5   6
HETATM    6  O4  UNL     1      40.765  19.212   1.117  1.00  0.00    -0.387 OA
BRANCH   6   7
HETATM    7  C7  UNL     1      41.923  18.680   1.622  1.00  0.00     0.193 C 
BRANCH   7   8
HETATM    8  C6  UNL     1      43.025  18.577   0.547  1.00  0.00     0.193 C 
BRANCH   8   9
HETATM    9  O3  UNL     1      43.480  19.850   0.340  1.00  0.00    -0.387 OA
BRANCH   9  10
HETATM   10  C5  UNL     1      44.313  20.015  -0.746  1.00  0.00     0.193 C 
BRANCH  10  11
HETATM   11  C4  UNL     1      45.099  21.298  -0.655  1.00  0.00     0.193 C 
BRANCH  11  12
HETATM   12  O2  UNL     1      45.835  21.327   0.545  1.00  0.00    -0.387 OA
BRANCH  12  13
HETATM   13  C3  UNL     1      45.552  22.491   1.260  1.00  0.00     0.193 C 
BRANCH  13  14
HETATM   14  C2  UNL     1      45.444  22.172   2.718  1.00  0.00     0.193 C 
BRANCH  14  15
HETATM   15  O1  UNL     1      44.599  21.123   2.993  1.00  0.00    -0.394 OA
HETATM   16  C1  UNL     1      43.571  21.464   3.866  1.00  0.00     0.201 C 
ENDBRANCH  14  15
ENDBRANCH  13  14
ENDBRANCH  12  13
ENDBRANCH  11  12
ENDBRANCH  10  11
ENDBRANCH   9  10
ENDBRANCH   8   9
ENDBRANCH   7   8
ENDBRANCH   6   7
ENDBRANCH   5   6
ENDBRANCH   4   5
ENDBRANCH   3   4
ENDBRANCH   2   3
ENDBRANCH   1   2
BRANCH   1  17
HETATM   17  O6  UNL     1      41.442  23.050  -0.526  1.00  0.00    -0.388 OA
BRANCH  17  18
HETATM   18  C12 UNL     1      41.920  22.729   0.706  1.00  0.00     0.177 C 
BRANCH  18  19
HETATM   19  C13 UNL     1      41.187  23.385   1.854  1.00  0.00     0.048 C 
HETATM   20  C14 UNL     1      40.093  22.533   2.410  1.00  0.00     0.012 C 
HETATM   21  C15 UNL     1      39.931  22.890   3.873  1.00  0.00     0.006 C 
HETATM   22  C16 UNL     1      38.934  24.009   4.068  1.00  0.00     0.044 C 
HETATM   23  C17 UNL     1      39.284  25.237   3.278  1.00  0.00     0.063 C 
HETATM   24  N1  UNL     1      39.360  24.924   1.906  1.00  0.00    -0.369 N 
HETATM   25  C24 UNL     1      40.628  24.704   1.336  1.00  0.00     0.070 C 
BRANCH  24  26
HETATM   26  C18 UNL     1      38.279  25.289   1.085  1.00  0.00     0.088 C 
HETATM   27  C19 UNL     1      37.960  24.318  -0.029  1.00  0.00     0.026 C 
HETATM   28  C20 UNL     1      36.876  24.943  -0.869  1.00  0.00     0.002 C 
HETATM   29  C21 UNL     1      36.427  26.293  -0.358  1.00  0.00     0.000 C 
HETATM   30  C22 UNL     1      36.050  26.299   1.087  1.00  0.00     0.002 C 
HETATM   31  C23 UNL     1      37.023  25.488   1.901  1.00  0.00     0.026 C 
ENDBRANCH  24  26
ENDBRANCH  18  19
ENDBRANCH  17  18
ENDBRANCH   1  17
TORSDOF 18
ENDMDL
