MODEL 1
REMARK VINA RESULT: -5.211643956      0.000      0.000
REMARK  3 active torsions:
REMARK  status: ('A' for Active; 'I' for Inactive)
REMARK    1  A    between atoms: N2_4  and  N3_6 
REMARK    2  A    between atoms: C1_8  and  C2_9 
REMARK    3  A    between atoms: C3_13  and  C4_14 
ROOT
HETATM    1  C2  UNL     1       1.773 -10.613  74.400  1.00  0.00     0.078 A 
HETATM    2  N4  UNL     1       1.870 -11.949  74.431  1.00  0.00    -0.323 N 
ATOM      3  H4  UNL     1       2.671 -12.555  74.613  1.00  0.00     0.174 HD
HETATM    4  S1  UNL     1       0.285 -12.317  74.083  1.00  0.00    -0.008 SA
HETATM    5  C3  UNL     1       0.412 -10.629  74.099  1.00  0.00     0.103 A 
ENDROOT
BRANCH   1   6
HETATM    6  C1  UNL     1       2.770  -9.574  74.613  1.00  0.00     0.140 C 
HETATM    7  N3  UNL     1       3.787  -9.379  73.850  1.00  0.00    -0.296 N 
ATOM      8  H3  UNL     1       3.903  -9.991  73.043  1.00  0.00     0.187 HD
BRANCH   7   9
HETATM    9  N2  UNL     1       4.733  -8.390  74.058  1.00  0.00    -0.250 N 
HETATM   10  N1  UNL     1       5.548  -8.031  73.135  1.00  0.00    -0.331 N 
ATOM     11  H12 UNL     1       5.485  -8.496  72.229  1.00  0.00     0.178 HD
ATOM     12  H11 UNL     1       6.246  -7.302  73.288  1.00  0.00     0.178 HD
ATOM     13  H2  UNL     1       4.783  -7.935  74.970  1.00  0.00     0.207 HD
ENDBRANCH   7   9
ENDBRANCH   1   6
BRANCH   5  14
HETATM   14  C4  UNL     1      -0.573  -9.564  73.873  1.00  0.00     0.186 A 
HETATM   15  N5  UNL     1      -0.847  -8.953  72.712  1.00  0.00    -0.276 N 
HETATM   16  N6  UNL     1      -1.792  -8.048  72.910  1.00  0.00    -0.268 N 
ATOM     17  H5  UNL     1      -0.398  -9.153  71.818  1.00  0.00     0.189 HD
HETATM   18  C5  UNL     1      -2.112  -8.097  74.211  1.00  0.00     0.235 A 
ATOM     19  H6  UNL     1      -2.199  -7.432  72.206  1.00  0.00     0.190 HD
HETATM   20  S2  UNL     1      -3.227  -7.176  74.946  1.00  0.00    -0.031 SA
HETATM   21  O1  UNL     1      -1.359  -9.020  74.757  1.00  0.00    -0.263 OA
ENDBRANCH   5  14
TORSDOF 3
ENDMDL
MODEL 2
REMARK VINA RESULT: -4.926579131      1.530      1.530
REMARK  3 active torsions:
REMARK  status: ('A' for Active; 'I' for Inactive)
REMARK    1  A    between atoms: N2_4  and  N3_6 
REMARK    2  A    between atoms: C1_8  and  C2_9 
REMARK    3  A    between atoms: C3_13  and  C4_14 
ROOT
HETATM    1  C2  UNL     1       1.615 -10.640  74.297  1.00  0.00     0.078 A 
HETATM    2  N4  UNL     1       1.678 -11.966  74.482  1.00  0.00    -0.323 N 
ATOM      3  H4  UNL     1       2.433 -12.554  74.835  1.00  0.00     0.174 HD
HETATM    4  S1  UNL     1       0.147 -12.357  73.960  1.00  0.00    -0.008 SA
HETATM    5  C3  UNL     1       0.308 -10.678  73.816  1.00  0.00     0.103 A 
ENDROOT
BRANCH   1   6
HETATM    6  C1  UNL     1       2.596  -9.591  74.536  1.00  0.00     0.140 C 
HETATM    7  N3  UNL     1       3.666  -9.429  73.840  1.00  0.00    -0.296 N 
ATOM      8  H3  UNL     1       3.839 -10.077  73.071  1.00  0.00     0.187 HD
BRANCH   7   9
HETATM    9  N2  UNL     1       4.596  -8.431  74.072  1.00  0.00    -0.250 N 
HETATM   10  N1  UNL     1       5.458  -8.092  73.183  1.00  0.00    -0.331 N 
ATOM     11  H12 UNL     1       5.443  -8.581  72.288  1.00  0.00     0.178 HD
ATOM     12  H11 UNL     1       6.144  -7.356  73.353  1.00  0.00     0.178 HD
ATOM     13  H2  UNL     1       4.597  -7.952  74.972  1.00  0.00     0.207 HD
ENDBRANCH   7   9
ENDBRANCH   1   6
BRANCH   5  14
HETATM   14  C4  UNL     1      -0.614  -9.636  73.347  1.00  0.00     0.186 A 
HETATM   15  N5  UNL     1      -1.123  -8.628  74.069  1.00  0.00    -0.276 N 
HETATM   16  N6  UNL     1      -1.914  -7.899  73.298  1.00  0.00    -0.268 N 
ATOM     17  H5  UNL     1      -0.931  -8.450  75.055  1.00  0.00     0.189 HD
HETATM   18  C5  UNL     1      -1.898  -8.460  72.081  1.00  0.00     0.235 A 
ATOM     19  H6  UNL     1      -2.437  -7.068  73.577  1.00  0.00     0.190 HD
HETATM   20  S2  UNL     1      -2.714  -7.930  70.783  1.00  0.00    -0.031 SA
HETATM   21  O1  UNL     1      -1.105  -9.502  72.149  1.00  0.00    -0.263 OA
ENDBRANCH   5  14
TORSDOF 3
ENDMDL
MODEL 3
REMARK VINA RESULT: -4.901275783      2.673      5.130
REMARK  3 active torsions:
REMARK  status: ('A' for Active; 'I' for Inactive)
REMARK    1  A    between atoms: N2_4  and  N3_6 
REMARK    2  A    between atoms: C1_8  and  C2_9 
REMARK    3  A    between atoms: C3_13  and  C4_14 
ROOT
HETATM    1  C2  UNL     1      -0.466 -10.811  73.685  1.00  0.00     0.078 A 
HETATM    2  N4  UNL     1      -0.859 -12.089  73.777  1.00  0.00    -0.323 N 
ATOM      3  H4  UNL     1      -1.787 -12.507  73.712  1.00  0.00     0.174 HD
HETATM    4  S1  UNL     1       0.632 -12.785  74.029  1.00  0.00    -0.008 SA
HETATM    5  C3  UNL     1       0.881 -11.117  73.878  1.00  0.00     0.103 A 
ENDROOT
BRANCH   1   6
HETATM    6  C1  UNL     1      -1.224  -9.588  73.462  1.00  0.00     0.140 C 
HETATM    7  N3  UNL     1      -1.213  -8.576  74.254  1.00  0.00    -0.296 N 
ATOM      8  H3  UNL     1      -0.637  -8.631  75.094  1.00  0.00     0.187 HD
BRANCH   7   9
HETATM    9  N2  UNL     1      -1.937  -7.416  74.038  1.00  0.00    -0.250 N 
HETATM   10  N1  UNL     1      -1.919  -6.442  74.874  1.00  0.00    -0.331 N 
ATOM     11  H12 UNL     1      -1.351  -6.542  75.715  1.00  0.00     0.178 HD
ATOM     12  H11 UNL     1      -2.452  -5.588  74.714  1.00  0.00     0.178 HD
ATOM     13  H2  UNL     1      -2.500  -7.332  73.191  1.00  0.00     0.207 HD
ENDBRANCH   7   9
ENDBRANCH   1   6
BRANCH   5  14
HETATM   14  C4  UNL     1       2.094 -10.293  73.932  1.00  0.00     0.186 A 
HETATM   15  N5  UNL     1       2.316  -9.239  74.730  1.00  0.00    -0.276 N 
HETATM   16  N6  UNL     1       3.524  -8.757  74.486  1.00  0.00    -0.268 N 
ATOM     17  H5  UNL     1       1.659  -8.867  75.416  1.00  0.00     0.189 HD
HETATM   18  C5  UNL     1       4.062  -9.521  73.525  1.00  0.00     0.235 A 
ATOM     19  H6  UNL     1       3.962  -7.957  74.943  1.00  0.00     0.190 HD
HETATM   20  S2  UNL     1       5.538  -9.331  72.880  1.00  0.00    -0.031 SA
HETATM   21  O1  UNL     1       3.172 -10.433  73.217  1.00  0.00    -0.263 OA
ENDBRANCH   5  14
TORSDOF 3
ENDMDL
MODEL 4
REMARK VINA RESULT: -4.734158328      1.971      2.128
REMARK  3 active torsions:
REMARK  status: ('A' for Active; 'I' for Inactive)
REMARK    1  A    between atoms: N2_4  and  N3_6 
REMARK    2  A    between atoms: C1_8  and  C2_9 
REMARK    3  A    between atoms: C3_13  and  C4_14 
ROOT
HETATM    1  C2  UNL     1       3.217 -11.472  72.824  1.00  0.00     0.078 A 
HETATM    2  N4  UNL     1       3.367 -12.778  72.558  1.00  0.00    -0.323 N 
ATOM      3  H4  UNL     1       4.207 -13.331  72.389  1.00  0.00     0.174 HD
HETATM    4  S1  UNL     1       1.763 -13.218  72.590  1.00  0.00    -0.008 SA
HETATM    5  C3  UNL     1       1.829 -11.557  72.909  1.00  0.00     0.103 A 
ENDROOT
BRANCH   1   6
HETATM    6  C1  UNL     1       4.197 -10.404  72.961  1.00  0.00     0.140 C 
HETATM    7  N3  UNL     1       4.036  -9.368  73.706  1.00  0.00    -0.296 N 
ATOM      8  H3  UNL     1       3.168  -9.289  74.236  1.00  0.00     0.187 HD
BRANCH   7   9
HETATM    9  N2  UNL     1       4.970  -8.354  73.833  1.00  0.00    -0.250 N 
HETATM   10  N1  UNL     1       5.645  -7.927  72.828  1.00  0.00    -0.331 N 
ATOM     11  H12 UNL     1       5.476  -8.357  71.918  1.00  0.00     0.178 HD
ATOM     12  H11 UNL     1       6.333  -7.180  72.921  1.00  0.00     0.178 HD
ATOM     13  H2  UNL     1       5.127  -7.935  74.750  1.00  0.00     0.207 HD
ENDBRANCH   7   9
ENDBRANCH   1   6
BRANCH   5  14
HETATM   14  C4  UNL     1       0.783 -10.563  73.181  1.00  0.00     0.186 A 
HETATM   15  N5  UNL     1       0.563  -9.921  74.336  1.00  0.00    -0.276 N 
HETATM   16  N6  UNL     1      -0.468  -9.105  74.190  1.00  0.00    -0.268 N 
ATOM     17  H5  UNL     1       1.104 -10.043  75.193  1.00  0.00     0.189 HD
HETATM   18  C5  UNL     1      -0.896  -9.239  72.927  1.00  0.00     0.235 A 
ATOM     19  H6  UNL     1      -0.862  -8.491  74.903  1.00  0.00     0.190 HD
HETATM   20  S2  UNL     1      -2.143  -8.444  72.260  1.00  0.00    -0.031 SA
HETATM   21  O1  UNL     1      -0.119 -10.124  72.351  1.00  0.00    -0.263 OA
ENDBRANCH   5  14
TORSDOF 3
ENDMDL
MODEL 5
REMARK VINA RESULT: -4.730703938      2.672      4.579
REMARK  3 active torsions:
REMARK  status: ('A' for Active; 'I' for Inactive)
REMARK    1  A    between atoms: N2_4  and  N3_6 
REMARK    2  A    between atoms: C1_8  and  C2_9 
REMARK    3  A    between atoms: C3_13  and  C4_14 
ROOT
HETATM    1  C2  UNL     1       1.620 -10.075  74.029  1.00  0.00     0.078 A 
HETATM    2  N4  UNL     1       0.674  -9.232  74.464  1.00  0.00    -0.323 N 
ATOM      3  H4  UNL     1       0.735  -8.259  74.766  1.00  0.00     0.174 HD
HETATM    4  S1  UNL     1      -0.633 -10.256  74.358  1.00  0.00    -0.008 SA
HETATM    5  C3  UNL     1       0.724 -11.127  73.844  1.00  0.00     0.103 A 
ENDROOT
BRANCH   1   6
HETATM    6  C1  UNL     1       3.052  -9.894  73.841  1.00  0.00     0.140 C 
HETATM    7  N3  UNL     1       3.703  -8.846  74.205  1.00  0.00    -0.296 N 
ATOM      8  H3  UNL     1       3.183  -8.093  74.656  1.00  0.00     0.187 HD
BRANCH   7   9
HETATM    9  N2  UNL     1       5.065  -8.679  74.023  1.00  0.00    -0.250 N 
HETATM   10  N1  UNL     1       5.538  -8.047  73.011  1.00  0.00    -0.331 N 
ATOM     11  H12 UNL     1       4.879  -7.664  72.332  1.00  0.00     0.178 HD
ATOM     12  H11 UNL     1       6.541  -7.923  72.876  1.00  0.00     0.178 HD
ATOM     13  H2  UNL     1       5.710  -9.068  74.711  1.00  0.00     0.207 HD
ENDBRANCH   7   9
ENDBRANCH   1   6
BRANCH   5  14
HETATM   14  C4  UNL     1       0.890 -12.507  73.370  1.00  0.00     0.186 A 
HETATM   15  N5  UNL     1       0.419 -13.619  73.951  1.00  0.00    -0.276 N 
HETATM   16  N6  UNL     1       0.773 -14.669  73.229  1.00  0.00    -0.268 N 
ATOM     17  H5  UNL     1      -0.126 -13.651  74.814  1.00  0.00     0.189 HD
HETATM   18  C5  UNL     1       1.472 -14.206  72.183  1.00  0.00     0.235 A 
ATOM     19  H6  UNL     1       0.555 -15.646  73.429  1.00  0.00     0.190 HD
HETATM   20  S2  UNL     1       2.125 -15.110  71.005  1.00  0.00    -0.031 SA
HETATM   21  O1  UNL     1       1.521 -12.901  72.303  1.00  0.00    -0.263 OA
ENDBRANCH   5  14
TORSDOF 3
ENDMDL
