MODEL 1
REMARK VINA RESULT: -7.907947098      0.000      0.000
REMARK  3 active torsions:
REMARK  status: ('A' for Active; 'I' for Inactive)
REMARK    1  A    between atoms: N3_9  and  N4_11 
REMARK    2  A    between atoms: N4_11  and  C6_12 
REMARK    3  A    between atoms: C11_17  and  C12_18 
ROOT
HETATM    1  N1  UNL     1       9.387  37.654 -18.912  1.00  0.00    -0.098 NA
HETATM    2  C1  UNL     1       8.326  38.374 -18.309  1.00  0.00     0.092 A 
HETATM    3  C2  UNL     1       7.249  37.662 -17.785  1.00  0.00     0.032 A 
HETATM    4  C3  UNL     1       6.223  38.372 -17.201  1.00  0.00     0.019 A 
HETATM    5  C4  UNL     1       6.263  39.747 -17.137  1.00  0.00     0.090 A 
HETATM    6  N2  UNL     1       7.314  40.389 -17.652  1.00  0.00    -0.349 N 
ATOM      7  H2  UNL     1       7.337  41.406 -17.601  1.00  0.00     0.167 HD
HETATM    8  C5  UNL     1       8.363  39.740 -18.244  1.00  0.00     0.155 A 
HETATM    9  N3  UNL     1       9.333  40.397 -18.715  1.00  0.00    -0.217 N 
ATOM     10  H3  UNL     1       9.170  41.393 -18.567  1.00  0.00     0.203 HD
ENDROOT
BRANCH   9  11
HETATM   11  N4  UNL     1      10.433  40.237 -19.306  1.00  0.00    -0.333 NA
BRANCH  11  12
HETATM   12  C6  UNL     1      11.492  40.138 -19.877  1.00  0.00     0.096 C 
HETATM   13  C7  UNL     1      11.632  39.113 -20.988  1.00  0.00     0.071 C 
HETATM   14  C8  UNL     1      12.291  39.882 -22.131  1.00  0.00     0.007 C 
HETATM   15  C9  UNL     1      13.712  40.096 -21.654  1.00  0.00     0.001 C 
HETATM   16  C10 UNL     1      13.794  40.979 -20.464  1.00  0.00     0.017 C 
HETATM   17  C11 UNL     1      12.655  40.999 -19.531  1.00  0.00     0.113 C 
BRANCH  17  18
HETATM   18  C12 UNL     1      13.074  40.698 -18.108  1.00  0.00     0.363 C 
HETATM   19  F1  UNL     1      13.414  39.372 -18.003  1.00  0.00    -0.214 F 
HETATM   20  F2  UNL     1      14.133  41.472 -17.690  1.00  0.00    -0.214 F 
ENDBRANCH  17  18
ENDBRANCH  11  12
ENDBRANCH   9  11
TORSDOF 3
ENDMDL
MODEL 2
REMARK VINA RESULT: -7.814516227      2.488      6.133
REMARK  3 active torsions:
REMARK  status: ('A' for Active; 'I' for Inactive)
REMARK    1  A    between atoms: N3_9  and  N4_11 
REMARK    2  A    between atoms: N4_11  and  C6_12 
REMARK    3  A    between atoms: C11_17  and  C12_18 
ROOT
HETATM    1  N1  UNL     1      11.181  39.882 -17.546  1.00  0.00    -0.098 NA
HETATM    2  C1  UNL     1      11.689  40.060 -18.857  1.00  0.00     0.092 A 
HETATM    3  C2  UNL     1      12.904  40.723 -19.018  1.00  0.00     0.032 A 
HETATM    4  C3  UNL     1      13.387  40.890 -20.297  1.00  0.00     0.019 A 
HETATM    5  C4  UNL     1      12.689  40.415 -21.385  1.00  0.00     0.090 A 
HETATM    6  N2  UNL     1      11.529  39.786 -21.184  1.00  0.00    -0.349 N 
ATOM      7  H2  UNL     1      11.016  39.438 -21.993  1.00  0.00     0.167 HD
HETATM    8  C5  UNL     1      10.997  39.589 -19.939  1.00  0.00     0.155 A 
HETATM    9  N3  UNL     1       9.894  38.987 -19.806  1.00  0.00    -0.217 N 
ATOM     10  H3  UNL     1       9.543  38.718 -20.725  1.00  0.00     0.203 HD
ENDROOT
BRANCH   9  11
HETATM   11  N4  UNL     1       9.083  38.607 -18.922  1.00  0.00    -0.333 NA
BRANCH  11  12
HETATM   12  C6  UNL     1       8.265  38.271 -18.099  1.00  0.00     0.096 C 
HETATM   13  C7  UNL     1       7.690  36.868 -18.168  1.00  0.00     0.071 C 
HETATM   14  C8  UNL     1       7.786  36.350 -16.735  1.00  0.00     0.007 C 
HETATM   15  C9  UNL     1       6.729  37.140 -15.991  1.00  0.00     0.001 C 
HETATM   16  C10 UNL     1       7.033  38.590 -15.925  1.00  0.00     0.017 C 
HETATM   17  C11 UNL     1       7.817  39.189 -17.018  1.00  0.00     0.113 C 
BRANCH  17  18
HETATM   18  C12 UNL     1       7.114  40.373 -17.647  1.00  0.00     0.363 C 
HETATM   19  F1  UNL     1       8.042  41.318 -18.005  1.00  0.00    -0.214 F 
HETATM   20  F2  UNL     1       6.373  40.023 -18.754  1.00  0.00    -0.214 F 
ENDBRANCH  17  18
ENDBRANCH  11  12
ENDBRANCH   9  11
TORSDOF 3
ENDMDL
MODEL 3
REMARK VINA RESULT: -7.806535721      2.612      6.367
REMARK  3 active torsions:
REMARK  status: ('A' for Active; 'I' for Inactive)
REMARK    1  A    between atoms: N3_9  and  N4_11 
REMARK    2  A    between atoms: N4_11  and  C6_12 
REMARK    3  A    between atoms: C11_17  and  C12_18 
ROOT
HETATM    1  N1  UNL     1      10.589  39.950 -17.169  1.00  0.00    -0.098 NA
HETATM    2  C1  UNL     1      11.311  40.096 -18.379  1.00  0.00     0.092 A 
HETATM    3  C2  UNL     1      12.622  40.563 -18.324  1.00  0.00     0.032 A 
HETATM    4  C3  UNL     1      13.313  40.701 -19.507  1.00  0.00     0.019 A 
HETATM    5  C4  UNL     1      12.724  40.386 -20.711  1.00  0.00     0.090 A 
HETATM    6  N2  UNL     1      11.465  39.943 -20.718  1.00  0.00    -0.349 N 
ATOM      7  H2  UNL     1      11.034  39.713 -21.613  1.00  0.00     0.167 HD
HETATM    8  C5  UNL     1      10.727  39.785 -19.577  1.00  0.00     0.155 A 
HETATM    9  N3  UNL     1       9.538  39.362 -19.641  1.00  0.00    -0.217 N 
ATOM     10  H3  UNL     1       9.294  39.189 -20.616  1.00  0.00     0.203 HD
ENDROOT
BRANCH   9  11
HETATM   11  N4  UNL     1       8.554  39.082 -18.909  1.00  0.00    -0.333 NA
BRANCH  11  12
HETATM   12  C6  UNL     1       7.577  38.821 -18.249  1.00  0.00     0.096 C 
HETATM   13  C7  UNL     1       6.941  39.918 -17.415  1.00  0.00     0.071 C 
HETATM   14  C8  UNL     1       5.450  39.815 -17.730  1.00  0.00     0.007 C 
HETATM   15  C9  UNL     1       5.020  38.539 -17.038  1.00  0.00     0.001 C 
HETATM   16  C10 UNL     1       5.648  37.327 -17.621  1.00  0.00     0.017 C 
HETATM   17  C11 UNL     1       6.977  37.460 -18.240  1.00  0.00     0.113 C 
BRANCH  17  18
HETATM   18  C12 UNL     1       7.981  36.491 -17.652  1.00  0.00     0.363 C 
HETATM   19  F1  UNL     1       7.325  35.564 -16.880  1.00  0.00    -0.214 F 
HETATM   20  F2  UNL     1       8.717  35.838 -18.616  1.00  0.00    -0.214 F 
ENDBRANCH  17  18
ENDBRANCH  11  12
ENDBRANCH   9  11
TORSDOF 3
ENDMDL
MODEL 4
REMARK VINA RESULT: -7.736595008      0.833      1.618
REMARK  3 active torsions:
REMARK  status: ('A' for Active; 'I' for Inactive)
REMARK    1  A    between atoms: N3_9  and  N4_11 
REMARK    2  A    between atoms: N4_11  and  C6_12 
REMARK    3  A    between atoms: C11_17  and  C12_18 
ROOT
HETATM    1  N1  UNL     1       8.877  40.623 -18.544  1.00  0.00    -0.098 NA
HETATM    2  C1  UNL     1       8.109  39.492 -18.170  1.00  0.00     0.092 A 
HETATM    3  C2  UNL     1       6.917  39.694 -17.477  1.00  0.00     0.032 A 
HETATM    4  C3  UNL     1       6.179  38.587 -17.119  1.00  0.00     0.019 A 
HETATM    5  C4  UNL     1       6.608  37.318 -17.436  1.00  0.00     0.090 A 
HETATM    6  N2  UNL     1       7.757  37.171 -18.101  1.00  0.00    -0.349 N 
ATOM      7  H2  UNL     1       8.069  36.229 -18.332  1.00  0.00     0.167 HD
HETATM    8  C5  UNL     1       8.534  38.230 -18.484  1.00  0.00     0.155 A 
HETATM    9  N3  UNL     1       9.613  38.034 -19.111  1.00  0.00    -0.217 N 
ATOM     10  H3  UNL     1       9.748  37.032 -19.246  1.00  0.00     0.203 HD
ENDROOT
BRANCH   9  11
HETATM   11  N4  UNL     1      10.577  38.658 -19.625  1.00  0.00    -0.333 NA
BRANCH  11  12
HETATM   12  C6  UNL     1      11.517  39.210 -20.145  1.00  0.00     0.096 C 
HETATM   13  C7  UNL     1      12.090  38.633 -21.427  1.00  0.00     0.071 C 
HETATM   14  C8  UNL     1      12.224  39.837 -22.356  1.00  0.00     0.007 C 
HETATM   15  C9  UNL     1      13.376  40.624 -21.766  1.00  0.00     0.001 C 
HETATM   16  C10 UNL     1      13.070  41.174 -20.423  1.00  0.00     0.017 C 
HETATM   17  C11 UNL     1      12.118  40.443 -19.570  1.00  0.00     0.113 C 
BRANCH  17  18
HETATM   18  C12 UNL     1      12.702  40.111 -18.213  1.00  0.00     0.363 C 
HETATM   19  F1  UNL     1      13.513  39.009 -18.323  1.00  0.00    -0.214 F 
HETATM   20  F2  UNL     1      13.423  41.153 -17.675  1.00  0.00    -0.214 F 
ENDBRANCH  17  18
ENDBRANCH  11  12
ENDBRANCH   9  11
TORSDOF 3
ENDMDL
MODEL 5
REMARK VINA RESULT: -7.678650508      2.054      3.158
REMARK  3 active torsions:
REMARK  status: ('A' for Active; 'I' for Inactive)
REMARK    1  A    between atoms: N3_9  and  N4_11 
REMARK    2  A    between atoms: N4_11  and  C6_12 
REMARK    3  A    between atoms: C11_17  and  C12_18 
ROOT
HETATM    1  N1  UNL     1       8.808  39.622 -17.509  1.00  0.00    -0.098 NA
HETATM    2  C1  UNL     1       8.153  38.378 -17.677  1.00  0.00     0.092 A 
HETATM    3  C2  UNL     1       6.998  38.126 -16.940  1.00  0.00     0.032 A 
HETATM    4  C3  UNL     1       6.370  36.912 -17.111  1.00  0.00     0.019 A 
HETATM    5  C4  UNL     1       6.871  35.974 -17.986  1.00  0.00     0.090 A 
HETATM    6  N2  UNL     1       7.981  36.257 -18.672  1.00  0.00    -0.349 N 
ATOM      7  H2  UNL     1       8.346  35.559 -19.318  1.00  0.00     0.167 HD
HETATM    8  C5  UNL     1       8.649  37.445 -18.546  1.00  0.00     0.155 A 
HETATM    9  N3  UNL     1       9.696  37.660 -19.219  1.00  0.00    -0.217 N 
ATOM     10  H3  UNL     1       9.896  36.847 -19.802  1.00  0.00     0.203 HD
ENDROOT
BRANCH   9  11
HETATM   11  N4  UNL     1      10.575  38.539 -19.414  1.00  0.00    -0.333 NA
BRANCH  11  12
HETATM   12  C6  UNL     1      11.454  39.343 -19.611  1.00  0.00     0.096 C 
HETATM   13  C7  UNL     1      11.516  40.589 -18.745  1.00  0.00     0.071 C 
HETATM   14  C8  UNL     1      12.979  40.679 -18.318  1.00  0.00     0.007 C 
HETATM   15  C9  UNL     1      13.704  41.082 -19.585  1.00  0.00     0.001 C 
HETATM   16  C10 UNL     1      13.647  40.038 -20.638  1.00  0.00     0.017 C 
HETATM   17  C11 UNL     1      12.481  39.140 -20.668  1.00  0.00     0.113 C 
BRANCH  17  18
HETATM   18  C12 UNL     1      11.793  39.138 -22.017  1.00  0.00     0.363 C 
HETATM   19  F1  UNL     1      12.001  40.344 -22.638  1.00  0.00    -0.214 F 
HETATM   20  F2  UNL     1      12.235  38.124 -22.837  1.00  0.00    -0.214 F 
ENDBRANCH  17  18
ENDBRANCH  11  12
ENDBRANCH   9  11
TORSDOF 3
ENDMDL
