MODEL 1
REMARK VINA RESULT: -4.998089241      0.000      0.000
REMARK  5 active torsions:
REMARK  status: ('A' for Active; 'I' for Inactive)
REMARK    1  A    between atoms: C2_2  and  N1_3 
REMARK    2  A    between atoms: C2_2  and  C3_7 
REMARK    3  A    between atoms: N3_10  and  C4_11 
REMARK    4  A    between atoms: C4_11  and  N4_12 
REMARK    5  A    between atoms: C5_18  and  N6_19 
ROOT
HETATM    1  C3  UNL     1      29.924  72.839  12.997  1.00  0.00     0.102 A 
HETATM    2  N2  UNL     1      29.941  71.519  12.696  1.00  0.00    -0.281 N 
ATOM      3  H2  UNL     1      30.359  70.795  13.279  1.00  0.00     0.188 HD
HETATM    4  N3  UNL     1      29.345  71.302  11.546  1.00  0.00    -0.206 N 
HETATM    5  N5  UNL     1      28.927  72.447  11.087  1.00  0.00    -0.266 N 
ATOM      6  H5  UNL     1      28.423  72.566  10.208  1.00  0.00     0.190 HD
HETATM    7  C5  UNL     1      29.241  73.439  11.912  1.00  0.00     0.141 A 
ENDROOT
BRANCH   1   8
HETATM    8  C2  UNL     1      30.676  73.470  14.091  1.00  0.00     0.234 C 
HETATM    9  C1  UNL     1      30.955  72.592  15.304  1.00  0.00     0.046 C 
BRANCH   8  10
HETATM   10  N1  UNL     1      32.053  73.761  13.481  1.00  0.00    -0.070 N 
ATOM     11  H13 UNL     1      32.809  73.208  13.886  1.00  0.00     0.275 HD
ATOM     12  H12 UNL     1      32.160  73.422  12.525  1.00  0.00     0.275 HD
ATOM     13  H11 UNL     1      32.181  74.768  13.578  1.00  0.00     0.275 HD
ENDBRANCH   8  10
ENDBRANCH   1   8
BRANCH   7  14
HETATM   14  N6  UNL     1      29.005  74.706  11.891  1.00  0.00    -0.383 N 
ATOM     15  H62 UNL     1      29.157  75.452  12.569  1.00  0.00     0.157 HD
ATOM     16  H61 UNL     1      28.619  75.157  11.061  1.00  0.00     0.157 HD
ENDBRANCH   7  14
BRANCH   4  17
HETATM   17  C4  UNL     1      29.222  70.036  10.835  1.00  0.00     0.398 C 
BRANCH  17  18
HETATM   18  N4  UNL     1      27.884  70.010  10.255  1.00  0.00    -0.060 N 
ATOM     19  H43 UNL     1      27.149  69.852  10.945  1.00  0.00     0.276 HD
ATOM     20  H42 UNL     1      27.566  70.925   9.936  1.00  0.00     0.276 HD
ATOM     21  H41 UNL     1      27.899  69.308   9.515  1.00  0.00     0.276 HD
ENDBRANCH  17  18
ENDBRANCH   4  17
TORSDOF 5
ENDMDL
MODEL 2
REMARK VINA RESULT: -4.713602196      2.560      3.620
REMARK  5 active torsions:
REMARK  status: ('A' for Active; 'I' for Inactive)
REMARK    1  A    between atoms: C2_2  and  N1_3 
REMARK    2  A    between atoms: C2_2  and  C3_7 
REMARK    3  A    between atoms: N3_10  and  C4_11 
REMARK    4  A    between atoms: C4_11  and  N4_12 
REMARK    5  A    between atoms: C5_18  and  N6_19 
ROOT
HETATM    1  C3  UNL     1      30.329  74.070  15.829  1.00  0.00     0.102 A 
HETATM    2  N2  UNL     1      29.986  73.217  14.836  1.00  0.00    -0.281 N 
ATOM      3  H2  UNL     1      30.035  72.200  14.901  1.00  0.00     0.188 HD
HETATM    4  N3  UNL     1      29.581  73.880  13.778  1.00  0.00    -0.206 N 
HETATM    5  N5  UNL     1      29.641  75.152  14.053  1.00  0.00    -0.266 N 
ATOM      6  H5  UNL     1      29.376  75.895  13.406  1.00  0.00     0.190 HD
HETATM    7  C5  UNL     1      30.090  75.356  15.287  1.00  0.00     0.141 A 
ENDROOT
BRANCH   1   8
HETATM    8  C2  UNL     1      31.020  73.695  17.071  1.00  0.00     0.234 C 
HETATM    9  C1  UNL     1      30.818  72.261  17.541  1.00  0.00     0.046 C 
BRANCH   8  10
HETATM   10  N1  UNL     1      32.510  73.795  16.716  1.00  0.00    -0.070 N 
ATOM     11  H13 UNL     1      33.050  72.966  16.965  1.00  0.00     0.275 HD
ATOM     12  H12 UNL     1      32.698  73.762  15.715  1.00  0.00     0.275 HD
ATOM     13  H11 UNL     1      32.835  74.650  17.169  1.00  0.00     0.275 HD
ENDBRANCH   8  10
ENDBRANCH   1   8
BRANCH   7  14
HETATM   14  N6  UNL     1      30.274  76.421  15.988  1.00  0.00    -0.383 N 
ATOM     15  H62 UNL     1      31.112  76.892  16.328  1.00  0.00     0.157 HD
ATOM     16  H61 UNL     1      29.488  77.000  16.285  1.00  0.00     0.157 HD
ENDBRANCH   7  14
BRANCH   4  17
HETATM   17  C4  UNL     1      29.203  73.337  12.480  1.00  0.00     0.398 C 
BRANCH  17  18
HETATM   18  N4  UNL     1      29.161  74.461  11.552  1.00  0.00    -0.060 N 
ATOM     19  H43 UNL     1      29.943  74.472  10.897  1.00  0.00     0.276 HD
ATOM     20  H42 UNL     1      28.415  74.384  10.860  1.00  0.00     0.276 HD
ATOM     21  H41 UNL     1      29.099  75.307  12.119  1.00  0.00     0.276 HD
ENDBRANCH  17  18
ENDBRANCH   4  17
TORSDOF 5
ENDMDL
MODEL 3
REMARK VINA RESULT: -4.704662403      1.268      1.274
REMARK  5 active torsions:
REMARK  status: ('A' for Active; 'I' for Inactive)
REMARK    1  A    between atoms: C2_2  and  N1_3 
REMARK    2  A    between atoms: C2_2  and  C3_7 
REMARK    3  A    between atoms: N3_10  and  C4_11 
REMARK    4  A    between atoms: C4_11  and  N4_12 
REMARK    5  A    between atoms: C5_18  and  N6_19 
ROOT
HETATM    1  C3  UNL     1      30.189  72.235  12.928  1.00  0.00     0.102 A 
HETATM    2  N2  UNL     1      29.813  71.277  12.049  1.00  0.00    -0.281 N 
ATOM      3  H2  UNL     1      30.173  70.323  12.039  1.00  0.00     0.188 HD
HETATM    4  N3  UNL     1      28.918  71.746  11.211  1.00  0.00    -0.206 N 
HETATM    5  N5  UNL     1      28.689  72.990  11.522  1.00  0.00    -0.266 N 
ATOM      6  H5  UNL     1      28.029  73.595  11.033  1.00  0.00     0.190 HD
HETATM    7  C5  UNL     1      29.427  73.370  12.559  1.00  0.00     0.141 A 
ENDROOT
BRANCH   1   8
HETATM    8  C2  UNL     1      31.317  72.133  13.865  1.00  0.00     0.234 C 
HETATM    9  C1  UNL     1      30.992  71.570  15.243  1.00  0.00     0.046 C 
BRANCH   8  10
HETATM   10  N1  UNL     1      32.249  71.099  13.219  1.00  0.00    -0.070 N 
ATOM     11  H13 UNL     1      32.007  70.871  12.255  1.00  0.00     0.275 HD
ATOM     12  H12 UNL     1      33.185  71.454  13.024  1.00  0.00     0.275 HD
ATOM     13  H11 UNL     1      32.235  70.297  13.849  1.00  0.00     0.275 HD
ENDBRANCH   8  10
ENDBRANCH   1   8
BRANCH   7  14
HETATM   14  N6  UNL     1      29.506  74.471  13.223  1.00  0.00    -0.383 N 
ATOM     15  H62 UNL     1      29.619  74.677  14.216  1.00  0.00     0.157 HD
ATOM     16  H61 UNL     1      29.496  75.375  12.750  1.00  0.00     0.157 HD
ENDBRANCH   7  14
BRANCH   4  17
HETATM   17  C4  UNL     1      28.322  71.061  10.072  1.00  0.00     0.398 C 
BRANCH  17  18
HETATM   18  N4  UNL     1      28.408  69.632  10.352  1.00  0.00    -0.060 N 
ATOM     19  H43 UNL     1      27.798  69.068   9.761  1.00  0.00     0.276 HD
ATOM     20  H42 UNL     1      29.291  69.216  10.059  1.00  0.00     0.276 HD
ATOM     21  H41 UNL     1      28.219  69.517  11.349  1.00  0.00     0.276 HD
ENDBRANCH  17  18
ENDBRANCH   4  17
TORSDOF 5
ENDMDL
MODEL 4
REMARK VINA RESULT: -4.557904220      7.906      9.060
REMARK  5 active torsions:
REMARK  status: ('A' for Active; 'I' for Inactive)
REMARK    1  A    between atoms: C2_2  and  N1_3 
REMARK    2  A    between atoms: C2_2  and  C3_7 
REMARK    3  A    between atoms: N3_10  and  C4_11 
REMARK    4  A    between atoms: C4_11  and  N4_12 
REMARK    5  A    between atoms: C5_18  and  N6_19 
ROOT
HETATM    1  C3  UNL     1      35.220  67.237  14.897  1.00  0.00     0.102 A 
HETATM    2  N2  UNL     1      35.483  66.668  13.698  1.00  0.00    -0.281 N 
ATOM      3  H2  UNL     1      35.154  67.025  12.800  1.00  0.00     0.188 HD
HETATM    4  N3  UNL     1      36.218  65.591  13.850  1.00  0.00    -0.206 N 
HETATM    5  N5  UNL     1      36.455  65.443  15.122  1.00  0.00    -0.266 N 
ATOM      6  H5  UNL     1      37.011  64.686  15.521  1.00  0.00     0.190 HD
HETATM    7  C5  UNL     1      35.879  66.406  15.834  1.00  0.00     0.141 A 
ENDROOT
BRANCH   1   8
HETATM    8  C2  UNL     1      34.259  68.325  15.129  1.00  0.00     0.234 C 
HETATM    9  C1  UNL     1      34.761  69.734  14.843  1.00  0.00     0.046 C 
BRANCH   8  10
HETATM   10  N1  UNL     1      33.153  68.075  14.095  1.00  0.00    -0.070 N 
ATOM     11  H13 UNL     1      32.225  68.368  14.404  1.00  0.00     0.275 HD
ATOM     12  H12 UNL     1      33.204  68.687  13.281  1.00  0.00     0.275 HD
ATOM     13  H11 UNL     1      33.218  67.083  13.869  1.00  0.00     0.275 HD
ENDBRANCH   8  10
ENDBRANCH   1   8
BRANCH   7  14
HETATM   14  N6  UNL     1      35.872  66.681  17.092  1.00  0.00    -0.383 N 
ATOM     15  H62 UNL     1      35.124  66.776  17.778  1.00  0.00     0.157 HD
ATOM     16  H61 UNL     1      36.742  66.817  17.608  1.00  0.00     0.157 HD
ENDBRANCH   7  14
BRANCH   4  17
HETATM   17  C4  UNL     1      36.647  64.656  12.819  1.00  0.00     0.398 C 
BRANCH  17  18
HETATM   18  N4  UNL     1      37.880  64.041  13.299  1.00  0.00    -0.060 N 
ATOM     19  H43 UNL     1      38.535  64.711  13.701  1.00  0.00     0.276 HD
ATOM     20  H42 UNL     1      37.747  63.473  14.136  1.00  0.00     0.276 HD
ATOM     21  H41 UNL     1      38.271  63.517  12.515  1.00  0.00     0.276 HD
ENDBRANCH  17  18
ENDBRANCH   4  17
TORSDOF 5
ENDMDL
MODEL 5
REMARK VINA RESULT: -4.557153968      1.765      2.540
REMARK  5 active torsions:
REMARK  status: ('A' for Active; 'I' for Inactive)
REMARK    1  A    between atoms: C2_2  and  N1_3 
REMARK    2  A    between atoms: C2_2  and  C3_7 
REMARK    3  A    between atoms: N3_10  and  C4_11 
REMARK    4  A    between atoms: C4_11  and  N4_12 
REMARK    5  A    between atoms: C5_18  and  N6_19 
ROOT
HETATM    1  C3  UNL     1      29.882  72.937  13.557  1.00  0.00     0.102 A 
HETATM    2  N2  UNL     1      29.074  72.932  12.472  1.00  0.00    -0.281 N 
ATOM      3  H2  UNL     1      28.388  73.655  12.254  1.00  0.00     0.188 HD
HETATM    4  N3  UNL     1      29.295  71.867  11.737  1.00  0.00    -0.206 N 
HETATM    5  N5  UNL     1      30.238  71.173  12.309  1.00  0.00    -0.266 N 
ATOM      6  H5  UNL     1      30.610  70.297  11.944  1.00  0.00     0.190 HD
HETATM    7  C5  UNL     1      30.651  71.756  13.429  1.00  0.00     0.141 A 
ENDROOT
BRANCH   1   8
HETATM    8  C2  UNL     1      29.766  73.855  14.699  1.00  0.00     0.234 C 
HETATM    9  C1  UNL     1      29.205  75.237  14.391  1.00  0.00     0.046 C 
BRANCH   8  10
HETATM   10  N1  UNL     1      28.723  73.192  15.609  1.00  0.00    -0.070 N 
ATOM     11  H13 UNL     1      28.615  73.650  16.514  1.00  0.00     0.275 HD
ATOM     12  H12 UNL     1      27.761  73.322  15.296  1.00  0.00     0.275 HD
ATOM     13  H11 UNL     1      29.008  72.215  15.673  1.00  0.00     0.275 HD
ENDBRANCH   8  10
ENDBRANCH   1   8
BRANCH   7  14
HETATM   14  N6  UNL     1      31.568  71.460  14.284  1.00  0.00    -0.383 N 
ATOM     15  H62 UNL     1      32.014  71.987  15.035  1.00  0.00     0.157 HD
ATOM     16  H61 UNL     1      31.973  70.523  14.323  1.00  0.00     0.157 HD
ENDBRANCH   7  14
BRANCH   4  17
HETATM   17  C4  UNL     1      28.582  71.453  10.536  1.00  0.00     0.398 C 
BRANCH  17  18
HETATM   18  N4  UNL     1      29.257  70.258  10.040  1.00  0.00    -0.060 N 
ATOM     19  H43 UNL     1      30.220  70.429   9.753  1.00  0.00     0.276 HD
ATOM     20  H42 UNL     1      29.460  69.578  10.773  1.00  0.00     0.276 HD
ATOM     21  H41 UNL     1      28.674  69.883   9.291  1.00  0.00     0.276 HD
ENDBRANCH  17  18
ENDBRANCH   4  17
TORSDOF 5
ENDMDL
