MODEL 1
REMARK VINA RESULT: -6.012134095      0.000      0.000
REMARK  4 active torsions:
REMARK  status: ('A' for Active; 'I' for Inactive)
REMARK    1  A    between atoms: C1_2  and  C2_4 
REMARK    2  A    between atoms: C2_4  and  N2_5 
REMARK    3  A    between atoms: N2_5  and  N3_7 
REMARK       I    between atoms: N3_7  and  C3_9 
REMARK    4  A    between atoms: C3_9  and  C4_11 
ROOT
HETATM    1  N3  UNL     1      13.593  10.292  22.241  1.00  0.00    -0.269 N 
ATOM      2  H3  UNL     1      13.068   9.449  22.475  1.00  0.00     0.190 HD
HETATM    3  C3  UNL     1      13.224  10.963  21.059  1.00  0.00     0.286 C 
HETATM    4  O2  UNL     1      13.830  12.007  20.714  1.00  0.00    -0.264 OA
ENDROOT
BRANCH   1   5
HETATM    5  N2  UNL     1      14.601  10.666  23.116  1.00  0.00    -0.325 N 
ATOM      6  H2  UNL     1      14.783  11.641  23.356  1.00  0.00     0.180 HD
BRANCH   5   7
HETATM    7  C2  UNL     1      15.368   9.585  23.660  1.00  0.00     0.238 C 
BRANCH   7   8
HETATM    8  C1  UNL     1      16.483   9.206  22.732  1.00  0.00     0.250 C 
HETATM    9  N1  UNL     1      17.652   8.661  23.321  1.00  0.00    -0.061 NA
HETATM   10  O1  UNL     1      16.365   9.372  21.505  1.00  0.00    -0.275 OA
ENDBRANCH   7   8
ENDBRANCH   5   7
ENDBRANCH   1   5
BRANCH   3  11
HETATM   11  C4  UNL     1      12.142  10.490  20.196  1.00  0.00     0.102 A 
HETATM   12  C5  UNL     1      10.822  10.889  20.202  1.00  0.00     0.036 A 
HETATM   13  C6  UNL     1      10.129  10.195  19.230  1.00  0.00     0.019 A 
HETATM   14  C7  UNL     1      11.069   9.356  18.628  1.00  0.00     0.088 A 
HETATM   15  N4  UNL     1      12.251   9.553  19.221  1.00  0.00    -0.361 N 
ATOM     16  H4  UNL     1      13.114   9.067  18.976  1.00  0.00     0.165 HD
ENDBRANCH   3  11
TORSDOF 4
ENDMDL
MODEL 2
REMARK VINA RESULT: -5.924722877      2.060      5.706
REMARK  4 active torsions:
REMARK  status: ('A' for Active; 'I' for Inactive)
REMARK    1  A    between atoms: C1_2  and  C2_4 
REMARK    2  A    between atoms: C2_4  and  N2_5 
REMARK    3  A    between atoms: N2_5  and  N3_7 
REMARK       I    between atoms: N3_7  and  C3_9 
REMARK    4  A    between atoms: C3_9  and  C4_11 
ROOT
HETATM    1  N3  UNL     1      12.441  10.106  19.837  1.00  0.00    -0.269 N 
ATOM      2  H3  UNL     1      11.757   9.948  20.577  1.00  0.00     0.190 HD
HETATM    3  C3  UNL     1      13.693  10.620  20.227  1.00  0.00     0.286 C 
HETATM    4  O2  UNL     1      14.579  10.837  19.366  1.00  0.00    -0.264 OA
ENDROOT
BRANCH   1   5
HETATM    5  N2  UNL     1      12.050   9.794  18.544  1.00  0.00    -0.325 N 
ATOM      6  H2  UNL     1      12.645   9.972  17.734  1.00  0.00     0.180 HD
BRANCH   5   7
HETATM    7  C2  UNL     1      10.749   9.205  18.428  1.00  0.00     0.238 C 
BRANCH   7   8
HETATM    8  C1  UNL     1       9.716  10.064  19.092  1.00  0.00     0.250 C 
HETATM    9  N1  UNL     1       8.792  10.728  18.245  1.00  0.00    -0.061 NA
HETATM   10  O1  UNL     1       9.690  10.176  20.330  1.00  0.00    -0.275 OA
ENDBRANCH   7   8
ENDBRANCH   5   7
ENDBRANCH   1   5
BRANCH   3  11
HETATM   11  C4  UNL     1      14.015  10.919  21.623  1.00  0.00     0.102 A 
HETATM   12  C5  UNL     1      14.356  12.140  22.167  1.00  0.00     0.036 A 
HETATM   13  C6  UNL     1      14.586  11.989  23.520  1.00  0.00     0.019 A 
HETATM   14  C7  UNL     1      14.376  10.635  23.787  1.00  0.00     0.088 A 
HETATM   15  N4  UNL     1      14.040  10.026  22.645  1.00  0.00    -0.361 N 
ATOM     16  H4  UNL     1      13.831   9.032  22.554  1.00  0.00     0.165 HD
ENDBRANCH   3  11
TORSDOF 4
ENDMDL
MODEL 3
REMARK VINA RESULT: -5.785470950      1.809      2.241
REMARK  4 active torsions:
REMARK  status: ('A' for Active; 'I' for Inactive)
REMARK    1  A    between atoms: C1_2  and  C2_4 
REMARK    2  A    between atoms: C2_4  and  N2_5 
REMARK    3  A    between atoms: N2_5  and  N3_7 
REMARK       I    between atoms: N3_7  and  C3_9 
REMARK    4  A    between atoms: C3_9  and  C4_11 
ROOT
HETATM    1  N3  UNL     1      13.646  10.177  22.183  1.00  0.00    -0.269 N 
ATOM      2  H3  UNL     1      13.194   9.276  22.336  1.00  0.00     0.190 HD
HETATM    3  C3  UNL     1      13.195  10.938  21.088  1.00  0.00     0.286 C 
HETATM    4  O2  UNL     1      13.710  12.056  20.844  1.00  0.00    -0.264 OA
ENDROOT
BRANCH   1   5
HETATM    5  N2  UNL     1      14.647  10.536  23.074  1.00  0.00    -0.325 N 
ATOM      6  H2  UNL     1      15.638  10.449  22.847  1.00  0.00     0.180 HD
BRANCH   5   7
HETATM    7  C2  UNL     1      14.188  11.039  24.334  1.00  0.00     0.238 C 
BRANCH   7   8
HETATM    8  C1  UNL     1      13.856   9.912  25.266  1.00  0.00     0.250 C 
HETATM    9  N1  UNL     1      13.722  10.232  26.640  1.00  0.00    -0.061 NA
HETATM   10  O1  UNL     1      13.711   8.756  24.830  1.00  0.00    -0.275 OA
ENDBRANCH   7   8
ENDBRANCH   5   7
ENDBRANCH   1   5
BRANCH   3  11
HETATM   11  C4  UNL     1      12.128  10.474  20.200  1.00  0.00     0.102 A 
HETATM   12  C5  UNL     1      10.812  10.886  20.175  1.00  0.00     0.036 A 
HETATM   13  C6  UNL     1      10.135  10.197  19.188  1.00  0.00     0.019 A 
HETATM   14  C7  UNL     1      11.081   9.349  18.609  1.00  0.00     0.088 A 
HETATM   15  N4  UNL     1      12.251   9.534  19.228  1.00  0.00    -0.361 N 
ATOM     16  H4  UNL     1      13.114   9.040  19.003  1.00  0.00     0.165 HD
ENDBRANCH   3  11
TORSDOF 4
ENDMDL
MODEL 4
REMARK VINA RESULT: -5.759197814      2.504      5.738
REMARK  4 active torsions:
REMARK  status: ('A' for Active; 'I' for Inactive)
REMARK    1  A    between atoms: C1_2  and  C2_4 
REMARK    2  A    between atoms: C2_4  and  N2_5 
REMARK    3  A    between atoms: N2_5  and  N3_7 
REMARK       I    between atoms: N3_7  and  C3_9 
REMARK    4  A    between atoms: C3_9  and  C4_11 
ROOT
HETATM    1  N3  UNL     1      12.636  10.073  20.144  1.00  0.00    -0.269 N 
ATOM      2  H3  UNL     1      12.064  10.251  20.969  1.00  0.00     0.190 HD
HETATM    3  C3  UNL     1      13.899  10.694  20.098  1.00  0.00     0.286 C 
HETATM    4  O2  UNL     1      14.651  10.515  19.110  1.00  0.00    -0.264 OA
ENDROOT
BRANCH   1   5
HETATM    5  N2  UNL     1      12.094   9.243  19.173  1.00  0.00    -0.325 N 
ATOM      6  H2  UNL     1      12.367   8.265  19.076  1.00  0.00     0.180 HD
BRANCH   5   7
HETATM    7  C2  UNL     1      11.124   9.859  18.318  1.00  0.00     0.238 C 
BRANCH   7   8
HETATM    8  C1  UNL     1       9.839  10.093  19.055  1.00  0.00     0.250 C 
HETATM    9  N1  UNL     1       8.770  10.660  18.317  1.00  0.00    -0.061 NA
HETATM   10  O1  UNL     1       9.740   9.795  20.259  1.00  0.00    -0.275 OA
ENDBRANCH   7   8
ENDBRANCH   5   7
ENDBRANCH   1   5
BRANCH   3  11
HETATM   11  C4  UNL     1      14.386  11.557  21.175  1.00  0.00     0.102 A 
HETATM   12  C5  UNL     1      13.931  11.620  22.476  1.00  0.00     0.036 A 
HETATM   13  C6  UNL     1      14.658  12.568  23.168  1.00  0.00     0.019 A 
HETATM   14  C7  UNL     1      15.573  13.084  22.248  1.00  0.00     0.088 A 
HETATM   15  N4  UNL     1      15.387  12.466  21.077  1.00  0.00    -0.361 N 
ATOM     16  H4  UNL     1      15.923  12.652  20.229  1.00  0.00     0.165 HD
ENDBRANCH   3  11
TORSDOF 4
ENDMDL
MODEL 5
REMARK VINA RESULT: -5.687232321      2.864      5.816
REMARK  4 active torsions:
REMARK  status: ('A' for Active; 'I' for Inactive)
REMARK    1  A    between atoms: C1_2  and  C2_4 
REMARK    2  A    between atoms: C2_4  and  N2_5 
REMARK    3  A    between atoms: N2_5  and  N3_7 
REMARK       I    between atoms: N3_7  and  C3_9 
REMARK    4  A    between atoms: C3_9  and  C4_11 
ROOT
HETATM    1  N3  UNL     1      13.215   9.848  19.215  1.00  0.00    -0.269 N 
ATOM      2  H3  UNL     1      13.879   9.664  18.463  1.00  0.00     0.190 HD
HETATM    3  C3  UNL     1      13.605  10.781  20.194  1.00  0.00     0.286 C 
HETATM    4  O2  UNL     1      12.833  11.052  21.146  1.00  0.00    -0.264 OA
ENDROOT
BRANCH   1   5
HETATM    5  N2  UNL     1      12.016   9.153  19.175  1.00  0.00    -0.325 N 
ATOM      6  H2  UNL     1      11.848   8.318  19.737  1.00  0.00     0.180 HD
BRANCH   5   7
HETATM    7  C2  UNL     1      11.029   9.693  18.287  1.00  0.00     0.238 C 
BRANCH   7   8
HETATM    8  C1  UNL     1       9.805  10.111  19.045  1.00  0.00     0.250 C 
HETATM    9  N1  UNL     1       8.763  10.716  18.299  1.00  0.00    -0.061 NA
HETATM   10  O1  UNL     1       9.730   9.926  20.273  1.00  0.00    -0.275 OA
ENDBRANCH   7   8
ENDBRANCH   5   7
ENDBRANCH   1   5
BRANCH   3  11
HETATM   11  C4  UNL     1      14.897  11.467  20.151  1.00  0.00     0.102 A 
HETATM   12  C5  UNL     1      15.352  12.462  20.991  1.00  0.00     0.036 A 
HETATM   13  C6  UNL     1      16.623  12.839  20.606  1.00  0.00     0.019 A 
HETATM   14  C7  UNL     1      16.931  12.044  19.501  1.00  0.00     0.088 A 
HETATM   15  N4  UNL     1      15.890  11.241  19.255  1.00  0.00    -0.361 N 
ATOM     16  H4  UNL     1      15.848  10.557  18.500  1.00  0.00     0.165 HD
ENDBRANCH   3  11
TORSDOF 4
ENDMDL
