MODEL 1
REMARK VINA RESULT: -7.958262076      0.000      0.000
REMARK  16 active torsions:
REMARK  status: ('A' for Active; 'I' for Inactive)
REMARK    1  A    between atoms: N1_1  and  N2_4 
REMARK    2  A    between atoms: N2_4  and  C1_6 
REMARK    3  A    between atoms: C1_6  and  O1_7 
REMARK    4  A    between atoms: C1_6  and  C2_9 
REMARK    5  A    between atoms: C3_10  and  N3_11 
REMARK    6  A    between atoms: N3_11  and  C4_13 
REMARK    7  A    between atoms: C5_15  and  C6_16 
REMARK    8  A    between atoms: C6_16  and  O3_17 
REMARK    9  A    between atoms: C6_16  and  N4_19 
REMARK   10  A    between atoms: C10_24  and  O4_25 
REMARK   11  A    between atoms: C11_28  and  O5_29 
REMARK   12  A    between atoms: N6_32  and  C13_33 
REMARK   13  A    between atoms: C13_33  and  C14_34 
REMARK   14  A    between atoms: C14_34  and  O6_35 
REMARK   15  A    between atoms: O6_35  and  N7_36 
REMARK       I    between atoms: N7_36  and  C15_38 
REMARK   16  A    between atoms: C15_38  and  C16_40 
ROOT
HETATM    1  C2  UNL     1      15.849  13.090  27.124  1.00  0.00     0.115 A 
HETATM    2  C3  UNL     1      16.436  13.442  28.348  1.00  0.00     0.082 A 
HETATM    3  C5  UNL     1      17.728  13.930  28.035  1.00  0.00     0.061 A 
HETATM    4  C12 UNL     1      17.824  13.842  26.686  1.00  0.00     0.109 A 
HETATM    5  N6  UNL     1      16.665  13.326  26.131  1.00  0.00    -0.348 N 
ENDROOT
BRANCH   3   6
HETATM    6  C6  UNL     1      18.639  14.370  29.033  1.00  0.00     0.170 C 
BRANCH   6   7
HETATM    7  O3  UNL     1      18.976  13.416  29.914  1.00  0.00    -0.345 OA
ATOM      8  H3  UNL     1      18.606  13.547  30.780  1.00  0.00     0.219 HD
ENDBRANCH   6   7
BRANCH   6   9
HETATM    9  N4  UNL     1      19.292  15.583  29.336  1.00  0.00    -0.222 N 
HETATM   10  S1  UNL     1      19.852  16.673  28.081  1.00  0.00     0.017 SA
HETATM   11  C7  UNL     1      20.520  17.880  29.066  1.00  0.00     0.103 A 
HETATM   12  C8  UNL     1      21.187  19.121  29.087  1.00  0.00     0.043 A 
HETATM   13  N5  UNL     1      20.296  17.417  30.279  1.00  0.00    -0.249 N 
HETATM   14  C9  UNL     1      21.365  19.402  30.413  1.00  0.00     0.059 A 
HETATM   15  C10 UNL     1      20.821  18.361  31.132  1.00  0.00     0.150 A 
HETATM   16  C11 UNL     1      19.672  16.250  30.404  1.00  0.00     0.246 A 
BRANCH  15  17
HETATM   17  O4  UNL     1      20.848  18.359  32.531  1.00  0.00    -0.346 OA
ATOM     18  H4  UNL     1      20.720  19.161  33.025  1.00  0.00     0.219 HD
ENDBRANCH  15  17
BRANCH  16  19
HETATM   19  O5  UNL     1      19.425  15.743  31.579  1.00  0.00    -0.331 OA
ATOM     20  H5  UNL     1      19.732  16.207  32.349  1.00  0.00     0.221 HD
ENDBRANCH  16  19
ENDBRANCH   6   9
ENDBRANCH   3   6
BRANCH   2  21
HETATM   21  N3  UNL     1      15.850  13.338  29.634  1.00  0.00    -0.332 N 
ATOM     22  H3  UNL     1      15.461  12.451  29.957  1.00  0.00     0.168 HD
BRANCH  21  23
HETATM   23  C4  UNL     1      15.811  14.486  30.466  1.00  0.00     0.353 C 
HETATM   24  O2  UNL     1      16.481  14.545  31.522  1.00  0.00    -0.283 OA
ENDBRANCH  21  23
ENDBRANCH   2  21
BRANCH   1  25
HETATM   25  C1  UNL     1      14.494  12.529  27.109  1.00  0.00     0.184 C 
BRANCH  25  26
HETATM   26  N2  UNL     1      14.115  11.256  26.716  1.00  0.00    -0.285 N 
ATOM     27  H2  UNL     1      14.469  10.417  27.174  1.00  0.00     0.188 HD
BRANCH  26  28
HETATM   28  N1  UNL     1      13.186  11.195  25.614  1.00  0.00    -0.343 N 
ATOM     29  H12 UNL     1      13.343  11.728  24.759  1.00  0.00     0.176 HD
ATOM     30  H11 UNL     1      12.376  10.590  25.752  1.00  0.00     0.176 HD
ENDBRANCH  26  28
ENDBRANCH  25  26
BRANCH  25  31
HETATM   31  O1  UNL     1      13.523  13.296  27.510  1.00  0.00    -0.343 OA
ATOM     32  H1  UNL     1      13.260  13.176  28.414  1.00  0.00     0.219 HD
ENDBRANCH  25  31
ENDBRANCH   1  25
BRANCH   5  33
HETATM   33  C13 UNL     1      16.492  13.141  24.701  1.00  0.00     0.157 C 
BRANCH  33  34
HETATM   34  C14 UNL     1      16.913  11.786  24.217  1.00  0.00     0.221 C 
BRANCH  34  35
HETATM   35  O6  UNL     1      15.726  11.058  24.034  1.00  0.00    -0.276 OA
BRANCH  35  36
HETATM   36  N7  UNL     1      15.281  11.337  22.792  1.00  0.00    -0.226 N 
HETATM   37  C15 UNL     1      14.204  10.593  22.269  1.00  0.00     0.341 C 
HETATM   38  O7  UNL     1      13.675   9.677  22.969  1.00  0.00    -0.259 OA
ATOM     39  H7  UNL     1      15.716  12.076  22.240  1.00  0.00     0.198 HD
BRANCH  37  40
HETATM   40  C16 UNL     1      13.703  10.867  20.945  1.00  0.00     0.272 C 
HETATM   41  O8  UNL     1      14.487  11.318  20.066  1.00  0.00    -0.640 OA
HETATM   42  O9  UNL     1      12.365  10.629  20.665  1.00  0.00    -0.640 OA
ENDBRANCH  37  40
ENDBRANCH  35  36
ENDBRANCH  34  35
ENDBRANCH  33  34
ENDBRANCH   5  33
TORSDOF 16
ENDMDL
MODEL 2
REMARK VINA RESULT: -7.926010742      2.757      5.565
REMARK  16 active torsions:
REMARK  status: ('A' for Active; 'I' for Inactive)
REMARK    1  A    between atoms: N1_1  and  N2_4 
REMARK    2  A    between atoms: N2_4  and  C1_6 
REMARK    3  A    between atoms: C1_6  and  O1_7 
REMARK    4  A    between atoms: C1_6  and  C2_9 
REMARK    5  A    between atoms: C3_10  and  N3_11 
REMARK    6  A    between atoms: N3_11  and  C4_13 
REMARK    7  A    between atoms: C5_15  and  C6_16 
REMARK    8  A    between atoms: C6_16  and  O3_17 
REMARK    9  A    between atoms: C6_16  and  N4_19 
REMARK   10  A    between atoms: C10_24  and  O4_25 
REMARK   11  A    between atoms: C11_28  and  O5_29 
REMARK   12  A    between atoms: N6_32  and  C13_33 
REMARK   13  A    between atoms: C13_33  and  C14_34 
REMARK   14  A    between atoms: C14_34  and  O6_35 
REMARK   15  A    between atoms: O6_35  and  N7_36 
REMARK       I    between atoms: N7_36  and  C15_38 
REMARK   16  A    between atoms: C15_38  and  C16_40 
ROOT
HETATM    1  C2  UNL     1      14.428  11.569  23.059  1.00  0.00     0.115 A 
HETATM    2  C3  UNL     1      14.036  11.725  24.396  1.00  0.00     0.082 A 
HETATM    3  C5  UNL     1      14.691  12.892  24.861  1.00  0.00     0.061 A 
HETATM    4  C12 UNL     1      15.407  13.342  23.803  1.00  0.00     0.109 A 
HETATM    5  N6  UNL     1      15.241  12.525  22.697  1.00  0.00    -0.348 N 
ENDROOT
BRANCH   3   6
HETATM    6  C6  UNL     1      14.550  13.366  26.194  1.00  0.00     0.170 C 
BRANCH   6   7
HETATM    7  O3  UNL     1      13.275  13.451  26.604  1.00  0.00    -0.345 OA
ATOM      8  H3  UNL     1      13.074  12.889  27.345  1.00  0.00     0.219 HD
ENDBRANCH   6   7
BRANCH   6   9
HETATM    9  N4  UNL     1      15.432  13.777  27.214  1.00  0.00    -0.222 N 
HETATM   10  S1  UNL     1      17.017  14.438  26.857  1.00  0.00     0.017 SA
HETATM   11  C7  UNL     1      17.545  14.713  28.444  1.00  0.00     0.103 A 
HETATM   12  C8  UNL     1      18.601  15.187  29.248  1.00  0.00     0.043 A 
HETATM   13  N5  UNL     1      16.521  14.302  29.163  1.00  0.00    -0.249 N 
HETATM   14  C9  UNL     1      18.157  15.040  30.534  1.00  0.00     0.059 A 
HETATM   15  C10 UNL     1      16.891  14.501  30.473  1.00  0.00     0.150 A 
HETATM   16  C11 UNL     1      15.454  13.828  28.528  1.00  0.00     0.246 A 
BRANCH  15  17
HETATM   17  O4  UNL     1      16.167  14.231  31.640  1.00  0.00    -0.346 OA
ATOM     18  H4  UNL     1      15.479  13.576  31.649  1.00  0.00     0.219 HD
ENDBRANCH  15  17
BRANCH  16  19
HETATM   19  O5  UNL     1      14.412  13.406  29.187  1.00  0.00    -0.331 OA
ATOM     20  H5  UNL     1      13.891  14.038  29.669  1.00  0.00     0.221 HD
ENDBRANCH  16  19
ENDBRANCH   6   9
ENDBRANCH   3   6
BRANCH   2  21
HETATM   21  N3  UNL     1      13.155  10.890  25.128  1.00  0.00    -0.332 N 
ATOM     22  H3  UNL     1      12.152  11.076  25.137  1.00  0.00     0.168 HD
BRANCH  21  23
HETATM   23  C4  UNL     1      13.690   9.792  25.850  1.00  0.00     0.353 C 
HETATM   24  O2  UNL     1      13.559   8.618  25.437  1.00  0.00    -0.283 OA
ENDBRANCH  21  23
ENDBRANCH   2  21
BRANCH   1  25
HETATM   25  C1  UNL     1      13.925  10.426  22.289  1.00  0.00     0.184 C 
BRANCH  25  26
HETATM   26  N2  UNL     1      13.044  10.453  21.221  1.00  0.00    -0.285 N 
ATOM     27  H2  UNL     1      12.059  10.689  21.335  1.00  0.00     0.188 HD
BRANCH  26  28
HETATM   28  N1  UNL     1      13.612  10.125  19.936  1.00  0.00    -0.343 N 
ATOM     29  H12 UNL     1      14.616   9.996  19.818  1.00  0.00     0.176 HD
ATOM     30  H11 UNL     1      12.945  10.033  19.170  1.00  0.00     0.176 HD
ENDBRANCH  26  28
ENDBRANCH  25  26
BRANCH  25  31
HETATM   31  O1  UNL     1      14.343   9.243  22.631  1.00  0.00    -0.343 OA
ATOM     32  H1  UNL     1      15.231   9.209  22.967  1.00  0.00     0.219 HD
ENDBRANCH  25  31
ENDBRANCH   1  25
BRANCH   5  33
HETATM   33  C13 UNL     1      15.884  12.787  21.421  1.00  0.00     0.157 C 
BRANCH  33  34
HETATM   34  C14 UNL     1      17.376  12.910  21.516  1.00  0.00     0.221 C 
BRANCH  34  35
HETATM   35  O6  UNL     1      17.826  11.699  22.064  1.00  0.00    -0.276 OA
BRANCH  35  36
HETATM   36  N7  UNL     1      18.755  12.007  22.990  1.00  0.00    -0.226 N 
HETATM   37  C15 UNL     1      18.622  11.485  24.293  1.00  0.00     0.341 C 
HETATM   38  O7  UNL     1      17.635  10.739  24.572  1.00  0.00    -0.259 OA
ATOM     39  H7  UNL     1      19.544  12.609  22.752  1.00  0.00     0.198 HD
BRANCH  37  40
HETATM   40  C16 UNL     1      19.600  11.794  25.306  1.00  0.00     0.272 C 
HETATM   41  O8  UNL     1      19.999  10.882  26.081  1.00  0.00    -0.640 OA
HETATM   42  O9  UNL     1      20.084  13.090  25.408  1.00  0.00    -0.640 OA
ENDBRANCH  37  40
ENDBRANCH  35  36
ENDBRANCH  34  35
ENDBRANCH  33  34
ENDBRANCH   5  33
TORSDOF 16
ENDMDL
MODEL 3
REMARK VINA RESULT: -7.886436258      2.788      5.346
REMARK  16 active torsions:
REMARK  status: ('A' for Active; 'I' for Inactive)
REMARK    1  A    between atoms: N1_1  and  N2_4 
REMARK    2  A    between atoms: N2_4  and  C1_6 
REMARK    3  A    between atoms: C1_6  and  O1_7 
REMARK    4  A    between atoms: C1_6  and  C2_9 
REMARK    5  A    between atoms: C3_10  and  N3_11 
REMARK    6  A    between atoms: N3_11  and  C4_13 
REMARK    7  A    between atoms: C5_15  and  C6_16 
REMARK    8  A    between atoms: C6_16  and  O3_17 
REMARK    9  A    between atoms: C6_16  and  N4_19 
REMARK   10  A    between atoms: C10_24  and  O4_25 
REMARK   11  A    between atoms: C11_28  and  O5_29 
REMARK   12  A    between atoms: N6_32  and  C13_33 
REMARK   13  A    between atoms: C13_33  and  C14_34 
REMARK   14  A    between atoms: C14_34  and  O6_35 
REMARK   15  A    between atoms: O6_35  and  N7_36 
REMARK       I    between atoms: N7_36  and  C15_38 
REMARK   16  A    between atoms: C15_38  and  C16_40 
ROOT
HETATM    1  C2  UNL     1      14.562  11.583  22.990  1.00  0.00     0.115 A 
HETATM    2  C3  UNL     1      14.128  11.723  24.316  1.00  0.00     0.082 A 
HETATM    3  C5  UNL     1      14.767  12.884  24.815  1.00  0.00     0.061 A 
HETATM    4  C12 UNL     1      15.515  13.349  23.786  1.00  0.00     0.109 A 
HETATM    5  N6  UNL     1      15.384  12.545  22.665  1.00  0.00    -0.348 N 
ENDROOT
BRANCH   3   6
HETATM    6  C6  UNL     1      14.584  13.341  26.149  1.00  0.00     0.170 C 
BRANCH   6   7
HETATM    7  O3  UNL     1      13.298  13.400  26.528  1.00  0.00    -0.345 OA
ATOM      8  H3  UNL     1      12.786  14.040  26.045  1.00  0.00     0.219 HD
ENDBRANCH   6   7
BRANCH   6   9
HETATM    9  N4  UNL     1      15.432  13.756  27.196  1.00  0.00    -0.222 N 
HETATM   10  S1  UNL     1      17.014  14.449  26.887  1.00  0.00     0.017 SA
HETATM   11  C7  UNL     1      17.496  14.715  28.490  1.00  0.00     0.103 A 
HETATM   12  C8  UNL     1      18.523  15.198  29.326  1.00  0.00     0.043 A 
HETATM   13  N5  UNL     1      16.462  14.277  29.178  1.00  0.00    -0.249 N 
HETATM   14  C9  UNL     1      18.050  15.028  30.598  1.00  0.00     0.059 A 
HETATM   15  C10 UNL     1      16.796  14.467  30.499  1.00  0.00     0.150 A 
HETATM   16  C11 UNL     1      15.421  13.792  28.510  1.00  0.00     0.246 A 
BRANCH  15  17
HETATM   17  O4  UNL     1      16.047  14.171  31.644  1.00  0.00    -0.346 OA
ATOM     18  H4  UNL     1      15.393  13.482  31.636  1.00  0.00     0.219 HD
ENDBRANCH  15  17
BRANCH  16  19
HETATM   19  O5  UNL     1      14.370  13.344  29.138  1.00  0.00    -0.331 OA
ATOM     20  H5  UNL     1      14.428  13.195  30.075  1.00  0.00     0.221 HD
ENDBRANCH  16  19
ENDBRANCH   6   9
ENDBRANCH   3   6
BRANCH   2  21
HETATM   21  N3  UNL     1      13.226  10.877  25.010  1.00  0.00    -0.332 N 
ATOM     22  H3  UNL     1      12.223  11.061  24.988  1.00  0.00     0.168 HD
BRANCH  21  23
HETATM   23  C4  UNL     1      13.740   9.773  25.736  1.00  0.00     0.353 C 
HETATM   24  O2  UNL     1      13.726   8.618  25.256  1.00  0.00    -0.283 OA
ENDBRANCH  21  23
ENDBRANCH   2  21
BRANCH   1  25
HETATM   25  C1  UNL     1      14.085  10.450  22.191  1.00  0.00     0.184 C 
BRANCH  25  26
HETATM   26  N2  UNL     1      13.153  10.476  21.166  1.00  0.00    -0.285 N 
ATOM     27  H2  UNL     1      12.174  10.710  21.328  1.00  0.00     0.188 HD
BRANCH  26  28
HETATM   28  N1  UNL     1      13.659  10.149  19.855  1.00  0.00    -0.343 N 
ATOM     29  H12 UNL     1      13.799   9.181  19.568  1.00  0.00     0.176 HD
ATOM     30  H11 UNL     1      13.861  10.944  19.249  1.00  0.00     0.176 HD
ENDBRANCH  26  28
ENDBRANCH  25  26
BRANCH  25  31
HETATM   31  O1  UNL     1      14.582   9.278  22.456  1.00  0.00    -0.343 OA
ATOM     32  H1  UNL     1      15.180   9.250  23.194  1.00  0.00     0.219 HD
ENDBRANCH  25  31
ENDBRANCH   1  25
BRANCH   5  33
HETATM   33  C13 UNL     1      16.066  12.824  21.413  1.00  0.00     0.157 C 
BRANCH  33  34
HETATM   34  C14 UNL     1      17.551  12.619  21.481  1.00  0.00     0.221 C 
BRANCH  34  35
HETATM   35  O6  UNL     1      17.809  12.109  22.763  1.00  0.00    -0.276 OA
BRANCH  35  36
HETATM   36  N7  UNL     1      18.521  10.976  22.600  1.00  0.00    -0.226 N 
HETATM   37  C15 UNL     1      18.127   9.815  23.296  1.00  0.00     0.341 C 
HETATM   38  O7  UNL     1      17.116   9.854  24.061  1.00  0.00    -0.259 OA
ATOM     39  H7  UNL     1      19.332  10.959  21.982  1.00  0.00     0.198 HD
BRANCH  37  40
HETATM   40  C16 UNL     1      18.865   8.586  23.142  1.00  0.00     0.272 C 
HETATM   41  O8  UNL     1      20.003   8.611  22.597  1.00  0.00    -0.640 OA
HETATM   42  O9  UNL     1      18.310   7.401  23.599  1.00  0.00    -0.640 OA
ENDBRANCH  37  40
ENDBRANCH  35  36
ENDBRANCH  34  35
ENDBRANCH  33  34
ENDBRANCH   5  33
TORSDOF 16
ENDMDL
MODEL 4
REMARK VINA RESULT: -7.862178382      1.133      1.496
REMARK  16 active torsions:
REMARK  status: ('A' for Active; 'I' for Inactive)
REMARK    1  A    between atoms: N1_1  and  N2_4 
REMARK    2  A    between atoms: N2_4  and  C1_6 
REMARK    3  A    between atoms: C1_6  and  O1_7 
REMARK    4  A    between atoms: C1_6  and  C2_9 
REMARK    5  A    between atoms: C3_10  and  N3_11 
REMARK    6  A    between atoms: N3_11  and  C4_13 
REMARK    7  A    between atoms: C5_15  and  C6_16 
REMARK    8  A    between atoms: C6_16  and  O3_17 
REMARK    9  A    between atoms: C6_16  and  N4_19 
REMARK   10  A    between atoms: C10_24  and  O4_25 
REMARK   11  A    between atoms: C11_28  and  O5_29 
REMARK   12  A    between atoms: N6_32  and  C13_33 
REMARK   13  A    between atoms: C13_33  and  C14_34 
REMARK   14  A    between atoms: C14_34  and  O6_35 
REMARK   15  A    between atoms: O6_35  and  N7_36 
REMARK       I    between atoms: N7_36  and  C15_38 
REMARK   16  A    between atoms: C15_38  and  C16_40 
ROOT
HETATM    1  C2  UNL     1      15.733  13.171  27.057  1.00  0.00     0.115 A 
HETATM    2  C3  UNL     1      16.311  13.507  28.289  1.00  0.00     0.082 A 
HETATM    3  C5  UNL     1      17.621  13.958  27.996  1.00  0.00     0.061 A 
HETATM    4  C12 UNL     1      17.736  13.866  26.650  1.00  0.00     0.109 A 
HETATM    5  N6  UNL     1      16.571  13.383  26.077  1.00  0.00    -0.348 N 
ENDROOT
BRANCH   3   6
HETATM    6  C6  UNL     1      18.529  14.372  29.009  1.00  0.00     0.170 C 
BRANCH   6   7
HETATM    7  O3  UNL     1      18.826  13.409  29.895  1.00  0.00    -0.345 OA
ATOM      8  H3  UNL     1      19.426  12.753  29.558  1.00  0.00     0.219 HD
ENDBRANCH   6   7
BRANCH   6   9
HETATM    9  N4  UNL     1      19.210  15.566  29.322  1.00  0.00    -0.222 N 
HETATM   10  S1  UNL     1      19.782  16.661  28.077  1.00  0.00     0.017 SA
HETATM   11  C7  UNL     1      20.485  17.840  29.073  1.00  0.00     0.103 A 
HETATM   12  C8  UNL     1      21.179  19.066  29.104  1.00  0.00     0.043 A 
HETATM   13  N5  UNL     1      20.262  17.365  30.281  1.00  0.00    -0.249 N 
HETATM   14  C9  UNL     1      21.374  19.325  30.432  1.00  0.00     0.059 A 
HETATM   15  C10 UNL     1      20.814  18.286  31.142  1.00  0.00     0.150 A 
HETATM   16  C11 UNL     1      19.614  16.211  30.395  1.00  0.00     0.246 A 
BRANCH  15  17
HETATM   17  O4  UNL     1      20.854  18.265  32.541  1.00  0.00    -0.346 OA
ATOM     18  H4  UNL     1      20.255  18.792  33.056  1.00  0.00     0.219 HD
ENDBRANCH  15  17
BRANCH  16  19
HETATM   19  O5  UNL     1      19.366  15.693  31.566  1.00  0.00    -0.331 OA
ATOM     20  H5  UNL     1      18.516  15.846  31.961  1.00  0.00     0.221 HD
ENDBRANCH  16  19
ENDBRANCH   6   9
ENDBRANCH   3   6
BRANCH   2  21
HETATM   21  N3  UNL     1      15.702  13.421  29.567  1.00  0.00    -0.332 N 
ATOM     22  H3  UNL     1      15.264  12.552  29.874  1.00  0.00     0.168 HD
BRANCH  21  23
HETATM   23  C4  UNL     1      15.710  14.561  30.410  1.00  0.00     0.353 C 
HETATM   24  O2  UNL     1      16.377  14.580  31.469  1.00  0.00    -0.283 OA
ENDBRANCH  21  23
ENDBRANCH   2  21
BRANCH   1  25
HETATM   25  C1  UNL     1      14.364  12.648  27.021  1.00  0.00     0.184 C 
BRANCH  25  26
HETATM   26  N2  UNL     1      13.947  11.408  26.566  1.00  0.00    -0.285 N 
ATOM     27  H2  UNL     1      13.798  11.215  25.576  1.00  0.00     0.188 HD
BRANCH  26  28
HETATM   28  N1  UNL     1      13.739  10.408  27.584  1.00  0.00    -0.343 N 
ATOM     29  H12 UNL     1      13.269  10.634  28.460  1.00  0.00     0.176 HD
ATOM     30  H11 UNL     1      14.090   9.476  27.364  1.00  0.00     0.176 HD
ENDBRANCH  26  28
ENDBRANCH  25  26
BRANCH  25  31
HETATM   31  O1  UNL     1      13.415  13.421  27.465  1.00  0.00    -0.343 OA
ATOM     32  H1  UNL     1      12.994  13.126  28.263  1.00  0.00     0.219 HD
ENDBRANCH  25  31
ENDBRANCH   1  25
BRANCH   5  33
HETATM   33  C13 UNL     1      16.415  13.202  24.644  1.00  0.00     0.157 C 
BRANCH  33  34
HETATM   34  C14 UNL     1      17.645  12.671  23.970  1.00  0.00     0.221 C 
BRANCH  34  35
HETATM   35  O6  UNL     1      17.496  11.276  23.943  1.00  0.00    -0.276 OA
BRANCH  35  36
HETATM   36  N7  UNL     1      16.173  11.020  23.953  1.00  0.00    -0.226 N 
HETATM   37  C15 UNL     1      15.732   9.686  23.847  1.00  0.00     0.341 C 
HETATM   38  O7  UNL     1      16.584   8.750  23.744  1.00  0.00    -0.259 OA
ATOM     39  H7  UNL     1      15.500  11.782  24.036  1.00  0.00     0.198 HD
BRANCH  37  40
HETATM   40  C16 UNL     1      14.324   9.379  23.857  1.00  0.00     0.272 C 
HETATM   41  O8  UNL     1      13.613   9.700  22.866  1.00  0.00    -0.640 OA
HETATM   42  O9  UNL     1      13.779   8.734  24.957  1.00  0.00    -0.640 OA
ENDBRANCH  37  40
ENDBRANCH  35  36
ENDBRANCH  34  35
ENDBRANCH  33  34
ENDBRANCH   5  33
TORSDOF 16
ENDMDL
MODEL 5
REMARK VINA RESULT: -7.813482897      3.208      8.771
REMARK  16 active torsions:
REMARK  status: ('A' for Active; 'I' for Inactive)
REMARK    1  A    between atoms: N1_1  and  N2_4 
REMARK    2  A    between atoms: N2_4  and  C1_6 
REMARK    3  A    between atoms: C1_6  and  O1_7 
REMARK    4  A    between atoms: C1_6  and  C2_9 
REMARK    5  A    between atoms: C3_10  and  N3_11 
REMARK    6  A    between atoms: N3_11  and  C4_13 
REMARK    7  A    between atoms: C5_15  and  C6_16 
REMARK    8  A    between atoms: C6_16  and  O3_17 
REMARK    9  A    between atoms: C6_16  and  N4_19 
REMARK   10  A    between atoms: C10_24  and  O4_25 
REMARK   11  A    between atoms: C11_28  and  O5_29 
REMARK   12  A    between atoms: N6_32  and  C13_33 
REMARK   13  A    between atoms: C13_33  and  C14_34 
REMARK   14  A    between atoms: C14_34  and  O6_35 
REMARK   15  A    between atoms: O6_35  and  N7_36 
REMARK       I    between atoms: N7_36  and  C15_38 
REMARK   16  A    between atoms: C15_38  and  C16_40 
ROOT
HETATM    1  C2  UNL     1      18.440  14.954  28.974  1.00  0.00     0.115 A 
HETATM    2  C3  UNL     1      17.206  14.315  28.787  1.00  0.00     0.082 A 
HETATM    3  C5  UNL     1      16.828  14.581  27.449  1.00  0.00     0.061 A 
HETATM    4  C12 UNL     1      17.830  15.337  26.940  1.00  0.00     0.109 A 
HETATM    5  N6  UNL     1      18.819  15.562  27.882  1.00  0.00    -0.348 N 
ENDROOT
BRANCH   3   6
HETATM    6  C6  UNL     1      15.609  14.106  26.893  1.00  0.00     0.170 C 
BRANCH   6   7
HETATM    7  O3  UNL     1      14.668  15.055  26.764  1.00  0.00    -0.345 OA
ATOM      8  H3  UNL     1      14.681  15.494  25.922  1.00  0.00     0.219 HD
ENDBRANCH   6   7
BRANCH   6   9
HETATM    9  N4  UNL     1      15.130  12.862  26.432  1.00  0.00    -0.222 N 
HETATM   10  S1  UNL     1      15.170  12.425  24.734  1.00  0.00     0.017 SA
HETATM   11  C7  UNL     1      14.476  10.882  24.848  1.00  0.00     0.103 A 
HETATM   12  C8  UNL     1      14.071   9.738  24.132  1.00  0.00     0.043 A 
HETATM   13  N5  UNL     1      14.247  10.765  26.140  1.00  0.00    -0.249 N 
HETATM   14  C9  UNL     1      13.568   8.890  25.079  1.00  0.00     0.059 A 
HETATM   15  C10 UNL     1      13.678   9.522  26.298  1.00  0.00     0.150 A 
HETATM   16  C11 UNL     1      14.582  11.777  26.934  1.00  0.00     0.246 A 
BRANCH  15  17
HETATM   17  O4  UNL     1      13.243   8.901  27.474  1.00  0.00    -0.346 OA
ATOM     18  H4  UNL     1      13.549   9.192  28.324  1.00  0.00     0.219 HD
ENDBRANCH  15  17
BRANCH  16  19
HETATM   19  O5  UNL     1      14.378  11.717  28.220  1.00  0.00    -0.331 OA
ATOM     20  H5  UNL     1      13.493  11.827  28.546  1.00  0.00     0.221 HD
ENDBRANCH  16  19
ENDBRANCH   6   9
ENDBRANCH   3   6
BRANCH   2  21
HETATM   21  N3  UNL     1      16.490  13.551  29.743  1.00  0.00    -0.332 N 
ATOM     22  H3  UNL     1      16.705  12.563  29.882  1.00  0.00     0.168 HD
BRANCH  21  23
HETATM   23  C4  UNL     1      15.470  14.179  30.501  1.00  0.00     0.353 C 
HETATM   24  O2  UNL     1      15.666  14.531  31.686  1.00  0.00    -0.283 OA
ENDBRANCH  21  23
ENDBRANCH   2  21
BRANCH   1  25
HETATM   25  C1  UNL     1      19.100  14.880  30.282  1.00  0.00     0.184 C 
BRANCH  25  26
HETATM   26  N2  UNL     1      19.234  15.894  31.216  1.00  0.00    -0.285 N 
ATOM     27  H2  UNL     1      18.478  16.151  31.851  1.00  0.00     0.188 HD
BRANCH  26  28
HETATM   28  N1  UNL     1      20.511  16.563  31.232  1.00  0.00    -0.343 N 
ATOM     29  H12 UNL     1      20.670  17.414  30.694  1.00  0.00     0.176 HD
ATOM     30  H11 UNL     1      21.230  16.128  31.811  1.00  0.00     0.176 HD
ENDBRANCH  26  28
ENDBRANCH  25  26
BRANCH  25  31
HETATM   31  O1  UNL     1      19.625  13.740  30.624  1.00  0.00    -0.343 OA
ATOM     32  H1  UNL     1      19.383  13.427  31.488  1.00  0.00     0.219 HD
ENDBRANCH  25  31
ENDBRANCH   1  25
BRANCH   5  33
HETATM   33  C13 UNL     1      20.019  16.330  27.595  1.00  0.00     0.157 C 
BRANCH  33  34
HETATM   34  C14 UNL     1      20.858  15.743  26.500  1.00  0.00     0.221 C 
BRANCH  34  35
HETATM   35  O6  UNL     1      21.454  14.595  27.046  1.00  0.00    -0.276 OA
BRANCH  35  36
HETATM   36  N7  UNL     1      22.257  15.007  28.047  1.00  0.00    -0.226 N 
HETATM   37  C15 UNL     1      22.603  14.096  29.066  1.00  0.00     0.341 C 
HETATM   38  O7  UNL     1      22.154  12.910  29.026  1.00  0.00    -0.259 OA
ATOM     39  H7  UNL     1      22.610  15.964  28.067  1.00  0.00     0.198 HD
BRANCH  37  40
HETATM   40  C16 UNL     1      23.462  14.505  30.150  1.00  0.00     0.272 C 
HETATM   41  O8  UNL     1      24.706  14.320  30.058  1.00  0.00    -0.640 OA
HETATM   42  O9  UNL     1      22.901  15.095  31.273  1.00  0.00    -0.640 OA
ENDBRANCH  37  40
ENDBRANCH  35  36
ENDBRANCH  34  35
ENDBRANCH  33  34
ENDBRANCH   5  33
TORSDOF 16
ENDMDL
