MODEL 1
REMARK VINA RESULT: -8.406153561      0.000      0.000
REMARK  14 active torsions:
REMARK  status: ('A' for Active; 'I' for Inactive)
REMARK    1  A    between atoms: C3_3  and  O1_4 
REMARK    2  A    between atoms: C4_6  and  O2_7 
REMARK    3  A    between atoms: C7_11  and  O3_12 
REMARK    4  A    between atoms: C12_23  and  O7_24 
REMARK    5  A    between atoms: O7_24  and  C13_25 
REMARK    6  A    between atoms: C13_25  and  C14_26 
REMARK    7  A    between atoms: C14_26  and  O8_27 
REMARK    8  A    between atoms: C14_26  and  C15_29 
REMARK    9  A    between atoms: C15_29  and  N2_30 
REMARK   10  A    between atoms: N2_30  and  C17_32 
REMARK   11  A    between atoms: C17_32  and  C18_33 
REMARK   12  A    between atoms: C18_33  and  C19_35 
REMARK   13  A    between atoms: C19_35  and  O10_36 
REMARK   14  A    between atoms: C19_35  and  C20_38 
ROOT
HETATM    1  C1  UNL     1      18.867  14.098  21.724  1.00  0.00     0.054 C 
HETATM    2  C2  UNL     1      17.861  13.026  21.982  1.00  0.00     0.008 A 
HETATM    3  C3  UNL     1      18.045  12.070  22.929  1.00  0.00     0.108 A 
HETATM    4  C4  UNL     1      17.133  11.068  23.197  1.00  0.00     0.115 A 
HETATM    5  C5  UNL     1      15.943  11.007  22.473  1.00  0.00     0.064 A 
HETATM    6  C6  UNL     1      15.743  11.988  21.488  1.00  0.00     0.016 A 
HETATM    7  C7  UNL     1      16.675  12.988  21.236  1.00  0.00     0.085 A 
HETATM    8  C8  UNL     1      14.669  11.925  20.722  1.00  0.00     0.051 C 
HETATM    9  C9  UNL     1      13.621  10.865  20.813  1.00  0.00     0.189 C 
HETATM   10  C10 UNL     1      13.659   9.981  19.572  1.00  0.00     0.247 C 
HETATM   11  O4  UNL     1      12.302   9.711  19.306  1.00  0.00    -0.293 OA
HETATM   12  C11 UNL     1      11.516  10.635  19.975  1.00  0.00     0.409 C 
HETATM   13  O5  UNL     1      10.269  10.775  19.955  1.00  0.00    -0.229 OA
HETATM   14  O6  UNL     1      12.344  11.471  20.748  1.00  0.00    -0.260 OA
HETATM   15  N1  UNL     1      13.786  10.066  21.984  1.00  0.00    -0.333 N 
ATOM     16  H1  UNL     1      13.032   9.452  22.290  1.00  0.00     0.165 HD
HETATM   17  C12 UNL     1      15.024  10.123  22.745  1.00  0.00     0.155 C 
ENDROOT
BRANCH  17  18
HETATM   18  O7  UNL     1      15.164   9.179  23.780  1.00  0.00    -0.333 OA
BRANCH  18  19
HETATM   19  C13 UNL     1      13.978   8.966  24.525  1.00  0.00     0.210 C 
BRANCH  19  20
HETATM   20  C14 UNL     1      13.965   9.609  25.884  1.00  0.00     0.170 C 
BRANCH  20  21
HETATM   21  O8  UNL     1      13.163   8.886  26.739  1.00  0.00    -0.392 OA
ATOM     22  H8  UNL     1      13.692   8.289  27.254  1.00  0.00     0.210 HD
ENDBRANCH  20  21
BRANCH  20  23
HETATM   23  C15 UNL     1      13.723  11.060  25.936  1.00  0.00     0.306 C 
BRANCH  23  24
HETATM   24  N2  UNL     1      14.844  11.769  26.553  1.00  0.00     0.093 N 
HETATM   25  C16 UNL     1      15.127  12.942  25.637  1.00  0.00     0.310 C 
BRANCH  24  26
HETATM   26  C17 UNL     1      14.442  12.407  27.816  1.00  0.00     0.353 C 
BRANCH  26  27
HETATM   27  C18 UNL     1      15.653  12.847  28.532  1.00  0.00     0.194 C 
HETATM   28  O9  UNL     1      16.546  12.020  28.734  1.00  0.00    -0.293 OA
BRANCH  27  29
HETATM   29  C19 UNL     1      15.829  14.226  29.006  1.00  0.00     0.290 C 
BRANCH  29  30
HETATM   30  O10 UNL     1      14.700  14.943  28.524  1.00  0.00    -0.378 OA
ATOM     31  H10 UNL     1      14.837  15.845  28.790  1.00  0.00     0.211 HD
ENDBRANCH  29  30
BRANCH  29  32
HETATM   32  C20 UNL     1      15.802  14.321  30.491  1.00  0.00     0.210 C 
HETATM   33  O11 UNL     1      14.695  14.192  31.076  1.00  0.00    -0.646 OA
HETATM   34  O12 UNL     1      16.915  14.540  31.237  1.00  0.00    -0.646 OA
ENDBRANCH  29  32
ENDBRANCH  27  29
ENDBRANCH  26  27
ENDBRANCH  24  26
ENDBRANCH  23  24
ENDBRANCH  20  23
ENDBRANCH  19  20
ENDBRANCH  18  19
ENDBRANCH  17  18
BRANCH   4  35
HETATM   35  O2  UNL     1      17.357  10.119  24.156  1.00  0.00    -0.357 OA
ATOM     36  H2  UNL     1      17.633   9.237  23.938  1.00  0.00     0.217 HD
ENDBRANCH   4  35
BRANCH   3  37
HETATM   37  O1  UNL     1      19.220  12.094  23.678  1.00  0.00    -0.357 OA
ATOM     38  H1  UNL     1      19.782  11.329  23.664  1.00  0.00     0.217 HD
ENDBRANCH   3  37
BRANCH   7  39
HETATM   39  O3  UNL     1      16.524  13.966  20.292  1.00  0.00    -0.359 OA
ATOM     40  H3  UNL     1      15.636  14.129  19.995  1.00  0.00     0.217 HD
ENDBRANCH   7  39
TORSDOF 14
ENDMDL
MODEL 2
REMARK VINA RESULT: -8.151014524      3.020      5.915
REMARK  14 active torsions:
REMARK  status: ('A' for Active; 'I' for Inactive)
REMARK    1  A    between atoms: C3_3  and  O1_4 
REMARK    2  A    between atoms: C4_6  and  O2_7 
REMARK    3  A    between atoms: C7_11  and  O3_12 
REMARK    4  A    between atoms: C12_23  and  O7_24 
REMARK    5  A    between atoms: O7_24  and  C13_25 
REMARK    6  A    between atoms: C13_25  and  C14_26 
REMARK    7  A    between atoms: C14_26  and  O8_27 
REMARK    8  A    between atoms: C14_26  and  C15_29 
REMARK    9  A    between atoms: C15_29  and  N2_30 
REMARK   10  A    between atoms: N2_30  and  C17_32 
REMARK   11  A    between atoms: C17_32  and  C18_33 
REMARK   12  A    between atoms: C18_33  and  C19_35 
REMARK   13  A    between atoms: C19_35  and  O10_36 
REMARK   14  A    between atoms: C19_35  and  C20_38 
ROOT
HETATM    1  C1  UNL     1      13.821  11.307  22.008  1.00  0.00     0.054 C 
HETATM    2  C2  UNL     1      15.163  11.444  22.646  1.00  0.00     0.008 A 
HETATM    3  C3  UNL     1      15.543  12.571  23.303  1.00  0.00     0.108 A 
HETATM    4  C4  UNL     1      16.775  12.729  23.910  1.00  0.00     0.115 A 
HETATM    5  C5  UNL     1      17.704  11.690  23.864  1.00  0.00     0.064 A 
HETATM    6  C6  UNL     1      17.324  10.521  23.184  1.00  0.00     0.016 A 
HETATM    7  C7  UNL     1      16.078  10.385  22.582  1.00  0.00     0.085 A 
HETATM    8  C8  UNL     1      18.198   9.542  23.045  1.00  0.00     0.051 C 
HETATM    9  C9  UNL     1      19.600   9.573  23.560  1.00  0.00     0.189 C 
HETATM   10  C10 UNL     1      20.586   9.632  22.399  1.00  0.00     0.247 C 
HETATM   11  O4  UNL     1      21.651   8.812  22.817  1.00  0.00    -0.293 OA
HETATM   12  C11 UNL     1      21.221   8.002  23.855  1.00  0.00     0.409 C 
HETATM   13  O5  UNL     1      21.843   7.097  24.463  1.00  0.00    -0.229 OA
HETATM   14  O6  UNL     1      19.892   8.335  24.180  1.00  0.00    -0.260 OA
HETATM   15  N1  UNL     1      19.810  10.683  24.433  1.00  0.00    -0.333 N 
ATOM     16  H1  UNL     1      20.641  10.713  25.024  1.00  0.00     0.165 HD
HETATM   17  C12 UNL     1      18.847  11.770  24.486  1.00  0.00     0.155 C 
ENDROOT
BRANCH  17  18
HETATM   18  O7  UNL     1      19.220  12.898  25.242  1.00  0.00    -0.333 OA
BRANCH  18  19
HETATM   19  C13 UNL     1      19.393  12.630  26.623  1.00  0.00     0.210 C 
BRANCH  19  20
HETATM   20  C14 UNL     1      18.796  13.659  27.543  1.00  0.00     0.170 C 
BRANCH  20  21
HETATM   21  O8  UNL     1      18.414  14.768  26.823  1.00  0.00    -0.392 OA
ATOM     22  H8  UNL     1      17.747  15.249  27.298  1.00  0.00     0.210 HD
ENDBRANCH  20  21
BRANCH  20  23
HETATM   23  C15 UNL     1      19.550  13.980  28.765  1.00  0.00     0.306 C 
BRANCH  23  24
HETATM   24  N2  UNL     1      18.714  13.856  29.959  1.00  0.00     0.093 N 
HETATM   25  C16 UNL     1      19.627  14.190  31.122  1.00  0.00     0.310 C 
BRANCH  24  26
HETATM   26  C17 UNL     1      17.692  14.913  30.009  1.00  0.00     0.353 C 
BRANCH  26  27
HETATM   27  C18 UNL     1      16.384  14.296  30.294  1.00  0.00     0.194 C 
HETATM   28  O9  UNL     1      15.908  14.433  31.425  1.00  0.00    -0.293 OA
BRANCH  27  29
HETATM   29  C19 UNL     1      15.635  13.537  29.286  1.00  0.00     0.290 C 
BRANCH  29  30
HETATM   30  O10 UNL     1      14.500  13.015  29.966  1.00  0.00    -0.378 OA
ATOM     31  H10 UNL     1      13.971  12.598  29.295  1.00  0.00     0.211 HD
ENDBRANCH  29  30
BRANCH  29  32
HETATM   32  C20 UNL     1      15.124  14.404  28.190  1.00  0.00     0.210 C 
HETATM   33  O11 UNL     1      14.349  15.350  28.491  1.00  0.00    -0.646 OA
HETATM   34  O12 UNL     1      15.454  14.219  26.886  1.00  0.00    -0.646 OA
ENDBRANCH  29  32
ENDBRANCH  27  29
ENDBRANCH  26  27
ENDBRANCH  24  26
ENDBRANCH  23  24
ENDBRANCH  20  23
ENDBRANCH  19  20
ENDBRANCH  18  19
ENDBRANCH  17  18
BRANCH   4  35
HETATM   35  O2  UNL     1      17.123  13.881  24.558  1.00  0.00    -0.357 OA
ATOM     36  H2  UNL     1      17.884  13.932  25.123  1.00  0.00     0.217 HD
ENDBRANCH   4  35
BRANCH   3  37
HETATM   37  O1  UNL     1      14.645  13.633  23.375  1.00  0.00    -0.357 OA
ATOM     38  H1  UNL     1      14.616  14.149  24.172  1.00  0.00     0.217 HD
ENDBRANCH   3  37
BRANCH   7  39
HETATM   39  O3  UNL     1      15.662   9.267  21.913  1.00  0.00    -0.359 OA
ATOM     40  H3  UNL     1      15.791   9.268  20.971  1.00  0.00     0.217 HD
ENDBRANCH   7  39
TORSDOF 14
ENDMDL
MODEL 3
REMARK VINA RESULT: -8.115916387      1.294      1.929
REMARK  14 active torsions:
REMARK  status: ('A' for Active; 'I' for Inactive)
REMARK    1  A    between atoms: C3_3  and  O1_4 
REMARK    2  A    between atoms: C4_6  and  O2_7 
REMARK    3  A    between atoms: C7_11  and  O3_12 
REMARK    4  A    between atoms: C12_23  and  O7_24 
REMARK    5  A    between atoms: O7_24  and  C13_25 
REMARK    6  A    between atoms: C13_25  and  C14_26 
REMARK    7  A    between atoms: C14_26  and  O8_27 
REMARK    8  A    between atoms: C14_26  and  C15_29 
REMARK    9  A    between atoms: C15_29  and  N2_30 
REMARK   10  A    between atoms: N2_30  and  C17_32 
REMARK   11  A    between atoms: C17_32  and  C18_33 
REMARK   12  A    between atoms: C18_33  and  C19_35 
REMARK   13  A    between atoms: C19_35  and  O10_36 
REMARK   14  A    between atoms: C19_35  and  C20_38 
ROOT
HETATM    1  C1  UNL     1      18.595  14.010  21.327  1.00  0.00     0.054 C 
HETATM    2  C2  UNL     1      17.593  12.952  21.646  1.00  0.00     0.008 A 
HETATM    3  C3  UNL     1      17.811  12.009  22.599  1.00  0.00     0.108 A 
HETATM    4  C4  UNL     1      16.902  11.019  22.924  1.00  0.00     0.115 A 
HETATM    5  C5  UNL     1      15.681  10.958  22.254  1.00  0.00     0.064 A 
HETATM    6  C6  UNL     1      15.446  11.926  21.264  1.00  0.00     0.016 A 
HETATM    7  C7  UNL     1      16.375  12.913  20.955  1.00  0.00     0.085 A 
HETATM    8  C8  UNL     1      14.338  11.861  20.547  1.00  0.00     0.051 C 
HETATM    9  C9  UNL     1      13.286  10.812  20.702  1.00  0.00     0.189 C 
HETATM   10  C10 UNL     1      13.261   9.908  19.474  1.00  0.00     0.247 C 
HETATM   11  O4  UNL     1      11.892   9.647  19.274  1.00  0.00    -0.293 OA
HETATM   12  C11 UNL     1      11.145  10.588  19.962  1.00  0.00     0.409 C 
HETATM   13  O5  UNL     1       9.899  10.740  19.995  1.00  0.00    -0.229 OA
HETATM   14  O6  UNL     1      12.013  11.429  20.684  1.00  0.00    -0.260 OA
HETATM   15  N1  UNL     1      13.497  10.030  21.877  1.00  0.00    -0.333 N 
ATOM     16  H1  UNL     1      12.751   9.428  22.226  1.00  0.00     0.165 HD
HETATM   17  C12 UNL     1      14.767  10.087  22.581  1.00  0.00     0.155 C 
ENDROOT
BRANCH  17  18
HETATM   18  O7  UNL     1      14.945   9.158  23.624  1.00  0.00    -0.333 OA
BRANCH  18  19
HETATM   19  C13 UNL     1      13.846   9.079  24.514  1.00  0.00     0.210 C 
BRANCH  19  20
HETATM   20  C14 UNL     1      13.926  10.004  25.697  1.00  0.00     0.170 C 
BRANCH  20  21
HETATM   21  O8  UNL     1      13.392   9.392  26.809  1.00  0.00    -0.392 OA
ATOM     22  H8  UNL     1      14.061   8.884  27.252  1.00  0.00     0.210 HD
ENDBRANCH  20  21
BRANCH  20  23
HETATM   23  C15 UNL     1      13.453  11.384  25.500  1.00  0.00     0.306 C 
BRANCH  23  24
HETATM   24  N2  UNL     1      14.557  12.342  25.551  1.00  0.00     0.093 N 
HETATM   25  C16 UNL     1      14.275  13.335  24.442  1.00  0.00     0.310 C 
BRANCH  24  26
HETATM   26  C17 UNL     1      14.497  13.161  26.771  1.00  0.00     0.353 C 
BRANCH  26  27
HETATM   27  C18 UNL     1      15.594  12.758  27.670  1.00  0.00     0.194 C 
HETATM   28  O9  UNL     1      15.375  11.867  28.495  1.00  0.00    -0.293 OA
BRANCH  27  29
HETATM   29  C19 UNL     1      16.925  13.374  27.613  1.00  0.00     0.290 C 
BRANCH  29  30
HETATM   30  O10 UNL     1      17.625  12.876  28.746  1.00  0.00    -0.378 OA
ATOM     31  H10 UNL     1      18.267  12.266  28.402  1.00  0.00     0.211 HD
ENDBRANCH  29  30
BRANCH  29  32
HETATM   32  C20 UNL     1      17.692  12.951  26.409  1.00  0.00     0.210 C 
HETATM   33  O11 UNL     1      17.931  13.812  25.522  1.00  0.00    -0.646 OA
HETATM   34  O12 UNL     1      18.140  11.682  26.227  1.00  0.00    -0.646 OA
ENDBRANCH  29  32
ENDBRANCH  27  29
ENDBRANCH  26  27
ENDBRANCH  24  26
ENDBRANCH  23  24
ENDBRANCH  20  23
ENDBRANCH  19  20
ENDBRANCH  18  19
ENDBRANCH  17  18
BRANCH   4  35
HETATM   35  O2  UNL     1      17.161  10.084  23.887  1.00  0.00    -0.357 OA
ATOM     36  H2  UNL     1      16.731   9.236  23.896  1.00  0.00     0.217 HD
ENDBRANCH   4  35
BRANCH   3  37
HETATM   37  O1  UNL     1      19.017  12.034  23.295  1.00  0.00    -0.357 OA
ATOM     38  H1  UNL     1      19.093  11.519  24.090  1.00  0.00     0.217 HD
ENDBRANCH   3  37
BRANCH   7  39
HETATM   39  O3  UNL     1      16.190  13.878  20.003  1.00  0.00    -0.359 OA
ATOM     40  H3  UNL     1      15.503  14.511  20.175  1.00  0.00     0.217 HD
ENDBRANCH   7  39
TORSDOF 14
ENDMDL
MODEL 4
REMARK VINA RESULT: -7.917341759      2.985      6.061
REMARK  14 active torsions:
REMARK  status: ('A' for Active; 'I' for Inactive)
REMARK    1  A    between atoms: C3_3  and  O1_4 
REMARK    2  A    between atoms: C4_6  and  O2_7 
REMARK    3  A    between atoms: C7_11  and  O3_12 
REMARK    4  A    between atoms: C12_23  and  O7_24 
REMARK    5  A    between atoms: O7_24  and  C13_25 
REMARK    6  A    between atoms: C13_25  and  C14_26 
REMARK    7  A    between atoms: C14_26  and  O8_27 
REMARK    8  A    between atoms: C14_26  and  C15_29 
REMARK    9  A    between atoms: C15_29  and  N2_30 
REMARK   10  A    between atoms: N2_30  and  C17_32 
REMARK   11  A    between atoms: C17_32  and  C18_33 
REMARK   12  A    between atoms: C18_33  and  C19_35 
REMARK   13  A    between atoms: C19_35  and  O10_36 
REMARK   14  A    between atoms: C19_35  and  C20_38 
ROOT
HETATM    1  C1  UNL     1      13.826  11.262  22.122  1.00  0.00     0.054 C 
HETATM    2  C2  UNL     1      15.115  11.461  22.847  1.00  0.00     0.008 A 
HETATM    3  C3  UNL     1      15.340  12.535  23.647  1.00  0.00     0.108 A 
HETATM    4  C4  UNL     1      16.518  12.747  24.337  1.00  0.00     0.115 A 
HETATM    5  C5  UNL     1      17.557  11.823  24.228  1.00  0.00     0.064 A 
HETATM    6  C6  UNL     1      17.338  10.710  23.399  1.00  0.00     0.016 A 
HETATM    7  C7  UNL     1      16.142  10.517  22.716  1.00  0.00     0.085 A 
HETATM    8  C8  UNL     1      18.319   9.849  23.201  1.00  0.00     0.051 C 
HETATM    9  C9  UNL     1      19.685   9.965  23.795  1.00  0.00     0.189 C 
HETATM   10  C10 UNL     1      20.709  10.262  22.706  1.00  0.00     0.247 C 
HETATM   11  O4  UNL     1      21.838   9.514  23.089  1.00  0.00    -0.293 OA
HETATM   12  C11 UNL     1      21.453   8.546  24.002  1.00  0.00     0.409 C 
HETATM   13  O5  UNL     1      22.143   7.645  24.539  1.00  0.00    -0.229 OA
HETATM   14  O6  UNL     1      20.083   8.699  24.287  1.00  0.00    -0.260 OA
HETATM   15  N1  UNL     1      19.733  10.980  24.798  1.00  0.00    -0.333 N 
ATOM     16  H1  UNL     1      20.529  11.026  25.435  1.00  0.00     0.165 HD
HETATM   17  C12 UNL     1      18.655  11.947  24.918  1.00  0.00     0.155 C 
ENDROOT
BRANCH  17  18
HETATM   18  O7  UNL     1      18.869  13.010  25.817  1.00  0.00    -0.333 OA
BRANCH  18  19
HETATM   19  C13 UNL     1      20.016  12.848  26.633  1.00  0.00     0.210 C 
BRANCH  19  20
HETATM   20  C14 UNL     1      20.216  13.930  27.658  1.00  0.00     0.170 C 
BRANCH  20  21
HETATM   21  O8  UNL     1      20.938  13.440  28.723  1.00  0.00    -0.392 OA
ATOM     22  H8  UNL     1      21.401  12.652  28.466  1.00  0.00     0.210 HD
ENDBRANCH  20  21
BRANCH  20  23
HETATM   23  C15 UNL     1      19.028  14.701  28.058  1.00  0.00     0.306 C 
BRANCH  23  24
HETATM   24  N2  UNL     1      18.232  13.985  29.054  1.00  0.00     0.093 N 
HETATM   25  C16 UNL     1      18.234  14.873  30.281  1.00  0.00     0.310 C 
BRANCH  24  26
HETATM   26  C17 UNL     1      16.814  13.933  28.669  1.00  0.00     0.353 C 
BRANCH  26  27
HETATM   27  C18 UNL     1      16.401  12.522  28.559  1.00  0.00     0.194 C 
HETATM   28  O9  UNL     1      17.280  11.663  28.454  1.00  0.00    -0.293 OA
BRANCH  27  29
HETATM   29  C19 UNL     1      14.992  12.111  28.575  1.00  0.00     0.290 C 
BRANCH  29  30
HETATM   30  O10 UNL     1      14.355  12.964  29.519  1.00  0.00    -0.378 OA
ATOM     31  H10 UNL     1      13.423  12.875  29.356  1.00  0.00     0.211 HD
ENDBRANCH  29  30
BRANCH  29  32
HETATM   32  C20 UNL     1      14.322  12.338  27.265  1.00  0.00     0.210 C 
HETATM   33  O11 UNL     1      14.007  11.334  26.575  1.00  0.00    -0.646 OA
HETATM   34  O12 UNL     1      14.041  13.577  26.784  1.00  0.00    -0.646 OA
ENDBRANCH  29  32
ENDBRANCH  27  29
ENDBRANCH  26  27
ENDBRANCH  24  26
ENDBRANCH  23  24
ENDBRANCH  20  23
ENDBRANCH  19  20
ENDBRANCH  18  19
ENDBRANCH  17  18
BRANCH   4  35
HETATM   35  O2  UNL     1      16.709  13.845  25.130  1.00  0.00    -0.357 OA
ATOM     36  H2  UNL     1      16.655  13.799  26.077  1.00  0.00     0.217 HD
ENDBRANCH   4  35
BRANCH   3  37
HETATM   37  O1  UNL     1      14.328  13.483  23.787  1.00  0.00    -0.357 OA
ATOM     38  H1  UNL     1      13.451  13.255  23.502  1.00  0.00     0.217 HD
ENDBRANCH   3  37
BRANCH   7  39
HETATM   39  O3  UNL     1      15.881   9.449  21.902  1.00  0.00    -0.359 OA
ATOM     40  H3  UNL     1      16.037   9.580  20.974  1.00  0.00     0.217 HD
ENDBRANCH   7  39
TORSDOF 14
ENDMDL
MODEL 5
REMARK VINA RESULT: -7.863197637      3.144      7.667
REMARK  14 active torsions:
REMARK  status: ('A' for Active; 'I' for Inactive)
REMARK    1  A    between atoms: C3_3  and  O1_4 
REMARK    2  A    between atoms: C4_6  and  O2_7 
REMARK    3  A    between atoms: C7_11  and  O3_12 
REMARK    4  A    between atoms: C12_23  and  O7_24 
REMARK    5  A    between atoms: O7_24  and  C13_25 
REMARK    6  A    between atoms: C13_25  and  C14_26 
REMARK    7  A    between atoms: C14_26  and  O8_27 
REMARK    8  A    between atoms: C14_26  and  C15_29 
REMARK    9  A    between atoms: C15_29  and  N2_30 
REMARK   10  A    between atoms: N2_30  and  C17_32 
REMARK   11  A    between atoms: C17_32  and  C18_33 
REMARK   12  A    between atoms: C18_33  and  C19_35 
REMARK   13  A    between atoms: C19_35  and  O10_36 
REMARK   14  A    between atoms: C19_35  and  C20_38 
ROOT
HETATM    1  C1  UNL     1      21.011  16.862  31.146  1.00  0.00     0.054 C 
HETATM    2  C2  UNL     1      20.234  16.296  30.005  1.00  0.00     0.008 A 
HETATM    3  C3  UNL     1      20.592  16.498  28.711  1.00  0.00     0.108 A 
HETATM    4  C4  UNL     1      19.900  15.984  27.631  1.00  0.00     0.115 A 
HETATM    5  C5  UNL     1      18.763  15.207  27.849  1.00  0.00     0.064 A 
HETATM    6  C6  UNL     1      18.380  14.994  29.184  1.00  0.00     0.016 A 
HETATM    7  C7  UNL     1      19.093  15.520  30.254  1.00  0.00     0.085 A 
HETATM    8  C8  UNL     1      17.266  14.332  29.438  1.00  0.00     0.051 C 
HETATM    9  C9  UNL     1      16.348  13.779  28.397  1.00  0.00     0.189 C 
HETATM   10  C10 UNL     1      15.029  14.542  28.400  1.00  0.00     0.247 C 
HETATM   11  O4  UNL     1      14.061  13.546  28.164  1.00  0.00    -0.293 OA
HETATM   12  C11 UNL     1      14.614  12.304  28.428  1.00  0.00     0.409 C 
HETATM   13  O5  UNL     1      14.071  11.173  28.397  1.00  0.00    -0.229 OA
HETATM   14  O6  UNL     1      15.972  12.465  28.764  1.00  0.00    -0.260 OA
HETATM   15  N1  UNL     1      16.939  13.834  27.098  1.00  0.00    -0.333 N 
ATOM     16  H1  UNL     1      16.528  13.303  26.331  1.00  0.00     0.165 HD
HETATM   17  C12 UNL     1      18.124  14.642  26.863  1.00  0.00     0.155 C 
ENDROOT
BRANCH  17  18
HETATM   18  O7  UNL     1      18.533  14.773  25.522  1.00  0.00    -0.333 OA
BRANCH  18  19
HETATM   19  C13 UNL     1      18.797  13.538  24.881  1.00  0.00     0.210 C 
BRANCH  19  20
HETATM   20  C14 UNL     1      19.063  13.639  23.404  1.00  0.00     0.170 C 
BRANCH  20  21
HETATM   21  O8  UNL     1      18.909  14.942  22.987  1.00  0.00    -0.392 OA
ATOM     22  H8  UNL     1      18.124  15.314  23.370  1.00  0.00     0.210 HD
ENDBRANCH  20  21
BRANCH  20  23
HETATM   23  C15 UNL     1      18.393  12.660  22.534  1.00  0.00     0.306 C 
BRANCH  23  24
HETATM   24  N2  UNL     1      16.959  12.587  22.813  1.00  0.00     0.093 N 
HETATM   25  C16 UNL     1      16.280  12.854  21.485  1.00  0.00     0.310 C 
BRANCH  24  26
HETATM   26  C17 UNL     1      16.548  11.213  23.141  1.00  0.00     0.353 C 
BRANCH  26  27
HETATM   27  C18 UNL     1      15.808  11.229  24.416  1.00  0.00     0.194 C 
HETATM   28  O9  UNL     1      16.450  11.127  25.465  1.00  0.00    -0.293 OA
BRANCH  27  29
HETATM   29  C19 UNL     1      14.347  11.364  24.477  1.00  0.00     0.290 C 
BRANCH  29  30
HETATM   30  O10 UNL     1      13.926  10.487  25.515  1.00  0.00    -0.378 OA
ATOM     31  H10 UNL     1      14.370  10.789  26.299  1.00  0.00     0.211 HD
ENDBRANCH  29  30
BRANCH  29  32
HETATM   32  C20 UNL     1      13.923  12.736  24.869  1.00  0.00     0.210 C 
HETATM   33  O11 UNL     1      12.707  12.931  25.131  1.00  0.00    -0.646 OA
HETATM   34  O12 UNL     1      14.787  13.780  24.954  1.00  0.00    -0.646 OA
ENDBRANCH  29  32
ENDBRANCH  27  29
ENDBRANCH  26  27
ENDBRANCH  24  26
ENDBRANCH  23  24
ENDBRANCH  20  23
ENDBRANCH  19  20
ENDBRANCH  18  19
ENDBRANCH  17  18
BRANCH   4  35
HETATM   35  O2  UNL     1      20.289  16.215  26.341  1.00  0.00    -0.357 OA
ATOM     36  H2  UNL     1      20.235  15.545  25.670  1.00  0.00     0.217 HD
ENDBRANCH   4  35
BRANCH   3  37
HETATM   37  O1  UNL     1      21.724  17.267  28.447  1.00  0.00    -0.357 OA
ATOM     38  H1  UNL     1      21.622  18.065  27.942  1.00  0.00     0.217 HD
ENDBRANCH   3  37
BRANCH   7  39
HETATM   39  O3  UNL     1      18.763  15.337  31.569  1.00  0.00    -0.359 OA
ATOM     40  H3  UNL     1      19.342  14.777  32.073  1.00  0.00     0.217 HD
ENDBRANCH   7  39
TORSDOF 14
ENDMDL
