MODEL 1
REMARK VINA RESULT: -6.641049172      0.000      0.000
REMARK  3 active torsions:
REMARK  status: ('A' for Active; 'I' for Inactive)
REMARK    1  A    between atoms: N1_2  and  C2_4 
REMARK    2  A    between atoms: C2_4  and  C5_7 
REMARK    3  A    between atoms: C5_7  and  N2_8 
ROOT
HETATM    1  N2  UNL     1       6.572  -8.677  38.883  1.00  0.00    -0.238 N 
HETATM    2  N3  UNL     1       6.292  -9.908  38.481  1.00  0.00    -0.127 N 
ATOM      3  H3  UNL     1       6.085 -10.646  39.153  1.00  0.00     0.206 HD
HETATM    4  C6  UNL     1       6.289 -10.150  37.162  1.00  0.00     0.692 A 
HETATM    5  N4  UNL     1       6.011 -11.371  36.800  1.00  0.00    -0.233 N 
ATOM      6  H41 UNL     1       6.008 -11.556  35.797  1.00  0.00     0.174 HD
ATOM      7  H42 UNL     1       5.807 -12.095  37.490  1.00  0.00     0.174 HD
HETATM    8  N5  UNL     1       6.557  -9.195  36.252  1.00  0.00    -0.172 N 
ATOM      9  H5  UNL     1       6.542  -9.430  35.259  1.00  0.00     0.185 HD
HETATM   10  C7  UNL     1       6.844  -7.936  36.631  1.00  0.00     0.201 A 
HETATM   11  N6  UNL     1       7.127  -6.924  35.676  1.00  0.00    -0.076 NA
HETATM   12  C8  UNL     1       6.843  -7.697  38.006  1.00  0.00     0.304 A 
HETATM   13  O1  UNL     1       7.114  -6.508  38.321  1.00  0.00    -0.263 OA
ENDROOT
BRANCH   1  14
HETATM   14  C5  UNL     1       6.600  -8.410  40.290  1.00  0.00     0.182 C 
BRANCH  14  15
HETATM   15  C2  UNL     1       5.290  -8.157  40.942  1.00  0.00     0.036 C 
HETATM   16  C3  UNL     1       4.643  -9.409  41.490  1.00  0.00     0.039 C 
HETATM   17  C4  UNL     1       5.441  -7.214  42.112  1.00  0.00     0.039 C 
BRANCH  15  18
HETATM   18  N1  UNL     1       4.420  -7.480  40.002  1.00  0.00    -0.416 N 
HETATM   19  C1  UNL     1       3.119  -8.038  39.866  1.00  0.00     0.140 C 
ATOM     20  H1  UNL     1       4.720  -6.660  39.473  1.00  0.00     0.153 HD
ENDBRANCH  15  18
ENDBRANCH  14  15
ENDBRANCH   1  14
TORSDOF 3
ENDMDL
MODEL 2
REMARK VINA RESULT: -6.618548979      1.249      1.790
REMARK  3 active torsions:
REMARK  status: ('A' for Active; 'I' for Inactive)
REMARK    1  A    between atoms: N1_2  and  C2_4 
REMARK    2  A    between atoms: C2_4  and  C5_7 
REMARK    3  A    between atoms: C5_7  and  N2_8 
ROOT
HETATM    1  N2  UNL     1       4.815  -8.338  38.069  1.00  0.00    -0.238 N 
HETATM    2  N3  UNL     1       4.999  -9.646  37.979  1.00  0.00    -0.127 N 
ATOM      3  H3  UNL     1       4.446 -10.296  38.537  1.00  0.00     0.206 HD
HETATM    4  C6  UNL     1       5.937 -10.089  37.128  1.00  0.00     0.692 A 
HETATM    5  N4  UNL     1       6.095 -11.382  37.064  1.00  0.00    -0.233 N 
ATOM      6  H41 UNL     1       6.809 -11.718  36.417  1.00  0.00     0.174 HD
ATOM      7  H42 UNL     1       5.530 -12.013  37.632  1.00  0.00     0.174 HD
HETATM    8  N5  UNL     1       6.682  -9.256  36.379  1.00  0.00    -0.172 N 
ATOM      9  H5  UNL     1       7.384  -9.641  35.746  1.00  0.00     0.185 HD
HETATM   10  C7  UNL     1       6.516  -7.922  36.449  1.00  0.00     0.201 A 
HETATM   11  N6  UNL     1       7.298  -7.037  35.659  1.00  0.00    -0.076 NA
HETATM   12  C8  UNL     1       5.536  -7.475  37.337  1.00  0.00     0.304 A 
HETATM   13  O1  UNL     1       5.410  -6.222  37.373  1.00  0.00    -0.263 OA
ENDROOT
BRANCH   1  14
HETATM   14  C5  UNL     1       3.831  -7.852  38.989  1.00  0.00     0.182 C 
BRANCH  14  15
HETATM   15  C2  UNL     1       4.164  -7.958  40.432  1.00  0.00     0.036 C 
HETATM   16  C3  UNL     1       5.577  -7.528  40.753  1.00  0.00     0.039 C 
HETATM   17  C4  UNL     1       3.257  -7.080  41.262  1.00  0.00     0.039 C 
BRANCH  15  18
HETATM   18  N1  UNL     1       3.910  -9.314  40.875  1.00  0.00    -0.416 N 
HETATM   19  C1  UNL     1       4.483  -9.662  42.128  1.00  0.00     0.140 C 
ATOM     20  H1  UNL     1       3.358  -9.973  40.325  1.00  0.00     0.153 HD
ENDBRANCH  15  18
ENDBRANCH  14  15
ENDBRANCH   1  14
TORSDOF 3
ENDMDL
MODEL 3
REMARK VINA RESULT: -6.580641527      2.329      3.472
REMARK  3 active torsions:
REMARK  status: ('A' for Active; 'I' for Inactive)
REMARK    1  A    between atoms: N1_2  and  C2_4 
REMARK    2  A    between atoms: C2_4  and  C5_7 
REMARK    3  A    between atoms: C5_7  and  N2_8 
ROOT
HETATM    1  N2  UNL     1       3.834  -9.237  39.009  1.00  0.00    -0.238 N 
HETATM    2  N3  UNL     1       3.974  -8.117  38.317  1.00  0.00    -0.127 N 
ATOM      3  H3  UNL     1       3.471  -7.269  38.579  1.00  0.00     0.206 HD
HETATM    4  C6  UNL     1       4.800  -8.133  37.261  1.00  0.00     0.692 A 
HETATM    5  N4  UNL     1       4.916  -7.014  36.601  1.00  0.00    -0.233 N 
ATOM      6  H41 UNL     1       5.544  -7.027  35.797  1.00  0.00     0.174 HD
ATOM      7  H42 UNL     1       4.402  -6.179  36.881  1.00  0.00     0.174 HD
HETATM    8  N5  UNL     1       5.478  -9.235  36.892  1.00  0.00    -0.172 N 
ATOM      9  H5  UNL     1       6.095  -9.197  36.080  1.00  0.00     0.185 HD
HETATM   10  C7  UNL     1       5.355 -10.388  37.577  1.00  0.00     0.201 A 
HETATM   11  N6  UNL     1       6.069 -11.554  37.193  1.00  0.00    -0.076 NA
HETATM   12  C8  UNL     1       4.493 -10.357  38.674  1.00  0.00     0.304 A 
HETATM   13  O1  UNL     1       4.407 -11.452  39.289  1.00  0.00    -0.263 OA
ENDROOT
BRANCH   1  14
HETATM   14  C5  UNL     1       2.937  -9.239  40.127  1.00  0.00     0.182 C 
BRANCH  14  15
HETATM   15  C2  UNL     1       3.511  -8.836  41.436  1.00  0.00     0.036 C 
HETATM   16  C3  UNL     1       4.070  -7.432  41.438  1.00  0.00     0.039 C 
HETATM   17  C4  UNL     1       2.460  -8.874  42.521  1.00  0.00     0.039 C 
BRANCH  15  18
HETATM   18  N1  UNL     1       4.514  -9.806  41.828  1.00  0.00    -0.416 N 
HETATM   19  C1  UNL     1       5.798  -9.270  42.116  1.00  0.00     0.140 C 
ATOM     20  H1  UNL     1       4.312 -10.804  41.891  1.00  0.00     0.153 HD
ENDBRANCH  15  18
ENDBRANCH  14  15
ENDBRANCH   1  14
TORSDOF 3
ENDMDL
MODEL 4
REMARK VINA RESULT: -6.580609760      0.797      1.415
REMARK  3 active torsions:
REMARK  status: ('A' for Active; 'I' for Inactive)
REMARK    1  A    between atoms: N1_2  and  C2_4 
REMARK    2  A    between atoms: C2_4  and  C5_7 
REMARK    3  A    between atoms: C5_7  and  N2_8 
ROOT
HETATM    1  N2  UNL     1       6.548  -8.679  38.926  1.00  0.00    -0.238 N 
HETATM    2  N3  UNL     1       6.209  -9.899  38.535  1.00  0.00    -0.127 N 
ATOM      3  H3  UNL     1       5.955 -10.617  39.213  1.00  0.00     0.206 HD
HETATM    4  C6  UNL     1       6.212 -10.158  37.220  1.00  0.00     0.692 A 
HETATM    5  N4  UNL     1       5.875 -11.368  36.869  1.00  0.00    -0.233 N 
ATOM      6  H41 UNL     1       5.877 -11.565  35.867  1.00  0.00     0.174 HD
ATOM      7  H42 UNL     1       5.624 -12.070  37.564  1.00  0.00     0.174 HD
HETATM    8  N5  UNL     1       6.542  -9.231  36.302  1.00  0.00    -0.172 N 
ATOM      9  H5  UNL     1       6.529  -9.477  35.312  1.00  0.00     0.185 HD
HETATM   10  C7  UNL     1       6.890  -7.983  36.669  1.00  0.00     0.201 A 
HETATM   11  N6  UNL     1       7.239  -7.000  35.706  1.00  0.00    -0.076 NA
HETATM   12  C8  UNL     1       6.883  -7.727  38.041  1.00  0.00     0.304 A 
HETATM   13  O1  UNL     1       7.211  -6.549  38.345  1.00  0.00    -0.263 OA
ENDROOT
BRANCH   1  14
HETATM   14  C5  UNL     1       6.570  -8.396  40.329  1.00  0.00     0.182 C 
BRANCH  14  15
HETATM   15  C2  UNL     1       5.252  -8.230  40.992  1.00  0.00     0.036 C 
HETATM   16  C3  UNL     1       5.282  -7.256  42.149  1.00  0.00     0.039 C 
HETATM   17  C4  UNL     1       4.222  -7.700  40.022  1.00  0.00     0.039 C 
BRANCH  15  18
HETATM   18  N1  UNL     1       4.767  -9.530  41.408  1.00  0.00    -0.416 N 
HETATM   19  C1  UNL     1       4.279  -9.600  42.741  1.00  0.00     0.140 C 
ATOM     20  H1  UNL     1       4.776 -10.340  40.787  1.00  0.00     0.153 HD
ENDBRANCH  15  18
ENDBRANCH  14  15
ENDBRANCH   1  14
TORSDOF 3
ENDMDL
MODEL 5
REMARK VINA RESULT: -6.565944145      0.758      1.345
REMARK  3 active torsions:
REMARK  status: ('A' for Active; 'I' for Inactive)
REMARK    1  A    between atoms: N1_2  and  C2_4 
REMARK    2  A    between atoms: C2_4  and  C5_7 
REMARK    3  A    between atoms: C5_7  and  N2_8 
ROOT
HETATM    1  N2  UNL     1       6.472  -8.634  38.897  1.00  0.00    -0.238 N 
HETATM    2  N3  UNL     1       6.150  -9.862  38.519  1.00  0.00    -0.127 N 
ATOM      3  H3  UNL     1       5.875 -10.568  39.202  1.00  0.00     0.206 HD
HETATM    4  C6  UNL     1       6.198 -10.147  37.209  1.00  0.00     0.692 A 
HETATM    5  N4  UNL     1       5.877 -11.364  36.871  1.00  0.00    -0.233 N 
ATOM      6  H41 UNL     1       5.913 -11.581  35.874  1.00  0.00     0.174 HD
ATOM      7  H42 UNL     1       5.604 -12.054  37.571  1.00  0.00     0.174 HD
HETATM    8  N5  UNL     1       6.557  -9.236  36.286  1.00  0.00    -0.172 N 
ATOM      9  H5  UNL     1       6.578  -9.502  35.301  1.00  0.00     0.185 HD
HETATM   10  C7  UNL     1       6.888  -7.981  36.640  1.00  0.00     0.201 A 
HETATM   11  N6  UNL     1       7.266  -7.015  35.670  1.00  0.00    -0.076 NA
HETATM   12  C8  UNL     1       6.833  -7.698  38.006  1.00  0.00     0.304 A 
HETATM   13  O1  UNL     1       7.148  -6.513  38.297  1.00  0.00    -0.263 OA
ENDROOT
BRANCH   1  14
HETATM   14  C5  UNL     1       6.446  -8.324  40.295  1.00  0.00     0.182 C 
BRANCH  14  15
HETATM   15  C2  UNL     1       5.107  -8.119  40.903  1.00  0.00     0.036 C 
HETATM   16  C3  UNL     1       4.074  -7.616  39.919  1.00  0.00     0.039 C 
HETATM   17  C4  UNL     1       4.562  -9.412  41.462  1.00  0.00     0.039 C 
BRANCH  15  18
HETATM   18  N1  UNL     1       5.237  -7.225  42.036  1.00  0.00    -0.416 N 
HETATM   19  C1  UNL     1       4.017  -6.864  42.670  1.00  0.00     0.140 C 
ATOM     20  H1  UNL     1       6.141  -6.879  42.357  1.00  0.00     0.153 HD
ENDBRANCH  15  18
ENDBRANCH  14  15
ENDBRANCH   1  14
TORSDOF 3
ENDMDL
