MODEL 1
REMARK VINA RESULT: -6.618477366      0.000      0.000
REMARK  4 active torsions:
REMARK  status: ('A' for Active; 'I' for Inactive)
REMARK    1  A    between atoms: O1_2  and  C2_3 
REMARK    2  A    between atoms: C7_9  and  O2_10 
REMARK    3  A    between atoms: C13_16  and  C15_18 
REMARK    4  A    between atoms: C15_18  and  O3_19 
ROOT
HETATM    1  C2  UNL     1     -15.690  12.814  40.920  1.00  0.00     0.103 A 
HETATM    2  C3  UNL     1     -14.998  11.857  40.216  1.00  0.00     0.059 A 
HETATM    3  C4  UNL     1     -13.711  12.167  39.768  1.00  0.00     0.020 A 
HETATM    4 BR1  UNL     1     -12.730  10.849  38.784  1.00  0.00    -0.050 Br
HETATM    5  C5  UNL     1     -13.182  13.390  40.036  1.00  0.00    -0.031 A 
HETATM    6  C6  UNL     1     -13.854  14.399  40.754  1.00  0.00    -0.010 A 
HETATM    7  C7  UNL     1     -15.110  14.061  41.174  1.00  0.00     0.108 A 
HETATM    8  C9  UNL     1     -13.108  15.617  40.944  1.00  0.00     0.027 C 
HETATM    9  C10 UNL     1     -13.706  16.754  41.674  1.00  0.00     0.010 C 
HETATM   10  C11 UNL     1     -12.529  17.658  42.104  1.00  0.00     0.002 C 
HETATM   11  C12 UNL     1     -11.877  16.946  43.277  1.00  0.00     0.012 C 
HETATM   12  C13 UNL     1     -11.555  15.508  42.934  1.00  0.00    -0.018 C 
HETATM   13  C14 UNL     1     -12.318  14.500  43.717  1.00  0.00     0.018 C 
HETATM   14  C16 UNL     1     -11.692  15.345  41.422  1.00  0.00     0.004 C 
HETATM   15  C17 UNL     1     -11.115  14.083  40.915  1.00  0.00     0.011 C 
HETATM   16  C18 UNL     1     -11.810  13.734  39.586  1.00  0.00     0.041 C 
ENDROOT
BRANCH  12  17
HETATM   17  C15 UNL     1     -10.083  15.296  43.240  1.00  0.00     0.173 C 
BRANCH  17  18
HETATM   18  O3  UNL     1      -9.947  14.416  44.329  1.00  0.00    -0.400 OA
ATOM     19  H3  UNL     1      -9.106  14.555  44.749  1.00  0.00     0.209 HD
ENDBRANCH  17  18
ENDBRANCH  12  17
BRANCH   7  20
HETATM   20  O2  UNL     1     -15.868  14.930  41.870  1.00  0.00    -0.353 OA
HETATM   21  C8  UNL     1     -16.084  14.894  43.275  1.00  0.00     0.210 C 
ENDBRANCH   7  20
BRANCH   1  22
HETATM   22  O1  UNL     1     -16.957  12.514  41.363  1.00  0.00    -0.353 OA
HETATM   23  C1  UNL     1     -17.500  11.213  41.344  1.00  0.00     0.210 C 
ENDBRANCH   1  22
TORSDOF 4
ENDMDL
MODEL 2
REMARK VINA RESULT: -6.570359255      2.505      5.685
REMARK  4 active torsions:
REMARK  status: ('A' for Active; 'I' for Inactive)
REMARK    1  A    between atoms: O1_2  and  C2_3 
REMARK    2  A    between atoms: C7_9  and  O2_10 
REMARK    3  A    between atoms: C13_16  and  C15_18 
REMARK    4  A    between atoms: C15_18  and  O3_19 
ROOT
HETATM    1  C2  UNL     1     -11.625  15.620  40.874  1.00  0.00     0.103 A 
HETATM    2  C3  UNL     1     -10.338  15.335  40.484  1.00  0.00     0.059 A 
HETATM    3  C4  UNL     1     -10.045  14.032  40.071  1.00  0.00     0.020 A 
HETATM    4 BR1  UNL     1      -8.258  13.612  39.526  1.00  0.00    -0.050 Br
HETATM    5  C5  UNL     1     -11.027  13.092  40.064  1.00  0.00    -0.031 A 
HETATM    6  C6  UNL     1     -12.359  13.341  40.453  1.00  0.00    -0.010 A 
HETATM    7  C7  UNL     1     -12.607  14.625  40.852  1.00  0.00     0.108 A 
HETATM    8  C9  UNL     1     -13.248  12.211  40.355  1.00  0.00     0.027 C 
HETATM    9  C10 UNL     1     -14.668  12.342  40.741  1.00  0.00     0.010 C 
HETATM   10  C11 UNL     1     -15.406  11.156  40.081  1.00  0.00     0.002 C 
HETATM   11  C12 UNL     1     -15.531  11.522  38.612  1.00  0.00     0.012 C 
HETATM   12  C13 UNL     1     -14.190  11.914  38.029  1.00  0.00    -0.018 C 
HETATM   13  C14 UNL     1     -14.093  13.334  37.600  1.00  0.00     0.018 C 
HETATM   14  C16 UNL     1     -13.108  11.496  39.022  1.00  0.00     0.004 C 
HETATM   15  C17 UNL     1     -11.745  11.538  38.454  1.00  0.00     0.011 C 
HETATM   16  C18 UNL     1     -10.744  11.707  39.611  1.00  0.00     0.041 C 
ENDROOT
BRANCH  12  17
HETATM   17  C15 UNL     1     -13.972  11.055  36.796  1.00  0.00     0.173 C 
BRANCH  17  18
HETATM   18  O3  UNL     1     -14.971  11.329  35.844  1.00  0.00    -0.400 OA
ATOM     19  H3  UNL     1     -15.088  10.576  35.277  1.00  0.00     0.209 HD
ENDBRANCH  17  18
ENDBRANCH  12  17
BRANCH   7  20
HETATM   20  O2  UNL     1     -13.836  15.003  41.253  1.00  0.00    -0.353 OA
HETATM   21  C8  UNL     1     -14.251  15.158  42.604  1.00  0.00     0.210 C 
ENDBRANCH   7  20
BRANCH   1  22
HETATM   22  O1  UNL     1     -11.918  16.901  41.281  1.00  0.00    -0.353 OA
HETATM   23  C1  UNL     1     -11.310  17.523  42.391  1.00  0.00     0.210 C 
ENDBRANCH   1  22
TORSDOF 4
ENDMDL
MODEL 3
REMARK VINA RESULT: -6.469351949      2.692      6.126
REMARK  4 active torsions:
REMARK  status: ('A' for Active; 'I' for Inactive)
REMARK    1  A    between atoms: O1_2  and  C2_3 
REMARK    2  A    between atoms: C7_9  and  O2_10 
REMARK    3  A    between atoms: C13_16  and  C15_18 
REMARK    4  A    between atoms: C15_18  and  O3_19 
ROOT
HETATM    1  C2  UNL     1     -10.258  13.295  40.601  1.00  0.00     0.103 A 
HETATM    2  C3  UNL     1     -10.457  14.076  41.715  1.00  0.00     0.059 A 
HETATM    3  C4  UNL     1     -11.730  14.615  41.926  1.00  0.00     0.020 A 
HETATM    4 BR1  UNL     1     -12.029  15.707  43.470  1.00  0.00    -0.050 Br
HETATM    5  C5  UNL     1     -12.725  14.357  41.037  1.00  0.00    -0.031 A 
HETATM    6  C6  UNL     1     -12.565  13.562  39.884  1.00  0.00    -0.010 A 
HETATM    7  C7  UNL     1     -11.308  13.054  39.710  1.00  0.00     0.108 A 
HETATM    8  C9  UNL     1     -13.751  13.398  39.082  1.00  0.00     0.027 C 
HETATM    9  C10 UNL     1     -13.712  12.593  37.844  1.00  0.00     0.010 C 
HETATM   10  C11 UNL     1     -15.177  12.232  37.516  1.00  0.00     0.002 C 
HETATM   11  C12 UNL     1     -15.554  11.133  38.494  1.00  0.00     0.012 C 
HETATM   12  C13 UNL     1     -15.243  11.538  39.919  1.00  0.00    -0.018 C 
HETATM   13  C14 UNL     1     -14.186  10.725  40.576  1.00  0.00     0.018 C 
HETATM   14  C16 UNL     1     -14.961  13.039  39.928  1.00  0.00     0.004 C 
HETATM   15  C17 UNL     1     -14.944  13.622  41.286  1.00  0.00     0.011 C 
HETATM   16  C18 UNL     1     -14.089  14.902  41.250  1.00  0.00     0.041 C 
ENDROOT
BRANCH  12  17
HETATM   17  C15 UNL     1     -16.518  11.354  40.723  1.00  0.00     0.173 C 
BRANCH  17  18
HETATM   18  O3  UNL     1     -16.773   9.982  40.900  1.00  0.00    -0.400 OA
ATOM     19  H3  UNL     1     -17.478   9.865  41.526  1.00  0.00     0.209 HD
ENDBRANCH  17  18
ENDBRANCH  12  17
BRANCH   7  20
HETATM   20  O2  UNL     1     -11.012  12.278  38.649  1.00  0.00    -0.353 OA
HETATM   21  C8  UNL     1     -10.953  10.858  38.658  1.00  0.00     0.210 C 
ENDBRANCH   7  20
BRANCH   1  22
HETATM   22  O1  UNL     1      -9.008  12.763  40.389  1.00  0.00    -0.353 OA
HETATM   23  C1  UNL     1      -8.058  13.331  39.515  1.00  0.00     0.210 C 
ENDBRANCH   1  22
TORSDOF 4
ENDMDL
MODEL 4
REMARK VINA RESULT: -6.467699119      2.496      5.997
REMARK  4 active torsions:
REMARK  status: ('A' for Active; 'I' for Inactive)
REMARK    1  A    between atoms: O1_2  and  C2_3 
REMARK    2  A    between atoms: C7_9  and  O2_10 
REMARK    3  A    between atoms: C13_16  and  C15_18 
REMARK    4  A    between atoms: C15_18  and  O3_19 
ROOT
HETATM    1  C2  UNL     1     -10.842  14.185  41.600  1.00  0.00     0.103 A 
HETATM    2  C3  UNL     1     -11.360  14.802  42.714  1.00  0.00     0.059 A 
HETATM    3  C4  UNL     1     -12.732  15.069  42.743  1.00  0.00     0.020 A 
HETATM    4 BR1  UNL     1     -13.475  15.929  44.284  1.00  0.00    -0.050 Br
HETATM    5  C5  UNL     1     -13.509  14.717  41.686  1.00  0.00    -0.031 A 
HETATM    6  C6  UNL     1     -13.021  14.082  40.526  1.00  0.00    -0.010 A 
HETATM    7  C7  UNL     1     -11.675  13.838  40.531  1.00  0.00     0.108 A 
HETATM    8  C9  UNL     1     -14.014  13.778  39.528  1.00  0.00     0.027 C 
HETATM    9  C10 UNL     1     -13.627  13.119  38.264  1.00  0.00     0.010 C 
HETATM   10  C11 UNL     1     -14.924  12.524  37.671  1.00  0.00     0.002 C 
HETATM   11  C12 UNL     1     -15.216  11.283  38.499  1.00  0.00     0.012 C 
HETATM   12  C13 UNL     1     -15.211  11.598  39.979  1.00  0.00    -0.018 C 
HETATM   13  C14 UNL     1     -14.124  10.938  40.748  1.00  0.00     0.018 C 
HETATM   14  C16 UNL     1     -15.240  13.117  40.134  1.00  0.00     0.004 C 
HETATM   15  C17 UNL     1     -15.547  13.558  41.511  1.00  0.00     0.011 C 
HETATM   16  C18 UNL     1     -14.971  14.973  41.703  1.00  0.00     0.041 C 
ENDROOT
BRANCH  12  17
HETATM   17  C15 UNL     1     -16.530  11.100  40.545  1.00  0.00     0.173 C 
BRANCH  17  18
HETATM   18  O3  UNL     1     -16.400   9.755  40.934  1.00  0.00    -0.400 OA
ATOM     19  H3  UNL     1     -15.494   9.572  41.154  1.00  0.00     0.209 HD
ENDBRANCH  17  18
ENDBRANCH  12  17
BRANCH   7  20
HETATM   20  O2  UNL     1     -11.072  13.239  39.487  1.00  0.00    -0.353 OA
HETATM   21  C8  UNL     1     -10.680  11.874  39.434  1.00  0.00     0.210 C 
ENDBRANCH   7  20
BRANCH   1  22
HETATM   22  O1  UNL     1      -9.493  13.919  41.565  1.00  0.00    -0.353 OA
HETATM   23  C1  UNL     1      -8.512  14.904  41.322  1.00  0.00     0.210 C 
ENDBRANCH   1  22
TORSDOF 4
ENDMDL
MODEL 5
REMARK VINA RESULT: -6.462421340      2.748      4.287
REMARK  4 active torsions:
REMARK  status: ('A' for Active; 'I' for Inactive)
REMARK    1  A    between atoms: O1_2  and  C2_3 
REMARK    2  A    between atoms: C7_9  and  O2_10 
REMARK    3  A    between atoms: C13_16  and  C15_18 
REMARK    4  A    between atoms: C15_18  and  O3_19 
ROOT
HETATM    1  C2  UNL     1     -10.342  12.125  39.897  1.00  0.00     0.103 A 
HETATM    2  C3  UNL     1      -9.224  12.883  39.637  1.00  0.00     0.059 A 
HETATM    3  C4  UNL     1      -9.336  14.274  39.718  1.00  0.00     0.020 A 
HETATM    4 BR1  UNL     1      -7.794  15.350  39.360  1.00  0.00    -0.050 Br
HETATM    5  C5  UNL     1     -10.530  14.835  40.048  1.00  0.00    -0.031 A 
HETATM    6  C6  UNL     1     -11.699  14.097  40.323  1.00  0.00    -0.010 A 
HETATM    7  C7  UNL     1     -11.552  12.740  40.232  1.00  0.00     0.108 A 
HETATM    8  C9  UNL     1     -12.854  14.884  40.670  1.00  0.00     0.027 C 
HETATM    9  C10 UNL     1     -14.143  14.227  40.972  1.00  0.00     0.010 C 
HETATM   10  C11 UNL     1     -14.987  15.266  41.744  1.00  0.00     0.002 C 
HETATM   11  C12 UNL     1     -14.407  15.298  43.148  1.00  0.00     0.012 C 
HETATM   12  C13 UNL     1     -12.909  15.508  43.118  1.00  0.00    -0.018 C 
HETATM   13  C14 UNL     1     -12.113  14.359  43.626  1.00  0.00     0.018 C 
HETATM   14  C16 UNL     1     -12.526  15.945  41.706  1.00  0.00     0.004 C 
HETATM   15  C17 UNL     1     -11.151  16.477  41.611  1.00  0.00     0.011 C 
HETATM   16  C18 UNL     1     -10.667  16.308  40.159  1.00  0.00     0.041 C 
ENDROOT
BRANCH  12  17
HETATM   17  C15 UNL     1     -12.607  16.696  44.013  1.00  0.00     0.173 C 
BRANCH  17  18
HETATM   18  O3  UNL     1     -12.906  16.371  45.349  1.00  0.00    -0.400 OA
ATOM     19  H3  UNL     1     -12.123  16.452  45.880  1.00  0.00     0.209 HD
ENDBRANCH  17  18
ENDBRANCH  12  17
BRANCH   7  20
HETATM   20  O2  UNL     1     -12.587  11.912  40.466  1.00  0.00    -0.353 OA
HETATM   21  C8  UNL     1     -13.370  11.268  39.470  1.00  0.00     0.210 C 
ENDBRANCH   7  20
BRANCH   1  22
HETATM   22  O1  UNL     1     -10.237  10.756  39.818  1.00  0.00    -0.353 OA
HETATM   23  C1  UNL     1      -9.983  10.062  38.616  1.00  0.00     0.210 C 
ENDBRANCH   1  22
TORSDOF 4
ENDMDL
