MODEL 1
REMARK VINA RESULT: -7.014808874      0.000      0.000
REMARK  5 active torsions:
REMARK  status: ('A' for Active; 'I' for Inactive)
REMARK    1  A    between atoms: C2_2  and  C4_4 
REMARK    2  A    between atoms: C4_4  and  C5_6 
REMARK    3  A    between atoms: C5_6  and  N1_8 
REMARK    4  A    between atoms: N1_8  and  C7_10 
REMARK    5  A    between atoms: C7_10  and  C8_12 
ROOT
HETATM    1  C8  UNL     1     -11.208  15.143  40.862  1.00  0.00     0.119 C 
HETATM    2  C9  UNL     1     -10.345  15.845  39.849  1.00  0.00     0.054 C 
HETATM    3  O1  UNL     1     -12.501  15.670  40.736  1.00  0.00    -0.343 OA
HETATM    4  C10 UNL     1     -12.570  16.933  41.318  1.00  0.00     0.267 C 
HETATM    5  O2  UNL     1     -11.309  17.520  41.512  1.00  0.00    -0.350 OA
HETATM    6  C11 UNL     1     -10.649  16.849  42.552  1.00  0.00     0.067 C 
HETATM    7  C12 UNL     1      -9.184  17.255  42.608  1.00  0.00     0.046 C 
HETATM    8  C13 UNL     1     -11.270  17.415  43.795  1.00  0.00     0.039 C 
HETATM    9  C14 UNL     1     -12.751  17.616  43.729  1.00  0.00     0.013 C 
HETATM   10  C15 UNL     1     -13.419  16.944  42.560  1.00  0.00     0.049 C 
HETATM   11  C16 UNL     1     -14.035  15.612  42.880  1.00  0.00    -0.040 C 
HETATM   12  C17 UNL     1     -14.785  15.805  44.209  1.00  0.00     0.015 C 
HETATM   13  C18 UNL     1     -15.146  15.363  41.867  1.00  0.00     0.015 C 
HETATM   14  C19 UNL     1     -13.133  14.449  42.941  1.00  0.00     0.010 C 
HETATM   15  C20 UNL     1     -11.714  14.693  43.270  1.00  0.00     0.012 C 
HETATM   16  C21 UNL     1     -10.843  15.379  42.304  1.00  0.00     0.061 C 
ENDROOT
BRANCH   1  17
HETATM   17  C7  UNL     1     -11.164  13.719  40.466  1.00  0.00     0.109 C 
HETATM   18  S1  UNL     1      -9.742  12.951  40.369  1.00  0.00    -0.062 SA
BRANCH  17  19
HETATM   19  N1  UNL     1     -12.361  13.038  40.137  1.00  0.00    -0.375 N 
ATOM     20  H1  UNL     1     -13.241  13.478  40.405  1.00  0.00     0.160 HD
BRANCH  19  21
HETATM   21  C5  UNL     1     -12.435  11.765  39.451  1.00  0.00     0.112 C 
HETATM   22  C6  UNL     1     -13.346  10.774  40.141  1.00  0.00     0.035 C 
BRANCH  21  23
HETATM   23  C4  UNL     1     -12.703  11.886  37.992  1.00  0.00     0.195 C 
HETATM   24  F1  UNL     1     -11.788  11.133  37.273  1.00  0.00    -0.247 F 
BRANCH  23  25
HETATM   25  C2  UNL     1     -14.074  11.377  37.596  1.00  0.00     0.013 C 
HETATM   26  C1  UNL     1     -14.064  10.690  36.265  1.00  0.00     0.012 C 
HETATM   27  C3  UNL     1     -14.961  12.606  37.470  1.00  0.00     0.012 C 
ENDBRANCH  23  25
ENDBRANCH  21  23
ENDBRANCH  19  21
ENDBRANCH  17  19
ENDBRANCH   1  17
TORSDOF 5
ENDMDL
MODEL 2
REMARK VINA RESULT: -6.970471937      2.173      3.950
REMARK  5 active torsions:
REMARK  status: ('A' for Active; 'I' for Inactive)
REMARK    1  A    between atoms: C2_2  and  C4_4 
REMARK    2  A    between atoms: C4_4  and  C5_6 
REMARK    3  A    between atoms: C5_6  and  N1_8 
REMARK    4  A    between atoms: N1_8  and  C7_10 
REMARK    5  A    between atoms: C7_10  and  C8_12 
ROOT
HETATM    1  C8  UNL     1     -12.002  15.388  42.335  1.00  0.00     0.119 C 
HETATM    2  C9  UNL     1     -12.477  15.013  43.712  1.00  0.00     0.054 C 
HETATM    3  O1  UNL     1     -11.175  14.348  41.889  1.00  0.00    -0.343 OA
HETATM    4  C10 UNL     1      -9.930  14.417  42.509  1.00  0.00     0.267 C 
HETATM    5  O2  UNL     1      -9.935  15.208  43.669  1.00  0.00    -0.350 OA
HETATM    6  C11 UNL     1     -10.057  16.557  43.300  1.00  0.00     0.067 C 
HETATM    7  C12 UNL     1     -10.355  17.421  44.516  1.00  0.00     0.046 C 
HETATM    8  C13 UNL     1      -8.671  16.936  42.867  1.00  0.00     0.039 C 
HETATM    9  C14 UNL     1      -7.955  15.903  42.056  1.00  0.00     0.013 C 
HETATM   10  C15 UNL     1      -8.833  14.791  41.549  1.00  0.00     0.049 C 
HETATM   11  C16 UNL     1      -9.305  14.969  40.135  1.00  0.00    -0.040 C 
HETATM   12  C17 UNL     1      -8.073  15.424  39.335  1.00  0.00     0.015 C 
HETATM   13  C18 UNL     1      -9.614  13.586  39.574  1.00  0.00     0.015 C 
HETATM   14  C19 UNL     1     -10.447  15.873  39.915  1.00  0.00     0.010 C 
HETATM   15  C20 UNL     1     -10.675  16.949  40.900  1.00  0.00     0.012 C 
HETATM   16  C21 UNL     1     -11.137  16.618  42.256  1.00  0.00     0.061 C 
ENDROOT
BRANCH   1  17
HETATM   17  C7  UNL     1     -13.237  15.480  41.527  1.00  0.00     0.109 C 
HETATM   18  S1  UNL     1     -14.244  16.731  41.730  1.00  0.00    -0.062 SA
BRANCH  17  19
HETATM   19  N1  UNL     1     -13.556  14.456  40.601  1.00  0.00    -0.375 N 
ATOM     20  H1  UNL     1     -13.208  14.560  39.648  1.00  0.00     0.160 HD
BRANCH  19  21
HETATM   21  C5  UNL     1     -14.338  13.275  40.901  1.00  0.00     0.112 C 
HETATM   22  C6  UNL     1     -15.771  13.591  41.265  1.00  0.00     0.035 C 
BRANCH  21  23
HETATM   23  C4  UNL     1     -14.218  12.202  39.876  1.00  0.00     0.195 C 
HETATM   24  F1  UNL     1     -15.432  11.553  39.719  1.00  0.00    -0.247 F 
BRANCH  23  25
HETATM   25  C2  UNL     1     -13.841  12.730  38.506  1.00  0.00     0.013 C 
HETATM   26  C1  UNL     1     -14.956  12.590  37.515  1.00  0.00     0.012 C 
HETATM   27  C3  UNL     1     -12.687  11.865  38.023  1.00  0.00     0.012 C 
ENDBRANCH  23  25
ENDBRANCH  21  23
ENDBRANCH  19  21
ENDBRANCH  17  19
ENDBRANCH   1  17
TORSDOF 5
ENDMDL
MODEL 3
REMARK VINA RESULT: -6.914229652      1.064      1.384
REMARK  5 active torsions:
REMARK  status: ('A' for Active; 'I' for Inactive)
REMARK    1  A    between atoms: C2_2  and  C4_4 
REMARK    2  A    between atoms: C4_4  and  C5_6 
REMARK    3  A    between atoms: C5_6  and  N1_8 
REMARK    4  A    between atoms: N1_8  and  C7_10 
REMARK    5  A    between atoms: C7_10  and  C8_12 
ROOT
HETATM    1  C8  UNL     1     -10.828  15.141  40.646  1.00  0.00     0.119 C 
HETATM    2  C9  UNL     1     -10.006  15.853  39.608  1.00  0.00     0.054 C 
HETATM    3  O1  UNL     1     -12.085  15.762  40.673  1.00  0.00    -0.343 OA
HETATM    4  C10 UNL     1     -12.009  16.982  41.341  1.00  0.00     0.267 C 
HETATM    5  O2  UNL     1     -10.696  17.465  41.459  1.00  0.00    -0.350 OA
HETATM    6  C11 UNL     1     -10.001  16.678  42.388  1.00  0.00     0.067 C 
HETATM    7  C12 UNL     1      -8.511  16.977  42.337  1.00  0.00     0.046 C 
HETATM    8  C13 UNL     1     -10.469  17.194  43.717  1.00  0.00     0.039 C 
HETATM    9  C14 UNL     1     -11.932  17.499  43.799  1.00  0.00     0.013 C 
HETATM   10  C15 UNL     1     -12.745  16.961  42.654  1.00  0.00     0.049 C 
HETATM   11  C16 UNL     1     -13.429  15.655  42.939  1.00  0.00    -0.040 C 
HETATM   12  C17 UNL     1     -14.046  15.801  44.341  1.00  0.00     0.015 C 
HETATM   13  C18 UNL     1     -14.639  15.556  42.017  1.00  0.00     0.015 C 
HETATM   14  C19 UNL     1     -12.615  14.432  42.841  1.00  0.00     0.010 C 
HETATM   15  C20 UNL     1     -11.159  14.553  43.056  1.00  0.00     0.012 C 
HETATM   16  C21 UNL     1     -10.325  15.246  42.062  1.00  0.00     0.061 C 
ENDROOT
BRANCH   1  17
HETATM   17  C7  UNL     1     -10.925  13.749  40.155  1.00  0.00     0.109 C 
HETATM   18  S1  UNL     1      -9.631  12.779  40.216  1.00  0.00    -0.062 SA
BRANCH  17  19
HETATM   19  N1  UNL     1     -12.139  13.277  39.599  1.00  0.00    -0.375 N 
ATOM     20  H1  UNL     1     -12.508  13.772  38.787  1.00  0.00     0.160 HD
BRANCH  19  21
HETATM   21  C5  UNL     1     -12.898  12.146  40.092  1.00  0.00     0.112 C 
HETATM   22  C6  UNL     1     -14.379  12.432  40.203  1.00  0.00     0.035 C 
BRANCH  21  23
HETATM   23  C4  UNL     1     -12.600  10.871  39.383  1.00  0.00     0.195 C 
HETATM   24  F1  UNL     1     -13.719  10.053  39.380  1.00  0.00    -0.247 F 
BRANCH  23  25
HETATM   25  C2  UNL     1     -12.222  11.074  37.929  1.00  0.00     0.013 C 
HETATM   26  C1  UNL     1     -13.365  10.803  37.000  1.00  0.00     0.012 C 
HETATM   27  C3  UNL     1     -11.135  10.053  37.630  1.00  0.00     0.012 C 
ENDBRANCH  23  25
ENDBRANCH  21  23
ENDBRANCH  19  21
ENDBRANCH  17  19
ENDBRANCH   1  17
TORSDOF 5
ENDMDL
MODEL 4
REMARK VINA RESULT: -6.826249225      1.390      1.804
REMARK  5 active torsions:
REMARK  status: ('A' for Active; 'I' for Inactive)
REMARK    1  A    between atoms: C2_2  and  C4_4 
REMARK    2  A    between atoms: C4_4  and  C5_6 
REMARK    3  A    between atoms: C5_6  and  N1_8 
REMARK    4  A    between atoms: N1_8  and  C7_10 
REMARK    5  A    between atoms: C7_10  and  C8_12 
ROOT
HETATM    1  C8  UNL     1     -10.724  15.151  40.612  1.00  0.00     0.119 C 
HETATM    2  C9  UNL     1      -9.883  15.628  39.461  1.00  0.00     0.054 C 
HETATM    3  O1  UNL     1     -11.707  16.125  40.835  1.00  0.00    -0.343 OA
HETATM    4  C10 UNL     1     -11.160  17.228  41.486  1.00  0.00     0.267 C 
HETATM    5  O2  UNL     1      -9.759  17.280  41.399  1.00  0.00    -0.350 OA
HETATM    6  C11 UNL     1      -9.214  16.271  42.208  1.00  0.00     0.067 C 
HETATM    7  C12 UNL     1      -7.729  16.101  41.926  1.00  0.00     0.046 C 
HETATM    8  C13 UNL     1      -9.298  16.838  43.594  1.00  0.00     0.039 C 
HETATM    9  C14 UNL     1     -10.565  17.572  43.903  1.00  0.00     0.013 C 
HETATM   10  C15 UNL     1     -11.665  17.368  42.897  1.00  0.00     0.049 C 
HETATM   11  C16 UNL     1     -12.670  16.321  43.282  1.00  0.00    -0.040 C 
HETATM   12  C17 UNL     1     -12.998  16.579  44.764  1.00  0.00     0.015 C 
HETATM   13  C18 UNL     1     -13.972  16.644  42.559  1.00  0.00     0.015 C 
HETATM   14  C19 UNL     1     -12.300  14.914  43.057  1.00  0.00     0.010 C 
HETATM   15  C20 UNL     1     -10.863  14.573  43.042  1.00  0.00     0.012 C 
HETATM   16  C21 UNL     1     -10.011  15.026  41.933  1.00  0.00     0.061 C 
ENDROOT
BRANCH   1  17
HETATM   17  C7  UNL     1     -11.319  13.883  40.139  1.00  0.00     0.109 C 
HETATM   18  S1  UNL     1     -10.380  12.583  39.917  1.00  0.00    -0.062 SA
BRANCH  17  19
HETATM   19  N1  UNL     1     -12.703  13.815  39.846  1.00  0.00    -0.375 N 
ATOM     20  H1  UNL     1     -13.089  14.530  39.230  1.00  0.00     0.160 HD
BRANCH  19  21
HETATM   21  C5  UNL     1     -13.614  12.809  40.352  1.00  0.00     0.112 C 
HETATM   22  C6  UNL     1     -14.857  13.400  40.980  1.00  0.00     0.035 C 
BRANCH  21  23
HETATM   23  C4  UNL     1     -13.912  11.726  39.375  1.00  0.00     0.195 C 
HETATM   24  F1  UNL     1     -15.215  11.282  39.535  1.00  0.00    -0.247 F 
BRANCH  23  25
HETATM   25  C2  UNL     1     -13.793  12.178  37.933  1.00  0.00     0.013 C 
HETATM   26  C1  UNL     1     -15.124  12.270  37.254  1.00  0.00     0.012 C 
HETATM   27  C3  UNL     1     -12.987  11.102  37.219  1.00  0.00     0.012 C 
ENDBRANCH  23  25
ENDBRANCH  21  23
ENDBRANCH  19  21
ENDBRANCH  17  19
ENDBRANCH   1  17
TORSDOF 5
ENDMDL
MODEL 5
REMARK VINA RESULT: -6.810832236      2.422      4.229
REMARK  5 active torsions:
REMARK  status: ('A' for Active; 'I' for Inactive)
REMARK    1  A    between atoms: C2_2  and  C4_4 
REMARK    2  A    between atoms: C4_4  and  C5_6 
REMARK    3  A    between atoms: C5_6  and  N1_8 
REMARK    4  A    between atoms: N1_8  and  C7_10 
REMARK    5  A    between atoms: C7_10  and  C8_12 
ROOT
HETATM    1  C8  UNL     1     -11.974  15.220  42.455  1.00  0.00     0.119 C 
HETATM    2  C9  UNL     1     -12.298  15.148  43.921  1.00  0.00     0.054 C 
HETATM    3  O1  UNL     1     -11.099  14.161  42.175  1.00  0.00    -0.343 OA
HETATM    4  C10 UNL     1      -9.817  14.454  42.634  1.00  0.00     0.267 C 
HETATM    5  O2  UNL     1      -9.795  15.494  43.578  1.00  0.00    -0.350 OA
HETATM    6  C11 UNL     1     -10.064  16.707  42.928  1.00  0.00     0.067 C 
HETATM    7  C12 UNL     1     -10.334  17.811  43.939  1.00  0.00     0.046 C 
HETATM    8  C13 UNL     1      -8.758  17.064  42.281  1.00  0.00     0.039 C 
HETATM    9  C14 UNL     1      -8.025  15.919  41.658  1.00  0.00     0.013 C 
HETATM   10  C15 UNL     1      -8.841  14.664  41.509  1.00  0.00     0.049 C 
HETATM   11  C16 UNL     1      -9.443  14.475  40.146  1.00  0.00    -0.040 C 
HETATM   12  C17 UNL     1      -8.326  14.809  39.143  1.00  0.00     0.015 C 
HETATM   13  C18 UNL     1      -9.676  12.981  39.949  1.00  0.00     0.015 C 
HETATM   14  C19 UNL     1     -10.674  15.225  39.843  1.00  0.00     0.010 C 
HETATM   15  C20 UNL     1     -10.912  16.485  40.576  1.00  0.00     0.012 C 
HETATM   16  C21 UNL     1     -11.229  16.451  42.011  1.00  0.00     0.061 C 
ENDROOT
BRANCH   1  17
HETATM   17  C7  UNL     1     -13.275  15.039  41.776  1.00  0.00     0.109 C 
HETATM   18  S1  UNL     1     -14.300  16.286  41.649  1.00  0.00    -0.062 SA
BRANCH  17  19
HETATM   19  N1  UNL     1     -13.639  13.768  41.269  1.00  0.00    -0.375 N 
ATOM     20  H1  UNL     1     -13.425  12.953  41.845  1.00  0.00     0.160 HD
BRANCH  19  21
HETATM   21  C5  UNL     1     -14.291  13.533  39.998  1.00  0.00     0.112 C 
HETATM   22  C6  UNL     1     -13.331  13.095  38.913  1.00  0.00     0.035 C 
BRANCH  21  23
HETATM   23  C4  UNL     1     -15.497  12.665  40.095  1.00  0.00     0.195 C 
HETATM   24  F1  UNL     1     -15.123  11.336  40.202  1.00  0.00    -0.247 F 
BRANCH  23  25
HETATM   25  C2  UNL     1     -16.347  12.965  41.314  1.00  0.00     0.013 C 
HETATM   26  C1  UNL     1     -17.231  11.815  41.688  1.00  0.00     0.012 C 
HETATM   27  C3  UNL     1     -17.247  14.128  40.925  1.00  0.00     0.012 C 
ENDBRANCH  23  25
ENDBRANCH  21  23
ENDBRANCH  19  21
ENDBRANCH  17  19
ENDBRANCH   1  17
TORSDOF 5
ENDMDL
