MODEL 1
REMARK VINA RESULT: -7.978121485      0.000      0.000
REMARK  16 active torsions:
REMARK  status: ('A' for Active; 'I' for Inactive)
REMARK    1  A    between atoms: N1_2  and  C3_4 
REMARK    2  A    between atoms: N1_2  and  C13_28 
REMARK    3  A    between atoms: C3_4  and  C4_5 
REMARK    4  A    between atoms: C4_5  and  C5_6 
REMARK    5  A    between atoms: C5_6  and  N2_7 
REMARK    6  A    between atoms: N2_7  and  C6_10 
REMARK    7  A    between atoms: C6_10  and  C7_11 
REMARK    8  A    between atoms: C7_11  and  N3_12 
REMARK    9  A    between atoms: N3_12  and  C8_13 
REMARK   10  A    between atoms: N3_12  and  C9_15 
REMARK   11  A    between atoms: C11_20  and  N6_21 
REMARK   12  A    between atoms: C13_28  and  C14_29 
REMARK   13  A    between atoms: C17_32  and  O3_33 
REMARK   14  A    between atoms: O3_33  and  C18_34 
REMARK   15  A    between atoms: C18_34  and  C19_35 
REMARK   16  A    between atoms: C22_38  and  C23_39 
ROOT
HETATM    1  C3  UNL     1      20.255   1.584  19.224  1.00  0.00     0.238 C 
ENDROOT
BRANCH   1   2
HETATM    2  N1  UNL     1      20.745   0.516  18.433  1.00  0.00    -0.071 N 
HETATM    3  C1  UNL     1      19.730   0.047  17.463  1.00  0.00     0.272 C 
HETATM    4  C2  UNL     1      21.169  -0.654  19.143  1.00  0.00     0.272 C 
BRANCH   2   5
HETATM    5  C13 UNL     1      21.834   0.968  17.574  1.00  0.00     0.275 C 
BRANCH   5   6
HETATM    6  C14 UNL     1      22.422   2.259  17.876  1.00  0.00    -0.032 A 
HETATM    7  C15 UNL     1      22.074   3.379  17.127  1.00  0.00     0.011 A 
HETATM    8  C16 UNL     1      22.642   4.614  17.390  1.00  0.00     0.037 A 
HETATM    9  C17 UNL     1      23.567   4.792  18.394  1.00  0.00     0.069 A 
HETATM   10  C26 UNL     1      23.921   3.692  19.141  1.00  0.00     0.037 A 
HETATM   11  C27 UNL     1      23.347   2.445  18.876  1.00  0.00     0.011 A 
BRANCH   9  12
HETATM   12  O3  UNL     1      24.161   6.012  18.687  1.00  0.00    -0.347 OA
BRANCH  12  13
HETATM   13  C18 UNL     1      24.499   6.289  20.033  1.00  0.00     0.214 C 
BRANCH  13  14
HETATM   14  C19 UNL     1      24.058   7.698  20.310  1.00  0.00    -0.034 A 
HETATM   15  C20 UNL     1      24.588   8.770  19.635  1.00  0.00     0.010 A 
HETATM   16  C21 UNL     1      24.164  10.078  19.896  1.00  0.00     0.013 A 
HETATM   17  C22 UNL     1      23.189  10.323  20.851  1.00  0.00    -0.021 A 
HETATM   18  C24 UNL     1      22.673   9.232  21.515  1.00  0.00     0.013 A 
HETATM   19  C25 UNL     1      23.092   7.929  21.259  1.00  0.00     0.010 A 
BRANCH  17  20
HETATM   20  C23 UNL     1      22.760  11.688  21.112  1.00  0.00     0.091 C 
HETATM   21  N8  UNL     1      23.571  12.681  21.092  1.00  0.00    -0.407 N 
ATOM     22  H82 UNL     1      24.551  12.489  20.884  1.00  0.00     0.155 HD
ATOM     23  H81 UNL     1      23.270  13.639  21.275  1.00  0.00     0.155 HD
ENDBRANCH  17  20
ENDBRANCH  13  14
ENDBRANCH  12  13
ENDBRANCH   9  12
ENDBRANCH   5   6
ENDBRANCH   2   5
ENDBRANCH   1   2
BRANCH   1  24
HETATM   24  C4  UNL     1      18.951   2.192  18.901  1.00  0.00     0.055 C 
BRANCH  24  25
HETATM   25  C5  UNL     1      18.805   3.665  18.995  1.00  0.00     0.234 C 
BRANCH  25  26
HETATM   26  N2  UNL     1      17.817   4.223  18.130  1.00  0.00    -0.074 N 
ATOM     27  H22 UNL     1      18.243   4.881  17.478  1.00  0.00     0.277 HD
ATOM     28  H21 UNL     1      17.480   3.521  17.471  1.00  0.00     0.277 HD
BRANCH  26  29
HETATM   29  C6  UNL     1      16.733   4.828  18.810  1.00  0.00     0.252 C 
BRANCH  29  30
HETATM   30  C7  UNL     1      17.029   5.093  20.255  1.00  0.00     0.159 C 
BRANCH  30  31
HETATM   31  N3  UNL     1      16.695   6.487  20.584  1.00  0.00    -0.316 N 
BRANCH  31  32
HETATM   32  C8  UNL     1      15.529   7.026  19.987  1.00  0.00     0.356 C 
HETATM   33  O1  UNL     1      15.309   8.265  19.973  1.00  0.00    -0.283 OA
ENDBRANCH  31  32
BRANCH  31  34
HETATM   34  C9  UNL     1      17.489   7.271  21.436  1.00  0.00     0.148 A 
HETATM   35  C10 UNL     1      17.259   7.311  22.790  1.00  0.00     0.164 A 
HETATM   36  N4  UNL     1      16.208   6.552  23.337  1.00  0.00    -0.080 NA
HETATM   37  N5  UNL     1      18.080   8.096  23.526  1.00  0.00    -0.177 N 
HETATM   38  C11 UNL     1      19.075   8.807  22.974  1.00  0.00     0.680 A 
ATOM     39  H5  UNL     1      17.937   8.149  24.535  1.00  0.00     0.185 HD
HETATM   40  N7  UNL     1      19.298   8.764  21.629  1.00  0.00    -0.154 N 
HETATM   41  C12 UNL     1      18.521   8.005  20.841  1.00  0.00     0.290 A 
ATOM     42  H7  UNL     1      20.058   9.310  21.221  1.00  0.00     0.187 HD
HETATM   43  O2  UNL     1      18.686   7.928  19.585  1.00  0.00    -0.265 OA
BRANCH  38  44
HETATM   44  N6  UNL     1      19.863   9.560  23.667  1.00  0.00    -0.234 N 
ATOM     45  H62 UNL     1      20.357  10.293  23.159  1.00  0.00     0.174 HD
ATOM     46  H61 UNL     1      19.995   9.442  24.672  1.00  0.00     0.174 HD
ENDBRANCH  38  44
ENDBRANCH  31  34
ENDBRANCH  30  31
ENDBRANCH  29  30
ENDBRANCH  26  29
ENDBRANCH  25  26
ENDBRANCH  24  25
ENDBRANCH   1  24
TORSDOF 16
ENDMDL
MODEL 2
REMARK VINA RESULT: -7.955184074      2.679      4.738
REMARK  16 active torsions:
REMARK  status: ('A' for Active; 'I' for Inactive)
REMARK    1  A    between atoms: N1_2  and  C3_4 
REMARK    2  A    between atoms: N1_2  and  C13_28 
REMARK    3  A    between atoms: C3_4  and  C4_5 
REMARK    4  A    between atoms: C4_5  and  C5_6 
REMARK    5  A    between atoms: C5_6  and  N2_7 
REMARK    6  A    between atoms: N2_7  and  C6_10 
REMARK    7  A    between atoms: C6_10  and  C7_11 
REMARK    8  A    between atoms: C7_11  and  N3_12 
REMARK    9  A    between atoms: N3_12  and  C8_13 
REMARK   10  A    between atoms: N3_12  and  C9_15 
REMARK   11  A    between atoms: C11_20  and  N6_21 
REMARK   12  A    between atoms: C13_28  and  C14_29 
REMARK   13  A    between atoms: C17_32  and  O3_33 
REMARK   14  A    between atoms: O3_33  and  C18_34 
REMARK   15  A    between atoms: C18_34  and  C19_35 
REMARK   16  A    between atoms: C22_38  and  C23_39 
ROOT
HETATM    1  C3  UNL     1      22.183   6.008  18.617  1.00  0.00     0.238 C 
ENDROOT
BRANCH   1   2
HETATM    2  N1  UNL     1      23.489   5.462  18.671  1.00  0.00    -0.071 N 
HETATM    3  C1  UNL     1      24.269   5.796  17.458  1.00  0.00     0.272 C 
HETATM    4  C2  UNL     1      23.574   4.038  18.803  1.00  0.00     0.272 C 
BRANCH   2   5
HETATM    5  C13 UNL     1      24.265   6.082  19.740  1.00  0.00     0.275 C 
BRANCH   5   6
HETATM    6  C14 UNL     1      23.915   7.440  20.108  1.00  0.00    -0.032 A 
HETATM    7  C15 UNL     1      24.528   8.516  19.473  1.00  0.00     0.011 A 
HETATM    8  C16 UNL     1      24.219   9.819  19.828  1.00  0.00     0.037 A 
HETATM    9  C17 UNL     1      23.302  10.109  20.812  1.00  0.00     0.069 A 
HETATM   10  C26 UNL     1      22.689   9.053  21.447  1.00  0.00     0.037 A 
HETATM   11  C27 UNL     1      23.000   7.738  21.090  1.00  0.00     0.011 A 
BRANCH   9  12
HETATM   12  O3  UNL     1      22.967  11.400  21.198  1.00  0.00    -0.347 OA
BRANCH  12  13
HETATM   13  C18 UNL     1      23.884  12.121  22.000  1.00  0.00     0.214 C 
BRANCH  13  14
HETATM   14  C19 UNL     1      23.096  12.714  23.133  1.00  0.00    -0.034 A 
HETATM   15  C20 UNL     1      23.494  13.865  23.768  1.00  0.00     0.010 A 
HETATM   16  C21 UNL     1      22.748  14.414  24.818  1.00  0.00     0.013 A 
HETATM   17  C22 UNL     1      21.579  13.801  25.243  1.00  0.00    -0.021 A 
HETATM   18  C24 UNL     1      21.201  12.649  24.592  1.00  0.00     0.013 A 
HETATM   19  C25 UNL     1      21.940  12.099  23.548  1.00  0.00     0.010 A 
BRANCH  17  20
HETATM   20  C23 UNL     1      20.816  14.383  26.337  1.00  0.00     0.091 C 
HETATM   21  N8  UNL     1      20.560  13.741  27.417  1.00  0.00    -0.407 N 
ATOM     22  H82 UNL     1      20.912  12.787  27.496  1.00  0.00     0.155 HD
ATOM     23  H81 UNL     1      20.025  14.149  28.184  1.00  0.00     0.155 HD
ENDBRANCH  17  20
ENDBRANCH  13  14
ENDBRANCH  12  13
ENDBRANCH   9  12
ENDBRANCH   5   6
ENDBRANCH   2   5
ENDBRANCH   1   2
BRANCH   1  24
HETATM   24  C4  UNL     1      21.217   5.490  17.633  1.00  0.00     0.055 C 
BRANCH  24  25
HETATM   25  C5  UNL     1      20.143   4.577  18.095  1.00  0.00     0.234 C 
BRANCH  25  26
HETATM   26  N2  UNL     1      18.834   4.916  17.639  1.00  0.00    -0.074 N 
ATOM     27  H22 UNL     1      18.697   5.927  17.661  1.00  0.00     0.277 HD
ATOM     28  H21 UNL     1      18.751   4.752  16.636  1.00  0.00     0.277 HD
BRANCH  26  29
HETATM   29  C6  UNL     1      17.793   4.258  18.338  1.00  0.00     0.252 C 
BRANCH  29  30
HETATM   30  C7  UNL     1      17.871   4.462  19.821  1.00  0.00     0.159 C 
BRANCH  30  31
HETATM   31  N3  UNL     1      17.188   5.712  20.188  1.00  0.00    -0.316 N 
BRANCH  31  32
HETATM   32  C8  UNL     1      15.850   5.865  19.748  1.00  0.00     0.356 C 
HETATM   33  O1  UNL     1      15.201   6.920  19.969  1.00  0.00    -0.283 OA
ENDBRANCH  31  32
BRANCH  31  34
HETATM   34  C9  UNL     1      17.818   6.727  20.925  1.00  0.00     0.148 A 
HETATM   35  C10 UNL     1      18.531   7.723  20.303  1.00  0.00     0.164 A 
HETATM   36  N4  UNL     1      18.633   7.729  18.900  1.00  0.00    -0.080 NA
HETATM   37  N5  UNL     1      19.100   8.656  21.101  1.00  0.00    -0.177 N 
HETATM   38  C11 UNL     1      18.982   8.624  22.437  1.00  0.00     0.680 A 
ATOM     39  H5  UNL     1      19.637   9.410  20.672  1.00  0.00     0.185 HD
HETATM   40  N7  UNL     1      18.273   7.632  23.049  1.00  0.00    -0.154 N 
HETATM   41  C12 UNL     1      17.683   6.675  22.317  1.00  0.00     0.290 A 
ATOM     42  H7  UNL     1      18.192   7.618  24.066  1.00  0.00     0.187 HD
HETATM   43  O2  UNL     1      17.012   5.731  22.836  1.00  0.00    -0.265 OA
BRANCH  38  44
HETATM   44  N6  UNL     1      19.522   9.509  23.207  1.00  0.00    -0.234 N 
ATOM     45  H62 UNL     1      20.487   9.768  22.998  1.00  0.00     0.174 HD
ATOM     46  H61 UNL     1      19.025   9.937  23.988  1.00  0.00     0.174 HD
ENDBRANCH  38  44
ENDBRANCH  31  34
ENDBRANCH  30  31
ENDBRANCH  29  30
ENDBRANCH  26  29
ENDBRANCH  25  26
ENDBRANCH  24  25
ENDBRANCH   1  24
TORSDOF 16
ENDMDL
MODEL 3
REMARK VINA RESULT: -7.934176750      2.778      4.880
REMARK  16 active torsions:
REMARK  status: ('A' for Active; 'I' for Inactive)
REMARK    1  A    between atoms: N1_2  and  C3_4 
REMARK    2  A    between atoms: N1_2  and  C13_28 
REMARK    3  A    between atoms: C3_4  and  C4_5 
REMARK    4  A    between atoms: C4_5  and  C5_6 
REMARK    5  A    between atoms: C5_6  and  N2_7 
REMARK    6  A    between atoms: N2_7  and  C6_10 
REMARK    7  A    between atoms: C6_10  and  C7_11 
REMARK    8  A    between atoms: C7_11  and  N3_12 
REMARK    9  A    between atoms: N3_12  and  C8_13 
REMARK   10  A    between atoms: N3_12  and  C9_15 
REMARK   11  A    between atoms: C11_20  and  N6_21 
REMARK   12  A    between atoms: C13_28  and  C14_29 
REMARK   13  A    between atoms: C17_32  and  O3_33 
REMARK   14  A    between atoms: O3_33  and  C18_34 
REMARK   15  A    between atoms: C18_34  and  C19_35 
REMARK   16  A    between atoms: C22_38  and  C23_39 
ROOT
HETATM    1  C3  UNL     1      22.276   6.354  18.698  1.00  0.00     0.238 C 
ENDROOT
BRANCH   1   2
HETATM    2  N1  UNL     1      23.561   5.769  18.816  1.00  0.00    -0.071 N 
HETATM    3  C1  UNL     1      24.396   6.044  17.624  1.00  0.00     0.272 C 
HETATM    4  C2  UNL     1      23.596   4.347  18.991  1.00  0.00     0.272 C 
BRANCH   2   5
HETATM    5  C13 UNL     1      24.316   6.396  19.895  1.00  0.00     0.275 C 
BRANCH   5   6
HETATM    6  C14 UNL     1      23.926   7.738  20.282  1.00  0.00    -0.032 A 
HETATM    7  C15 UNL     1      23.025   7.932  21.323  1.00  0.00     0.011 A 
HETATM    8  C16 UNL     1      22.628   9.207  21.690  1.00  0.00     0.037 A 
HETATM    9  C17 UNL     1      23.102  10.331  21.052  1.00  0.00     0.069 A 
HETATM   10  C26 UNL     1      23.994  10.152  20.019  1.00  0.00     0.037 A 
HETATM   11  C27 UNL     1      24.395   8.865  19.648  1.00  0.00     0.011 A 
BRANCH   9  12
HETATM   12  O3  UNL     1      22.727  11.625  21.388  1.00  0.00    -0.347 OA
BRANCH  12  13
HETATM   13  C18 UNL     1      23.631  12.412  22.139  1.00  0.00     0.214 C 
BRANCH  13  14
HETATM   14  C19 UNL     1      22.892  12.871  23.365  1.00  0.00    -0.034 A 
HETATM   15  C20 UNL     1      23.267  13.995  24.059  1.00  0.00     0.010 A 
HETATM   16  C21 UNL     1      22.567  14.418  25.195  1.00  0.00     0.013 A 
HETATM   17  C22 UNL     1      21.469  13.703  25.649  1.00  0.00    -0.021 A 
HETATM   18  C24 UNL     1      21.113  12.579  24.937  1.00  0.00     0.013 A 
HETATM   19  C25 UNL     1      21.806  12.155  23.807  1.00  0.00     0.010 A 
BRANCH  17  20
HETATM   20  C23 UNL     1      20.753  14.154  26.832  1.00  0.00     0.091 C 
HETATM   21  N8  UNL     1      20.708  13.468  27.915  1.00  0.00    -0.407 N 
ATOM     22  H82 UNL     1      21.199  12.574  27.930  1.00  0.00     0.155 HD
ATOM     23  H81 UNL     1      20.206  13.785  28.745  1.00  0.00     0.155 HD
ENDBRANCH  17  20
ENDBRANCH  13  14
ENDBRANCH  12  13
ENDBRANCH   9  12
ENDBRANCH   5   6
ENDBRANCH   2   5
ENDBRANCH   1   2
BRANCH   1  24
HETATM   24  C4  UNL     1      21.629   6.428  17.375  1.00  0.00     0.055 C 
BRANCH  24  25
HETATM   25  C5  UNL     1      20.154   6.296  17.292  1.00  0.00     0.234 C 
BRANCH  25  26
HETATM   26  N2  UNL     1      19.457   6.616  18.494  1.00  0.00    -0.074 N 
ATOM     27  H22 UNL     1      20.115   6.812  19.249  1.00  0.00     0.277 HD
ATOM     28  H21 UNL     1      19.008   7.529  18.416  1.00  0.00     0.277 HD
BRANCH  26  29
HETATM   29  C6  UNL     1      18.520   5.633  18.895  1.00  0.00     0.252 C 
BRANCH  29  30
HETATM   30  C7  UNL     1      18.328   5.585  20.381  1.00  0.00     0.159 C 
BRANCH  30  31
HETATM   31  N3  UNL     1      17.501   6.722  20.813  1.00  0.00    -0.316 N 
BRANCH  31  32
HETATM   32  C8  UNL     1      16.371   7.034  20.017  1.00  0.00     0.356 C 
HETATM   33  O1  UNL     1      15.869   8.187  20.009  1.00  0.00    -0.283 OA
ENDBRANCH  31  32
BRANCH  31  34
HETATM   34  C9  UNL     1      17.808   7.489  21.949  1.00  0.00     0.148 A 
HETATM   35  C10 UNL     1      17.189   7.258  23.153  1.00  0.00     0.164 A 
HETATM   36  N4  UNL     1      16.228   6.235  23.253  1.00  0.00    -0.080 NA
HETATM   37  N5  UNL     1      17.554   8.049  24.189  1.00  0.00    -0.177 N 
HETATM   38  C11 UNL     1      18.475   9.016  24.061  1.00  0.00     0.680 A 
ATOM     39  H5  UNL     1      17.113   7.906  25.097  1.00  0.00     0.185 HD
HETATM   40  N7  UNL     1      19.088   9.240  22.862  1.00  0.00    -0.154 N 
HETATM   41  C12 UNL     1      18.772   8.491  21.794  1.00  0.00     0.290 A 
ATOM     42  H7  UNL     1      19.786   9.978  22.778  1.00  0.00     0.187 HD
HETATM   43  O2  UNL     1      19.311   8.657  20.657  1.00  0.00    -0.265 OA
BRANCH  38  44
HETATM   44  N6  UNL     1      18.830   9.777  25.042  1.00  0.00    -0.234 N 
ATOM     45  H62 UNL     1      18.476   9.525  25.965  1.00  0.00     0.174 HD
ATOM     46  H61 UNL     1      19.433  10.590  24.919  1.00  0.00     0.174 HD
ENDBRANCH  38  44
ENDBRANCH  31  34
ENDBRANCH  30  31
ENDBRANCH  29  30
ENDBRANCH  26  29
ENDBRANCH  25  26
ENDBRANCH  24  25
ENDBRANCH   1  24
TORSDOF 16
ENDMDL
MODEL 4
REMARK VINA RESULT: -7.918709380      2.833      4.716
REMARK  16 active torsions:
REMARK  status: ('A' for Active; 'I' for Inactive)
REMARK    1  A    between atoms: N1_2  and  C3_4 
REMARK    2  A    between atoms: N1_2  and  C13_28 
REMARK    3  A    between atoms: C3_4  and  C4_5 
REMARK    4  A    between atoms: C4_5  and  C5_6 
REMARK    5  A    between atoms: C5_6  and  N2_7 
REMARK    6  A    between atoms: N2_7  and  C6_10 
REMARK    7  A    between atoms: C6_10  and  C7_11 
REMARK    8  A    between atoms: C7_11  and  N3_12 
REMARK    9  A    between atoms: N3_12  and  C8_13 
REMARK   10  A    between atoms: N3_12  and  C9_15 
REMARK   11  A    between atoms: C11_20  and  N6_21 
REMARK   12  A    between atoms: C13_28  and  C14_29 
REMARK   13  A    between atoms: C17_32  and  O3_33 
REMARK   14  A    between atoms: O3_33  and  C18_34 
REMARK   15  A    between atoms: C18_34  and  C19_35 
REMARK   16  A    between atoms: C22_38  and  C23_39 
ROOT
HETATM    1  C3  UNL     1      22.328   6.399  18.529  1.00  0.00     0.238 C 
ENDROOT
BRANCH   1   2
HETATM    2  N1  UNL     1      23.596   5.808  18.751  1.00  0.00    -0.071 N 
HETATM    3  C1  UNL     1      24.528   6.084  17.634  1.00  0.00     0.272 C 
HETATM    4  C2  UNL     1      23.611   4.386  18.923  1.00  0.00     0.272 C 
BRANCH   2   5
HETATM    5  C13 UNL     1      24.261   6.428  19.892  1.00  0.00     0.275 C 
BRANCH   5   6
HETATM    6  C14 UNL     1      23.841   7.768  20.255  1.00  0.00    -0.032 A 
HETATM    7  C15 UNL     1      24.461   8.874  19.682  1.00  0.00     0.011 A 
HETATM    8  C16 UNL     1      24.083  10.160  20.034  1.00  0.00     0.037 A 
HETATM    9  C17 UNL     1      23.089  10.403  20.954  1.00  0.00     0.069 A 
HETATM   10  C26 UNL     1      22.469   9.316  21.528  1.00  0.00     0.037 A 
HETATM   11  C27 UNL     1      22.849   8.018  21.174  1.00  0.00     0.011 A 
BRANCH   9  12
HETATM   12  O3  UNL     1      22.685  11.675  21.335  1.00  0.00    -0.347 OA
BRANCH  12  13
HETATM   13  C18 UNL     1      23.677  12.615  21.698  1.00  0.00     0.214 C 
BRANCH  13  14
HETATM   14  C19 UNL     1      23.998  12.371  23.145  1.00  0.00    -0.034 A 
HETATM   15  C20 UNL     1      23.015  12.272  24.099  1.00  0.00     0.010 A 
HETATM   16  C21 UNL     1      23.324  12.036  25.444  1.00  0.00     0.013 A 
HETATM   17  C22 UNL     1      24.644  11.897  25.846  1.00  0.00    -0.021 A 
HETATM   18  C24 UNL     1      25.612  12.001  24.872  1.00  0.00     0.013 A 
HETATM   19  C25 UNL     1      25.309  12.236  23.534  1.00  0.00     0.010 A 
BRANCH  17  20
HETATM   20  C23 UNL     1      24.949  11.654  27.248  1.00  0.00     0.091 C 
HETATM   21  N8  UNL     1      26.151  11.571  27.687  1.00  0.00    -0.407 N 
ATOM     22  H82 UNL     1      26.911  11.680  27.015  1.00  0.00     0.155 HD
ATOM     23  H81 UNL     1      26.365  11.401  28.670  1.00  0.00     0.155 HD
ENDBRANCH  17  20
ENDBRANCH  13  14
ENDBRANCH  12  13
ENDBRANCH   9  12
ENDBRANCH   5   6
ENDBRANCH   2   5
ENDBRANCH   1   2
BRANCH   1  24
HETATM   24  C4  UNL     1      21.132   5.542  18.437  1.00  0.00     0.055 C 
BRANCH  24  25
HETATM   25  C5  UNL     1      19.913   6.081  17.789  1.00  0.00     0.234 C 
BRANCH  25  26
HETATM   26  N2  UNL     1      18.930   6.586  18.691  1.00  0.00    -0.074 N 
ATOM     27  H22 UNL     1      19.373   7.099  19.454  1.00  0.00     0.277 HD
ATOM     28  H21 UNL     1      18.401   7.343  18.258  1.00  0.00     0.277 HD
BRANCH  26  29
HETATM   29  C6  UNL     1      18.055   5.597  19.201  1.00  0.00     0.252 C 
BRANCH  29  30
HETATM   30  C7  UNL     1      17.984   5.600  20.698  1.00  0.00     0.159 C 
BRANCH  30  31
HETATM   31  N3  UNL     1      17.236   6.780  21.158  1.00  0.00    -0.316 N 
BRANCH  31  32
HETATM   32  C8  UNL     1      16.044   7.097  20.461  1.00  0.00     0.356 C 
HETATM   33  O1  UNL     1      15.854   8.239  19.969  1.00  0.00    -0.283 OA
ENDBRANCH  31  32
BRANCH  31  34
HETATM   34  C9  UNL     1      17.673   7.579  22.227  1.00  0.00     0.148 A 
HETATM   35  C10 UNL     1      17.157   7.425  23.491  1.00  0.00     0.164 A 
HETATM   36  N4  UNL     1      16.172   6.447  23.722  1.00  0.00    -0.080 NA
HETATM   37  N5  UNL     1      17.644   8.243  24.453  1.00  0.00    -0.177 N 
HETATM   38  C11 UNL     1      18.586   9.164  24.200  1.00  0.00     0.680 A 
ATOM     39  H5  UNL     1      17.283   8.156  25.403  1.00  0.00     0.185 HD
HETATM   40  N7  UNL     1      19.094   9.314  22.943  1.00  0.00    -0.154 N 
HETATM   41  C12 UNL     1      18.655   8.534  21.942  1.00  0.00     0.290 A 
ATOM     42  H7  UNL     1      19.809  10.019  22.763  1.00  0.00     0.187 HD
HETATM   43  O2  UNL     1      19.094   8.631  20.755  1.00  0.00    -0.265 OA
BRANCH  38  44
HETATM   44  N6  UNL     1      19.056   9.951  25.110  1.00  0.00    -0.234 N 
ATOM     45  H62 UNL     1      20.067  10.090  25.115  1.00  0.00     0.174 HD
ATOM     46  H61 UNL     1      18.463  10.416  25.797  1.00  0.00     0.174 HD
ENDBRANCH  38  44
ENDBRANCH  31  34
ENDBRANCH  30  31
ENDBRANCH  29  30
ENDBRANCH  26  29
ENDBRANCH  25  26
ENDBRANCH  24  25
ENDBRANCH   1  24
TORSDOF 16
ENDMDL
MODEL 5
REMARK VINA RESULT: -7.849550772      1.632      6.640
REMARK  16 active torsions:
REMARK  status: ('A' for Active; 'I' for Inactive)
REMARK    1  A    between atoms: N1_2  and  C3_4 
REMARK    2  A    between atoms: N1_2  and  C13_28 
REMARK    3  A    between atoms: C3_4  and  C4_5 
REMARK    4  A    between atoms: C4_5  and  C5_6 
REMARK    5  A    between atoms: C5_6  and  N2_7 
REMARK    6  A    between atoms: N2_7  and  C6_10 
REMARK    7  A    between atoms: C6_10  and  C7_11 
REMARK    8  A    between atoms: C7_11  and  N3_12 
REMARK    9  A    between atoms: N3_12  and  C8_13 
REMARK   10  A    between atoms: N3_12  and  C9_15 
REMARK   11  A    between atoms: C11_20  and  N6_21 
REMARK   12  A    between atoms: C13_28  and  C14_29 
REMARK   13  A    between atoms: C17_32  and  O3_33 
REMARK   14  A    between atoms: O3_33  and  C18_34 
REMARK   15  A    between atoms: C18_34  and  C19_35 
REMARK   16  A    between atoms: C22_38  and  C23_39 
ROOT
HETATM    1  C3  UNL     1      22.151   9.183  21.143  1.00  0.00     0.238 C 
ENDROOT
BRANCH   1   2
HETATM    2  N1  UNL     1      22.981  10.313  21.348  1.00  0.00    -0.071 N 
HETATM    3  C1  UNL     1      23.241  10.543  22.787  1.00  0.00     0.272 C 
HETATM    4  C2  UNL     1      22.489  11.559  20.841  1.00  0.00     0.272 C 
BRANCH   2   5
HETATM    5  C13 UNL     1      24.315  10.078  20.808  1.00  0.00     0.275 C 
BRANCH   5   6
HETATM    6  C14 UNL     1      24.459   9.004  19.843  1.00  0.00    -0.032 A 
HETATM    7  C15 UNL     1      24.312   9.261  18.484  1.00  0.00     0.011 A 
HETATM    8  C16 UNL     1      24.427   8.242  17.552  1.00  0.00     0.037 A 
HETATM    9  C17 UNL     1      24.689   6.942  17.922  1.00  0.00     0.069 A 
HETATM   10  C26 UNL     1      24.835   6.676  19.264  1.00  0.00     0.037 A 
HETATM   11  C27 UNL     1      24.720   7.703  20.204  1.00  0.00     0.011 A 
BRANCH   9  12
HETATM   12  O3  UNL     1      24.808   5.894  17.020  1.00  0.00    -0.347 OA
BRANCH  12  13
HETATM   13  C18 UNL     1      23.635   5.410  16.393  1.00  0.00     0.214 C 
BRANCH  13  14
HETATM   14  C19 UNL     1      23.045   4.379  17.313  1.00  0.00    -0.034 A 
HETATM   15  C20 UNL     1      23.766   3.293  17.743  1.00  0.00     0.010 A 
HETATM   16  C21 UNL     1      23.209   2.342  18.607  1.00  0.00     0.013 A 
HETATM   17  C22 UNL     1      21.903   2.480  19.052  1.00  0.00    -0.021 A 
HETATM   18  C24 UNL     1      21.200   3.577  18.607  1.00  0.00     0.013 A 
HETATM   19  C25 UNL     1      21.750   4.524  17.748  1.00  0.00     0.010 A 
BRANCH  17  20
HETATM   20  C23 UNL     1      21.338   1.482  19.948  1.00  0.00     0.091 C 
HETATM   21  N8  UNL     1      20.924   1.771  21.127  1.00  0.00    -0.407 N 
ATOM     22  H82 UNL     1      21.001   2.741  21.433  1.00  0.00     0.155 HD
ATOM     23  H81 UNL     1      20.527   1.071  21.755  1.00  0.00     0.155 HD
ENDBRANCH  17  20
ENDBRANCH  13  14
ENDBRANCH  12  13
ENDBRANCH   9  12
ENDBRANCH   5   6
ENDBRANCH   2   5
ENDBRANCH   1   2
BRANCH   1  24
HETATM   24  C4  UNL     1      21.642   8.433  22.305  1.00  0.00     0.055 C 
BRANCH  24  25
HETATM   25  C5  UNL     1      20.226   7.992  22.309  1.00  0.00     0.234 C 
BRANCH  25  26
HETATM   26  N2  UNL     1      19.286   9.001  21.942  1.00  0.00    -0.074 N 
ATOM     27  H22 UNL     1      19.698   9.929  22.045  1.00  0.00     0.277 HD
ATOM     28  H21 UNL     1      19.127   8.993  20.935  1.00  0.00     0.277 HD
BRANCH  26  29
HETATM   29  C6  UNL     1      18.057   8.923  22.641  1.00  0.00     0.252 C 
BRANCH  29  30
HETATM   30  C7  UNL     1      17.516   7.527  22.708  1.00  0.00     0.159 C 
BRANCH  30  31
HETATM   31  N3  UNL     1      16.715   7.245  21.507  1.00  0.00    -0.316 N 
BRANCH  31  32
HETATM   32  C8  UNL     1      15.630   8.117  21.239  1.00  0.00     0.356 C 
HETATM   33  O1  UNL     1      15.324   8.444  20.064  1.00  0.00    -0.283 OA
ENDBRANCH  31  32
BRANCH  31  34
HETATM   34  C9  UNL     1      16.984   6.158  20.660  1.00  0.00     0.148 A 
HETATM   35  C10 UNL     1      17.792   6.296  19.558  1.00  0.00     0.164 A 
HETATM   36  N4  UNL     1      18.363   7.549  19.270  1.00  0.00    -0.080 NA
HETATM   37  N5  UNL     1      17.992   5.189  18.805  1.00  0.00    -0.177 N 
HETATM   38  C11 UNL     1      17.434   4.008  19.108  1.00  0.00     0.680 A 
ATOM     39  H5  UNL     1      18.586   5.256  17.979  1.00  0.00     0.185 HD
HETATM   40  N7  UNL     1      16.632   3.876  20.204  1.00  0.00    -0.154 N 
HETATM   41  C12 UNL     1      16.393   4.935  20.994  1.00  0.00     0.290 A 
ATOM     42  H7  UNL     1      16.213   2.972  20.423  1.00  0.00     0.187 HD
HETATM   43  O2  UNL     1      15.655   4.868  22.025  1.00  0.00    -0.265 OA
BRANCH  38  44
HETATM   44  N6  UNL     1      17.616   2.946  18.395  1.00  0.00    -0.234 N 
ATOM     45  H62 UNL     1      18.300   3.014  17.641  1.00  0.00     0.174 HD
ATOM     46  H61 UNL     1      17.113   2.075  18.564  1.00  0.00     0.174 HD
ENDBRANCH  38  44
ENDBRANCH  31  34
ENDBRANCH  30  31
ENDBRANCH  29  30
ENDBRANCH  26  29
ENDBRANCH  25  26
ENDBRANCH  24  25
ENDBRANCH   1  24
TORSDOF 16
ENDMDL
