MODEL 1
REMARK VINA RESULT: -7.417161878      0.000      0.000
REMARK  17 active torsions:
REMARK  status: ('A' for Active; 'I' for Inactive)
REMARK    1  A    between atoms: N1_1  and  C1_5 
REMARK    2  A    between atoms: C1_5  and  C2_6 
REMARK    3  A    between atoms: C2_6  and  C3_7 
REMARK    4  A    between atoms: C3_7  and  N2_8 
REMARK    5  A    between atoms: N2_8  and  C4_11 
REMARK    6  A    between atoms: C4_11  and  C5_12 
REMARK    7  A    between atoms: C5_12  and  C6_13 
REMARK    8  A    between atoms: C6_13  and  C7_14 
REMARK    9  A    between atoms: C7_14  and  C8_15 
REMARK   10  A    between atoms: C8_15  and  C9_16 
REMARK   11  A    between atoms: C9_16  and  N3_17 
REMARK   12  A    between atoms: N4_24  and  C15_25 
REMARK   13  A    between atoms: C15_25  and  C16_26 
REMARK   14  A    between atoms: C16_26  and  O2_27 
REMARK   15  A    between atoms: C16_26  and  C17_29 
REMARK   16  A    between atoms: C17_29  and  O3_30 
REMARK   17  A    between atoms: O3_30  and  C18_31 
ROOT
HETATM    1  N3  UNL     1      16.941   5.487  19.663  1.00  0.00    -0.295 N 
HETATM    2  C10 UNL     1      18.227   5.830  20.069  1.00  0.00     0.228 C 
HETATM    3  O1  UNL     1      18.351   6.386  21.190  1.00  0.00    -0.273 OA
HETATM    4  C11 UNL     1      19.450   5.588  19.279  1.00  0.00     0.134 C 
HETATM    5  C12 UNL     1      19.343   4.579  18.200  1.00  0.00     0.044 C 
HETATM    6  C13 UNL     1      19.941   5.149  16.929  1.00  0.00     0.061 C 
HETATM    7  C14 UNL     1      21.333   5.565  17.240  1.00  0.00     0.275 C 
HETATM    8  N4  UNL     1      22.034   4.824  18.219  1.00  0.00     0.091 N 
HETATM    9  C24 UNL     1      21.586   3.514  18.530  1.00  0.00     0.275 C 
HETATM   10  C25 UNL     1      20.109   3.307  18.469  1.00  0.00     0.061 C 
HETATM   11  N6  UNL     1      17.992   4.171  17.862  1.00  0.00    -0.357 N 
ATOM     12  H6  UNL     1      17.878   3.507  17.096  1.00  0.00     0.162 HD
HETATM   13  C26 UNL     1      16.821   4.624  18.515  1.00  0.00     0.177 C 
HETATM   14  S1  UNL     1      15.350   4.170  17.969  1.00  0.00    -0.041 SA
ENDROOT
BRANCH   1  15
HETATM   15  C9  UNL     1      15.690   5.905  20.257  1.00  0.00     0.134 C 
BRANCH  15  16
HETATM   16  C8  UNL     1      15.350   7.315  20.031  1.00  0.00     0.020 C 
BRANCH  16  17
HETATM   17  C7  UNL     1      14.976   7.973  21.372  1.00  0.00     0.002 C 
BRANCH  17  18
HETATM   18  C6  UNL     1      14.313   7.018  22.289  1.00  0.00     0.002 C 
BRANCH  18  19
HETATM   19  C5  UNL     1      14.672   7.022  23.709  1.00  0.00     0.027 C 
BRANCH  19  20
HETATM   20  C4  UNL     1      15.695   6.091  24.198  1.00  0.00     0.232 C 
BRANCH  20  21
HETATM   21  N2  UNL     1      17.031   6.412  23.833  1.00  0.00    -0.075 N 
ATOM     22  H22 UNL     1      17.075   6.863  22.919  1.00  0.00     0.277 HD
ATOM     23  H21 UNL     1      17.575   5.576  23.619  1.00  0.00     0.277 HD
BRANCH  21  24
HETATM   24  C3  UNL     1      17.681   7.237  24.885  1.00  0.00     0.233 C 
BRANCH  24  25
HETATM   25  C2  UNL     1      17.975   8.618  24.400  1.00  0.00     0.055 C 
BRANCH  25  26
HETATM   26  C1  UNL     1      19.297   8.693  23.659  1.00  0.00     0.231 C 
BRANCH  26  27
HETATM   27  N1  UNL     1      19.100   9.045  22.271  1.00  0.00    -0.079 N 
ATOM     28  H13 UNL     1      18.109   9.100  22.035  1.00  0.00     0.274 HD
ATOM     29  H12 UNL     1      19.358  10.015  22.090  1.00  0.00     0.274 HD
ATOM     30  H11 UNL     1      19.598   8.404  21.653  1.00  0.00     0.274 HD
ENDBRANCH  26  27
ENDBRANCH  25  26
ENDBRANCH  24  25
ENDBRANCH  21  24
ENDBRANCH  20  21
ENDBRANCH  19  20
ENDBRANCH  18  19
ENDBRANCH  17  18
ENDBRANCH  16  17
ENDBRANCH  15  16
ENDBRANCH   1  15
BRANCH   8  31
HETATM   31  C15 UNL     1      23.443   4.795  17.870  1.00  0.00     0.306 C 
BRANCH  31  32
HETATM   32  C16 UNL     1      23.831   6.006  17.048  1.00  0.00     0.170 C 
BRANCH  32  33
HETATM   33  O2  UNL     1      24.350   5.540  15.807  1.00  0.00    -0.392 OA
ATOM     34  H2  UNL     1      24.535   6.300  15.267  1.00  0.00     0.210 HD
ENDBRANCH  32  33
BRANCH  32  35
HETATM   35  C17 UNL     1      24.933   6.795  17.685  1.00  0.00     0.209 C 
BRANCH  35  36
HETATM   36  O3  UNL     1      24.860   7.073  19.011  1.00  0.00    -0.349 OA
BRANCH  36  37
HETATM   37  C18 UNL     1      24.168   8.007  19.745  1.00  0.00     0.069 A 
HETATM   38  C19 UNL     1      24.350   9.363  19.625  1.00  0.00     0.038 A 
HETATM   39  C20 UNL     1      23.604  10.214  20.406  1.00  0.00     0.029 A 
HETATM   40  C21 UNL     1      22.665   9.777  21.321  1.00  0.00     0.046 A 
HETATM   41  N5  UNL     1      21.902  10.649  22.122  1.00  0.00    -0.102 NA
HETATM   42  C22 UNL     1      22.495   8.415  21.431  1.00  0.00     0.029 A 
HETATM   43  C23 UNL     1      23.220   7.545  20.669  1.00  0.00     0.038 A 
ENDBRANCH  36  37
ENDBRANCH  35  36
ENDBRANCH  32  35
ENDBRANCH  31  32
ENDBRANCH   8  31
TORSDOF 17
ENDMDL
MODEL 2
REMARK VINA RESULT: -7.116188792      1.928      2.905
REMARK  17 active torsions:
REMARK  status: ('A' for Active; 'I' for Inactive)
REMARK    1  A    between atoms: N1_1  and  C1_5 
REMARK    2  A    between atoms: C1_5  and  C2_6 
REMARK    3  A    between atoms: C2_6  and  C3_7 
REMARK    4  A    between atoms: C3_7  and  N2_8 
REMARK    5  A    between atoms: N2_8  and  C4_11 
REMARK    6  A    between atoms: C4_11  and  C5_12 
REMARK    7  A    between atoms: C5_12  and  C6_13 
REMARK    8  A    between atoms: C6_13  and  C7_14 
REMARK    9  A    between atoms: C7_14  and  C8_15 
REMARK   10  A    between atoms: C8_15  and  C9_16 
REMARK   11  A    between atoms: C9_16  and  N3_17 
REMARK   12  A    between atoms: N4_24  and  C15_25 
REMARK   13  A    between atoms: C15_25  and  C16_26 
REMARK   14  A    between atoms: C16_26  and  O2_27 
REMARK   15  A    between atoms: C16_26  and  C17_29 
REMARK   16  A    between atoms: C17_29  and  O3_30 
REMARK   17  A    between atoms: O3_30  and  C18_31 
ROOT
HETATM    1  N3  UNL     1      16.924   5.486  19.686  1.00  0.00    -0.295 N 
HETATM    2  C10 UNL     1      18.224   5.805  20.066  1.00  0.00     0.228 C 
HETATM    3  O1  UNL     1      18.381   6.358  21.184  1.00  0.00    -0.273 OA
HETATM    4  C11 UNL     1      19.425   5.540  19.250  1.00  0.00     0.134 C 
HETATM    5  C12 UNL     1      19.277   4.533  18.175  1.00  0.00     0.044 C 
HETATM    6  C13 UNL     1      19.860   5.092  16.891  1.00  0.00     0.061 C 
HETATM    7  C14 UNL     1      21.266   5.482  17.174  1.00  0.00     0.275 C 
HETATM    8  N4  UNL     1      21.973   4.729  18.138  1.00  0.00     0.091 N 
HETATM    9  C24 UNL     1      21.506   3.427  18.458  1.00  0.00     0.275 C 
HETATM   10  C25 UNL     1      20.025   3.248  18.428  1.00  0.00     0.061 C 
HETATM   11  N6  UNL     1      17.912   4.151  17.864  1.00  0.00    -0.357 N 
ATOM     12  H6  UNL     1      17.770   3.489  17.101  1.00  0.00     0.162 HD
HETATM   13  C26 UNL     1      16.763   4.626  18.541  1.00  0.00     0.177 C 
HETATM   14  S1  UNL     1      15.274   4.199  18.025  1.00  0.00    -0.041 SA
ENDROOT
BRANCH   1  15
HETATM   15  C9  UNL     1      15.693   5.927  20.305  1.00  0.00     0.134 C 
BRANCH  15  16
HETATM   16  C8  UNL     1      15.371   7.342  20.081  1.00  0.00     0.020 C 
BRANCH  16  17
HETATM   17  C7  UNL     1      14.961   7.992  21.415  1.00  0.00     0.002 C 
BRANCH  17  18
HETATM   18  C6  UNL     1      15.181   7.083  22.563  1.00  0.00     0.002 C 
BRANCH  18  19
HETATM   19  C5  UNL     1      14.095   6.862  23.521  1.00  0.00     0.027 C 
BRANCH  19  20
HETATM   20  C4  UNL     1      12.839   6.259  23.061  1.00  0.00     0.232 C 
BRANCH  20  21
HETATM   21  N2  UNL     1      12.072   5.612  24.067  1.00  0.00    -0.075 N 
ATOM     22  H22 UNL     1      12.270   4.612  24.109  1.00  0.00     0.277 HD
ATOM     23  H21 UNL     1      11.085   5.563  23.817  1.00  0.00     0.277 HD
BRANCH  21  24
HETATM   24  C3  UNL     1      12.272   6.268  25.387  1.00  0.00     0.233 C 
BRANCH  24  25
HETATM   25  C2  UNL     1      10.987   6.411  26.133  1.00  0.00     0.055 C 
BRANCH  25  26
HETATM   26  C1  UNL     1      11.140   6.062  27.601  1.00  0.00     0.231 C 
BRANCH  26  27
HETATM   27  N1  UNL     1      11.950   7.042  28.291  1.00  0.00    -0.079 N 
ATOM     28  H13 UNL     1      11.529   7.971  28.251  1.00  0.00     0.274 HD
ATOM     29  H12 UNL     1      11.927   6.903  29.301  1.00  0.00     0.274 HD
ATOM     30  H11 UNL     1      12.906   7.047  27.936  1.00  0.00     0.274 HD
ENDBRANCH  26  27
ENDBRANCH  25  26
ENDBRANCH  24  25
ENDBRANCH  21  24
ENDBRANCH  20  21
ENDBRANCH  19  20
ENDBRANCH  18  19
ENDBRANCH  17  18
ENDBRANCH  16  17
ENDBRANCH  15  16
ENDBRANCH   1  15
BRANCH   8  31
HETATM   31  C15 UNL     1      23.373   4.673  17.761  1.00  0.00     0.306 C 
BRANCH  31  32
HETATM   32  C16 UNL     1      23.777   5.897  16.966  1.00  0.00     0.170 C 
BRANCH  32  33
HETATM   33  O2  UNL     1      24.293   5.452  15.716  1.00  0.00    -0.392 OA
ATOM     34  H2  UNL     1      25.207   5.227  15.843  1.00  0.00     0.210 HD
ENDBRANCH  32  33
BRANCH  32  35
HETATM   35  C17 UNL     1      24.887   6.659  17.621  1.00  0.00     0.209 C 
BRANCH  35  36
HETATM   36  O3  UNL     1      24.805   6.926  18.949  1.00  0.00    -0.349 OA
BRANCH  36  37
HETATM   37  C18 UNL     1      24.169   7.902  19.680  1.00  0.00     0.069 A 
HETATM   38  C19 UNL     1      24.414   9.245  19.540  1.00  0.00     0.038 A 
HETATM   39  C20 UNL     1      23.720  10.141  20.320  1.00  0.00     0.029 A 
HETATM   40  C21 UNL     1      22.774   9.761  21.253  1.00  0.00     0.046 A 
HETATM   41  N5  UNL     1      22.065  10.678  22.053  1.00  0.00    -0.102 NA
HETATM   42  C22 UNL     1      22.541   8.410  21.382  1.00  0.00     0.029 A 
HETATM   43  C23 UNL     1      23.212   7.497  20.622  1.00  0.00     0.038 A 
ENDBRANCH  36  37
ENDBRANCH  35  36
ENDBRANCH  32  35
ENDBRANCH  31  32
ENDBRANCH   8  31
TORSDOF 17
ENDMDL
MODEL 3
REMARK VINA RESULT: -7.104377097      0.977      1.351
REMARK  17 active torsions:
REMARK  status: ('A' for Active; 'I' for Inactive)
REMARK    1  A    between atoms: N1_1  and  C1_5 
REMARK    2  A    between atoms: C1_5  and  C2_6 
REMARK    3  A    between atoms: C2_6  and  C3_7 
REMARK    4  A    between atoms: C3_7  and  N2_8 
REMARK    5  A    between atoms: N2_8  and  C4_11 
REMARK    6  A    between atoms: C4_11  and  C5_12 
REMARK    7  A    between atoms: C5_12  and  C6_13 
REMARK    8  A    between atoms: C6_13  and  C7_14 
REMARK    9  A    between atoms: C7_14  and  C8_15 
REMARK   10  A    between atoms: C8_15  and  C9_16 
REMARK   11  A    between atoms: C9_16  and  N3_17 
REMARK   12  A    between atoms: N4_24  and  C15_25 
REMARK   13  A    between atoms: C15_25  and  C16_26 
REMARK   14  A    between atoms: C16_26  and  O2_27 
REMARK   15  A    between atoms: C16_26  and  C17_29 
REMARK   16  A    between atoms: C17_29  and  O3_30 
REMARK   17  A    between atoms: O3_30  and  C18_31 
ROOT
HETATM    1  N3  UNL     1      16.871   5.560  19.696  1.00  0.00    -0.295 N 
HETATM    2  C10 UNL     1      18.172   5.841  20.100  1.00  0.00     0.228 C 
HETATM    3  O1  UNL     1      18.328   6.351  21.238  1.00  0.00    -0.273 OA
HETATM    4  C11 UNL     1      19.377   5.583  19.287  1.00  0.00     0.134 C 
HETATM    5  C12 UNL     1      19.223   4.617  18.175  1.00  0.00     0.044 C 
HETATM    6  C13 UNL     1      19.829   5.210  16.918  1.00  0.00     0.061 C 
HETATM    7  C14 UNL     1      21.239   5.564  17.228  1.00  0.00     0.275 C 
HETATM    8  N4  UNL     1      21.922   4.764  18.172  1.00  0.00     0.091 N 
HETATM    9  C24 UNL     1      21.428   3.461  18.442  1.00  0.00     0.275 C 
HETATM   10  C25 UNL     1      19.945   3.310  18.390  1.00  0.00     0.061 C 
HETATM   11  N6  UNL     1      17.855   4.271  17.838  1.00  0.00    -0.357 N 
ATOM     12  H6  UNL     1      17.709   3.639  17.051  1.00  0.00     0.162 HD
HETATM   13  C26 UNL     1      16.707   4.743  18.520  1.00  0.00     0.177 C 
HETATM   14  S1  UNL     1      15.216   4.362  17.975  1.00  0.00    -0.041 SA
ENDROOT
BRANCH   1  15
HETATM   15  C9  UNL     1      15.642   6.001  20.319  1.00  0.00     0.134 C 
BRANCH  15  16
HETATM   16  C8  UNL     1      15.328   7.419  20.107  1.00  0.00     0.020 C 
BRANCH  16  17
HETATM   17  C7  UNL     1      15.001   8.079  21.460  1.00  0.00     0.002 C 
BRANCH  17  18
HETATM   18  C6  UNL     1      14.332   7.137  22.386  1.00  0.00     0.002 C 
BRANCH  18  19
HETATM   19  C5  UNL     1      14.823   7.013  23.760  1.00  0.00     0.027 C 
BRANCH  19  20
HETATM   20  C4  UNL     1      16.064   6.274  24.020  1.00  0.00     0.232 C 
BRANCH  20  21
HETATM   21  N2  UNL     1      17.235   7.073  24.125  1.00  0.00    -0.075 N 
ATOM     22  H22 UNL     1      17.133   7.959  23.631  1.00  0.00     0.277 HD
ATOM     23  H21 UNL     1      18.007   6.683  23.584  1.00  0.00     0.277 HD
BRANCH  21  24
HETATM   24  C3  UNL     1      17.609   7.276  25.549  1.00  0.00     0.233 C 
BRANCH  24  25
HETATM   25  C2  UNL     1      17.247   8.644  26.025  1.00  0.00     0.055 C 
BRANCH  25  26
HETATM   26  C1  UNL     1      16.420   8.605  27.296  1.00  0.00     0.231 C 
BRANCH  26  27
HETATM   27  N1  UNL     1      15.021   8.845  27.019  1.00  0.00    -0.079 N 
ATOM     28  H13 UNL     1      14.760   8.507  26.092  1.00  0.00     0.274 HD
ATOM     29  H12 UNL     1      14.419   8.243  27.581  1.00  0.00     0.274 HD
ATOM     30  H11 UNL     1      14.784   9.829  27.140  1.00  0.00     0.274 HD
ENDBRANCH  26  27
ENDBRANCH  25  26
ENDBRANCH  24  25
ENDBRANCH  21  24
ENDBRANCH  20  21
ENDBRANCH  19  20
ENDBRANCH  18  19
ENDBRANCH  17  18
ENDBRANCH  16  17
ENDBRANCH  15  16
ENDBRANCH   1  15
BRANCH   8  31
HETATM   31  C15 UNL     1      23.325   4.696  17.807  1.00  0.00     0.306 C 
BRANCH  31  32
HETATM   32  C16 UNL     1      23.736   5.896  16.980  1.00  0.00     0.170 C 
BRANCH  32  33
HETATM   33  O2  UNL     1      24.290   5.414  15.760  1.00  0.00    -0.392 OA
ATOM     34  H2  UNL     1      24.937   6.045  15.466  1.00  0.00     0.210 HD
ENDBRANCH  32  33
BRANCH  32  35
HETATM   35  C17 UNL     1      24.819   6.694  17.637  1.00  0.00     0.209 C 
BRANCH  35  36
HETATM   36  O3  UNL     1      24.732   6.950  18.967  1.00  0.00    -0.349 OA
BRANCH  36  37
HETATM   37  C18 UNL     1      24.098   7.923  19.703  1.00  0.00     0.069 A 
HETATM   38  C19 UNL     1      24.397   9.260  19.623  1.00  0.00     0.038 A 
HETATM   39  C20 UNL     1      23.700  10.153  20.403  1.00  0.00     0.029 A 
HETATM   40  C21 UNL     1      22.700   9.777  21.278  1.00  0.00     0.046 A 
HETATM   41  N5  UNL     1      21.987  10.691  22.078  1.00  0.00    -0.102 NA
HETATM   42  C22 UNL     1      22.412   8.432  21.347  1.00  0.00     0.029 A 
HETATM   43  C23 UNL     1      23.085   7.521  20.586  1.00  0.00     0.038 A 
ENDBRANCH  36  37
ENDBRANCH  35  36
ENDBRANCH  32  35
ENDBRANCH  31  32
ENDBRANCH   8  31
TORSDOF 17
ENDMDL
MODEL 4
REMARK VINA RESULT: -7.077218353      1.752      3.128
REMARK  17 active torsions:
REMARK  status: ('A' for Active; 'I' for Inactive)
REMARK    1  A    between atoms: N1_1  and  C1_5 
REMARK    2  A    between atoms: C1_5  and  C2_6 
REMARK    3  A    between atoms: C2_6  and  C3_7 
REMARK    4  A    between atoms: C3_7  and  N2_8 
REMARK    5  A    between atoms: N2_8  and  C4_11 
REMARK    6  A    between atoms: C4_11  and  C5_12 
REMARK    7  A    between atoms: C5_12  and  C6_13 
REMARK    8  A    between atoms: C6_13  and  C7_14 
REMARK    9  A    between atoms: C7_14  and  C8_15 
REMARK   10  A    between atoms: C8_15  and  C9_16 
REMARK   11  A    between atoms: C9_16  and  N3_17 
REMARK   12  A    between atoms: N4_24  and  C15_25 
REMARK   13  A    between atoms: C15_25  and  C16_26 
REMARK   14  A    between atoms: C16_26  and  O2_27 
REMARK   15  A    between atoms: C16_26  and  C17_29 
REMARK   16  A    between atoms: C17_29  and  O3_30 
REMARK   17  A    between atoms: O3_30  and  C18_31 
ROOT
HETATM    1  N3  UNL     1      16.831   5.502  19.650  1.00  0.00    -0.295 N 
HETATM    2  C10 UNL     1      18.125   5.780  20.078  1.00  0.00     0.228 C 
HETATM    3  O1  UNL     1      18.263   6.266  21.229  1.00  0.00    -0.273 OA
HETATM    4  C11 UNL     1      19.343   5.545  19.277  1.00  0.00     0.134 C 
HETATM    5  C12 UNL     1      19.209   4.603  18.142  1.00  0.00     0.044 C 
HETATM    6  C13 UNL     1      19.829   5.226  16.907  1.00  0.00     0.061 C 
HETATM    7  C14 UNL     1      21.233   5.580  17.245  1.00  0.00     0.275 C 
HETATM    8  N4  UNL     1      21.906   4.762  18.181  1.00  0.00     0.091 N 
HETATM    9  C24 UNL     1      21.416   3.451  18.415  1.00  0.00     0.275 C 
HETATM   10  C25 UNL     1      19.934   3.295  18.339  1.00  0.00     0.061 C 
HETATM   11  N6  UNL     1      17.847   4.258  17.778  1.00  0.00    -0.357 N 
ATOM     12  H6  UNL     1      17.715   3.643  16.975  1.00  0.00     0.162 HD
HETATM   13  C26 UNL     1      16.688   4.710  18.454  1.00  0.00     0.177 C 
HETATM   14  S1  UNL     1      15.206   4.335  17.879  1.00  0.00    -0.041 SA
ENDROOT
BRANCH   1  15
HETATM   15  C9  UNL     1      15.591   5.924  20.264  1.00  0.00     0.134 C 
BRANCH  15  16
HETATM   16  C8  UNL     1      15.302   7.357  20.128  1.00  0.00     0.020 C 
BRANCH  16  17
HETATM   17  C7  UNL     1      14.956   7.942  21.510  1.00  0.00     0.002 C 
BRANCH  17  18
HETATM   18  C6  UNL     1      14.886   6.893  22.552  1.00  0.00     0.002 C 
BRANCH  18  19
HETATM   19  C5  UNL     1      13.682   6.786  23.380  1.00  0.00     0.027 C 
BRANCH  19  20
HETATM   20  C4  UNL     1      12.618   5.855  22.989  1.00  0.00     0.232 C 
BRANCH  20  21
HETATM   21  N2  UNL     1      12.738   4.540  23.515  1.00  0.00    -0.075 N 
ATOM     22  H22 UNL     1      11.886   4.244  23.991  1.00  0.00     0.277 HD
ATOM     23  H21 UNL     1      13.377   4.508  24.309  1.00  0.00     0.277 HD
BRANCH  21  24
HETATM   24  C3  UNL     1      13.134   3.580  22.451  1.00  0.00     0.233 C 
BRANCH  24  25
HETATM   25  C2  UNL     1      12.379   3.816  21.185  1.00  0.00     0.055 C 
BRANCH  25  26
HETATM   26  C1  UNL     1      12.631   2.726  20.160  1.00  0.00     0.231 C 
BRANCH  26  27
HETATM   27  N1  UNL     1      12.939   1.467  20.800  1.00  0.00    -0.079 N 
ATOM     28  H13 UNL     1      13.732   1.004  20.354  1.00  0.00     0.274 HD
ATOM     29  H12 UNL     1      13.341   1.606  21.727  1.00  0.00     0.274 HD
ATOM     30  H11 UNL     1      12.121   0.859  20.833  1.00  0.00     0.274 HD
ENDBRANCH  26  27
ENDBRANCH  25  26
ENDBRANCH  24  25
ENDBRANCH  21  24
ENDBRANCH  20  21
ENDBRANCH  19  20
ENDBRANCH  18  19
ENDBRANCH  17  18
ENDBRANCH  16  17
ENDBRANCH  15  16
ENDBRANCH   1  15
BRANCH   8  31
HETATM   31  C15 UNL     1      23.315   4.708  17.834  1.00  0.00     0.306 C 
BRANCH  31  32
HETATM   32  C16 UNL     1      23.720   5.902  16.995  1.00  0.00     0.170 C 
BRANCH  32  33
HETATM   33  O2  UNL     1      24.267   5.410  15.776  1.00  0.00    -0.392 OA
ATOM     34  H2  UNL     1      24.581   6.156  15.277  1.00  0.00     0.210 HD
ENDBRANCH  32  33
BRANCH  32  35
HETATM   35  C17 UNL     1      24.806   6.707  17.638  1.00  0.00     0.209 C 
BRANCH  35  36
HETATM   36  O3  UNL     1      24.741   6.951  18.971  1.00  0.00    -0.349 OA
BRANCH  36  37
HETATM   37  C18 UNL     1      24.056   7.870  19.731  1.00  0.00     0.069 A 
HETATM   38  C19 UNL     1      23.058   7.541  20.615  1.00  0.00     0.038 A 
HETATM   39  C20 UNL     1      22.437   8.539  21.330  1.00  0.00     0.029 A 
HETATM   40  C21 UNL     1      22.765   9.875  21.209  1.00  0.00     0.046 A 
HETATM   41  N5  UNL     1      22.128  10.897  21.941  1.00  0.00    -0.102 NA
HETATM   42  C22 UNL     1      23.767  10.189  20.319  1.00  0.00     0.029 A 
HETATM   43  C23 UNL     1      24.402   9.222  19.595  1.00  0.00     0.038 A 
ENDBRANCH  36  37
ENDBRANCH  35  36
ENDBRANCH  32  35
ENDBRANCH  31  32
ENDBRANCH   8  31
TORSDOF 17
ENDMDL
MODEL 5
REMARK VINA RESULT: -6.837142071      1.305      1.877
REMARK  17 active torsions:
REMARK  status: ('A' for Active; 'I' for Inactive)
REMARK    1  A    between atoms: N1_1  and  C1_5 
REMARK    2  A    between atoms: C1_5  and  C2_6 
REMARK    3  A    between atoms: C2_6  and  C3_7 
REMARK    4  A    between atoms: C3_7  and  N2_8 
REMARK    5  A    between atoms: N2_8  and  C4_11 
REMARK    6  A    between atoms: C4_11  and  C5_12 
REMARK    7  A    between atoms: C5_12  and  C6_13 
REMARK    8  A    between atoms: C6_13  and  C7_14 
REMARK    9  A    between atoms: C7_14  and  C8_15 
REMARK   10  A    between atoms: C8_15  and  C9_16 
REMARK   11  A    between atoms: C9_16  and  N3_17 
REMARK   12  A    between atoms: N4_24  and  C15_25 
REMARK   13  A    between atoms: C15_25  and  C16_26 
REMARK   14  A    between atoms: C16_26  and  O2_27 
REMARK   15  A    between atoms: C16_26  and  C17_29 
REMARK   16  A    between atoms: C17_29  and  O3_30 
REMARK   17  A    between atoms: O3_30  and  C18_31 
ROOT
HETATM    1  N3  UNL     1      16.908   5.494  19.688  1.00  0.00    -0.295 N 
HETATM    2  C10 UNL     1      18.218   5.771  20.065  1.00  0.00     0.228 C 
HETATM    3  O1  UNL     1      18.399   6.274  21.204  1.00  0.00    -0.273 OA
HETATM    4  C11 UNL     1      19.405   5.517  19.226  1.00  0.00     0.134 C 
HETATM    5  C12 UNL     1      19.226   4.559  18.111  1.00  0.00     0.044 C 
HETATM    6  C13 UNL     1      19.806   5.159  16.845  1.00  0.00     0.061 C 
HETATM    7  C14 UNL     1      21.222   5.509  17.128  1.00  0.00     0.275 C 
HETATM    8  N4  UNL     1      21.924   4.702  18.052  1.00  0.00     0.091 N 
HETATM    9  C24 UNL     1      21.435   3.398  18.323  1.00  0.00     0.275 C 
HETATM   10  C25 UNL     1      19.951   3.249  18.302  1.00  0.00     0.061 C 
HETATM   11  N6  UNL     1      17.850   4.216  17.802  1.00  0.00    -0.357 N 
ATOM     12  H6  UNL     1      17.686   3.589  17.013  1.00  0.00     0.162 HD
HETATM   13  C26 UNL     1      16.718   4.685  18.511  1.00  0.00     0.177 C 
HETATM   14  S1  UNL     1      15.215   4.310  17.995  1.00  0.00    -0.041 SA
ENDROOT
BRANCH   1  15
HETATM   15  C9  UNL     1      15.693   5.934  20.339  1.00  0.00     0.134 C 
BRANCH  15  16
HETATM   16  C8  UNL     1      15.415   7.368  20.204  1.00  0.00     0.020 C 
BRANCH  16  17
HETATM   17  C7  UNL     1      14.941   7.928  21.558  1.00  0.00     0.002 C 
BRANCH  17  18
HETATM   18  C6  UNL     1      14.565   6.849  22.500  1.00  0.00     0.002 C 
BRANCH  18  19
HETATM   19  C5  UNL     1      13.199   6.804  23.028  1.00  0.00     0.027 C 
BRANCH  19  20
HETATM   20  C4  UNL     1      12.984   6.494  24.447  1.00  0.00     0.232 C 
BRANCH  20  21
HETATM   21  N2  UNL     1      13.410   7.499  25.358  1.00  0.00    -0.075 N 
ATOM     22  H22 UNL     1      12.621   7.940  25.830  1.00  0.00     0.277 HD
ATOM     23  H21 UNL     1      13.777   8.318  24.873  1.00  0.00     0.277 HD
BRANCH  21  24
HETATM   24  C3  UNL     1      14.393   6.949  26.328  1.00  0.00     0.233 C 
BRANCH  24  25
HETATM   25  C2  UNL     1      15.770   7.464  26.072  1.00  0.00     0.055 C 
BRANCH  25  26
HETATM   26  C1  UNL     1      16.660   7.344  27.295  1.00  0.00     0.231 C 
BRANCH  26  27
HETATM   27  N1  UNL     1      17.702   6.363  27.090  1.00  0.00    -0.079 N 
ATOM     28  H13 UNL     1      17.601   5.891  26.191  1.00  0.00     0.274 HD
ATOM     29  H12 UNL     1      18.608   6.804  26.933  1.00  0.00     0.274 HD
ATOM     30  H11 UNL     1      17.739   5.696  27.861  1.00  0.00     0.274 HD
ENDBRANCH  26  27
ENDBRANCH  25  26
ENDBRANCH  24  25
ENDBRANCH  21  24
ENDBRANCH  20  21
ENDBRANCH  19  20
ENDBRANCH  18  19
ENDBRANCH  17  18
ENDBRANCH  16  17
ENDBRANCH  15  16
ENDBRANCH   1  15
BRANCH   8  31
HETATM   31  C15 UNL     1      23.319   4.634  17.656  1.00  0.00     0.306 C 
BRANCH  31  32
HETATM   32  C16 UNL     1      23.742   5.887  16.917  1.00  0.00     0.170 C 
BRANCH  32  33
HETATM   33  O2  UNL     1      24.399   5.484  15.720  1.00  0.00    -0.392 OA
ATOM     34  H2  UNL     1      23.730   5.252  15.086  1.00  0.00     0.210 HD
ENDBRANCH  32  33
BRANCH  32  35
HETATM   35  C17 UNL     1      24.744   6.690  17.686  1.00  0.00     0.209 C 
BRANCH  35  36
HETATM   36  O3  UNL     1      24.562   6.865  19.020  1.00  0.00    -0.349 OA
BRANCH  36  37
HETATM   37  C18 UNL     1      23.940   7.835  19.769  1.00  0.00     0.069 A 
HETATM   38  C19 UNL     1      22.950   7.579  20.685  1.00  0.00     0.038 A 
HETATM   39  C20 UNL     1      22.395   8.624  21.386  1.00  0.00     0.029 A 
HETATM   40  C21 UNL     1      22.782   9.940  21.219  1.00  0.00     0.046 A 
HETATM   41  N5  UNL     1      22.212  11.010  21.936  1.00  0.00    -0.102 NA
HETATM   42  C22 UNL     1      23.775  10.181  20.297  1.00  0.00     0.029 A 
HETATM   43  C23 UNL     1      24.346   9.165  19.586  1.00  0.00     0.038 A 
ENDBRANCH  36  37
ENDBRANCH  35  36
ENDBRANCH  32  35
ENDBRANCH  31  32
ENDBRANCH   8  31
TORSDOF 17
ENDMDL
