MODEL 1
REMARK VINA RESULT: -8.761009685      0.000      0.000
REMARK  19 active torsions:
REMARK  status: ('A' for Active; 'I' for Inactive)
REMARK    1  A    between atoms: C2_2  and  C3_3 
REMARK    2  A    between atoms: C3_3  and  N1_4 
REMARK    3  A    between atoms: N1_4  and  C4_6 
REMARK    4  A    between atoms: C5_9  and  N3_10 
REMARK    5  A    between atoms: N3_10  and  C6_12 
REMARK    6  A    between atoms: C9_15  and  N4_16 
REMARK       I    between atoms: N4_16  and  C10_18 
REMARK    7  A    between atoms: C15_27  and  O1_28 
REMARK    8  A    between atoms: O1_28  and  C16_29 
REMARK    9  A    between atoms: C16_29  and  C17_30 
REMARK   10  A    between atoms: C17_30  and  O2_31 
REMARK   11  A    between atoms: O2_31  and  C18_32 
REMARK   12  A    between atoms: C18_32  and  C19_33 
REMARK   13  A    between atoms: C19_33  and  O3_34 
REMARK   14  A    between atoms: O3_34  and  C20_35 
REMARK   15  A    between atoms: C20_35  and  C21_36 
REMARK   16  A    between atoms: C21_36  and  O4_37 
REMARK   17  A    between atoms: O4_37  and  C22_38 
REMARK   18  A    between atoms: C22_38  and  C24_40 
REMARK   19  A    between atoms: C24_40  and  N7_41 
ROOT
HETATM    1  C4  UNL     1      22.951  11.654  21.565  1.00  0.00     0.680 A 
HETATM    2  N2  UNL     1      21.826  10.961  21.901  1.00  0.00    -0.176 N 
ATOM      3  H2  UNL     1      21.108  11.424  22.457  1.00  0.00     0.186 HD
HETATM    4  C5  UNL     1      21.638   9.693  21.524  1.00  0.00     0.134 A 
HETATM    5  C13 UNL     1      22.610   9.037  20.760  1.00  0.00     0.038 A 
HETATM    6  C14 UNL     1      22.422   7.709  20.360  1.00  0.00     0.054 A 
HETATM    7  C15 UNL     1      23.401   7.097  19.611  1.00  0.00     0.069 A 
HETATM    8  C29 UNL     1      24.558   7.823  19.269  1.00  0.00     0.039 A 
HETATM    9  C30 UNL     1      24.712   9.118  19.674  1.00  0.00     0.034 A 
HETATM   10  C31 UNL     1      23.733   9.740  20.428  1.00  0.00     0.063 A 
HETATM   11  N8  UNL     1      23.869  11.009  20.834  1.00  0.00    -0.191 N 
ATOM     12  H8  UNL     1      24.718  11.511  20.572  1.00  0.00     0.184 HD
ENDROOT
BRANCH   7  13
HETATM   13  O1  UNL     1      23.350   5.822  19.155  1.00  0.00    -0.349 OA
BRANCH  13  14
HETATM   14  C16 UNL     1      23.782   5.258  17.985  1.00  0.00     0.201 C 
BRANCH  14  15
HETATM   15  C17 UNL     1      22.827   5.241  16.834  1.00  0.00     0.194 C 
BRANCH  15  16
HETATM   16  O2  UNL     1      22.493   6.498  16.339  1.00  0.00    -0.387 OA
BRANCH  16  17
HETATM   17  C18 UNL     1      21.136   6.567  16.142  1.00  0.00     0.193 C 
BRANCH  17  18
HETATM   18  C19 UNL     1      20.357   6.700  17.429  1.00  0.00     0.193 C 
BRANCH  18  19
HETATM   19  O3  UNL     1      19.170   6.035  17.473  1.00  0.00    -0.387 OA
BRANCH  19  20
HETATM   20  C20 UNL     1      19.260   4.676  17.240  1.00  0.00     0.193 C 
BRANCH  20  21
HETATM   21  C21 UNL     1      18.036   3.982  17.773  1.00  0.00     0.194 C 
BRANCH  21  22
HETATM   22  O4  UNL     1      16.997   4.795  18.128  1.00  0.00    -0.383 OA
BRANCH  22  23
HETATM   23  C22 UNL     1      16.418   4.505  19.366  1.00  0.00     0.135 C 
HETATM   24  C23 UNL     1      16.385   3.000  19.496  1.00  0.00     0.041 C 
BRANCH  23  25
HETATM   25  C24 UNL     1      17.249   5.055  20.500  1.00  0.00     0.157 C 
BRANCH  25  26
HETATM   26  N7  UNL     1      16.580   6.188  21.092  1.00  0.00    -0.350 N 
HETATM   27  C25 UNL     1      15.897   6.304  22.360  1.00  0.00     0.126 C 
HETATM   28  C26 UNL     1      14.909   7.414  22.129  1.00  0.00     0.029 C 
HETATM   29  C27 UNL     1      15.250   8.095  20.849  1.00  0.00     0.104 C 
HETATM   30  C28 UNL     1      16.533   7.484  20.447  1.00  0.00     0.219 C 
HETATM   31  O5  UNL     1      17.455   7.942  19.692  1.00  0.00    -0.273 OA
ENDBRANCH  25  26
ENDBRANCH  23  25
ENDBRANCH  22  23
ENDBRANCH  21  22
ENDBRANCH  20  21
ENDBRANCH  19  20
ENDBRANCH  18  19
ENDBRANCH  17  18
ENDBRANCH  16  17
ENDBRANCH  15  16
ENDBRANCH  14  15
ENDBRANCH  13  14
ENDBRANCH   7  13
BRANCH   4  32
HETATM   32  N3  UNL     1      20.598   9.005  21.827  1.00  0.00    -0.341 N 
ATOM     33  H3  UNL     1      20.312   8.256  21.196  1.00  0.00     0.167 HD
BRANCH  32  34
HETATM   34  C6  UNL     1      19.830   9.232  22.992  1.00  0.00     0.033 A 
HETATM   35  C7  UNL     1      18.856   8.333  23.409  1.00  0.00     0.032 A 
HETATM   36  C8  UNL     1      18.139   8.604  24.528  1.00  0.00     0.032 A 
HETATM   37  C9  UNL     1      18.338   9.752  25.285  1.00  0.00     0.034 A 
HETATM   38  C11 UNL     1      19.316  10.644  24.859  1.00  0.00     0.032 A 
HETATM   39  C12 UNL     1      20.027  10.367  23.739  1.00  0.00     0.032 A 
BRANCH  37  40
HETATM   40  N4  UNL     1      17.573   9.998  26.441  1.00  0.00    -0.331 N 
HETATM   41  C10 UNL     1      18.161   9.849  27.714  1.00  0.00     0.186 C 
HETATM   42  N5  UNL     1      18.105   8.724  28.319  1.00  0.00    -0.373 N 
HETATM   43  N6  UNL     1      18.814  10.967  28.312  1.00  0.00    -0.064 NA
ATOM     44  H52 UNL     1      17.637   7.924  27.892  1.00  0.00     0.158 HD
ATOM     45  H51 UNL     1      18.530   8.615  29.241  1.00  0.00     0.158 HD
ATOM     46  H4  UNL     1      16.597  10.283  26.358  1.00  0.00     0.168 HD
ENDBRANCH  37  40
ENDBRANCH  32  34
ENDBRANCH   4  32
BRANCH   1  47
HETATM   47  N1  UNL     1      23.085  12.880  21.956  1.00  0.00    -0.226 N 
ATOM     48  H1  UNL     1      22.927  13.650  21.307  1.00  0.00     0.177 HD
BRANCH  47  49
HETATM   49  C3  UNL     1      23.461  13.144  23.327  1.00  0.00     0.137 C 
BRANCH  49  50
HETATM   50  C2  UNL     1      22.666  14.284  23.920  1.00  0.00     0.016 C 
HETATM   51  C1  UNL     1      21.421  13.794  24.595  1.00  0.00     0.006 C 
ENDBRANCH  49  50
ENDBRANCH  47  49
ENDBRANCH   1  47
TORSDOF 19
ENDMDL
MODEL 2
REMARK VINA RESULT: -8.735391859      2.113      3.015
REMARK  19 active torsions:
REMARK  status: ('A' for Active; 'I' for Inactive)
REMARK    1  A    between atoms: C2_2  and  C3_3 
REMARK    2  A    between atoms: C3_3  and  N1_4 
REMARK    3  A    between atoms: N1_4  and  C4_6 
REMARK    4  A    between atoms: C5_9  and  N3_10 
REMARK    5  A    between atoms: N3_10  and  C6_12 
REMARK    6  A    between atoms: C9_15  and  N4_16 
REMARK       I    between atoms: N4_16  and  C10_18 
REMARK    7  A    between atoms: C15_27  and  O1_28 
REMARK    8  A    between atoms: O1_28  and  C16_29 
REMARK    9  A    between atoms: C16_29  and  C17_30 
REMARK   10  A    between atoms: C17_30  and  O2_31 
REMARK   11  A    between atoms: O2_31  and  C18_32 
REMARK   12  A    between atoms: C18_32  and  C19_33 
REMARK   13  A    between atoms: C19_33  and  O3_34 
REMARK   14  A    between atoms: O3_34  and  C20_35 
REMARK   15  A    between atoms: C20_35  and  C21_36 
REMARK   16  A    between atoms: C21_36  and  O4_37 
REMARK   17  A    between atoms: O4_37  and  C22_38 
REMARK   18  A    between atoms: C22_38  and  C24_40 
REMARK   19  A    between atoms: C24_40  and  N7_41 
ROOT
HETATM    1  C4  UNL     1      22.760  11.266  21.402  1.00  0.00     0.680 A 
HETATM    2  N2  UNL     1      21.979  10.340  22.029  1.00  0.00    -0.176 N 
ATOM      3  H2  UNL     1      21.332  10.648  22.755  1.00  0.00     0.186 HD
HETATM    4  C5  UNL     1      22.038   9.042  21.721  1.00  0.00     0.134 A 
HETATM    5  C13 UNL     1      22.918   8.595  20.729  1.00  0.00     0.038 A 
HETATM    6  C14 UNL     1      22.987   7.236  20.400  1.00  0.00     0.054 A 
HETATM    7  C15 UNL     1      23.866   6.835  19.419  1.00  0.00     0.069 A 
HETATM    8  C29 UNL     1      24.667   7.800  18.778  1.00  0.00     0.039 A 
HETATM    9  C30 UNL     1      24.576   9.119  19.123  1.00  0.00     0.034 A 
HETATM   10  C31 UNL     1      23.695   9.530  20.107  1.00  0.00     0.063 A 
HETATM   11  N8  UNL     1      23.595  10.819  20.456  1.00  0.00    -0.191 N 
ATOM     12  H8  UNL     1      24.188  11.496  19.976  1.00  0.00     0.184 HD
ENDROOT
BRANCH   7  13
HETATM   13  O1  UNL     1      24.034   5.558  19.000  1.00  0.00    -0.349 OA
BRANCH  13  14
HETATM   14  C16 UNL     1      24.048   5.009  17.745  1.00  0.00     0.201 C 
BRANCH  14  15
HETATM   15  C17 UNL     1      22.778   5.059  16.956  1.00  0.00     0.194 C 
BRANCH  15  16
HETATM   16  O2  UNL     1      22.607   6.219  16.206  1.00  0.00    -0.387 OA
BRANCH  16  17
HETATM   17  C18 UNL     1      21.274   6.543  16.161  1.00  0.00     0.193 C 
BRANCH  17  18
HETATM   18  C19 UNL     1      20.652   6.683  17.530  1.00  0.00     0.193 C 
BRANCH  18  19
HETATM   19  O3  UNL     1      19.363   6.260  17.641  1.00  0.00    -0.387 OA
BRANCH  19  20
HETATM   20  C20 UNL     1      19.158   4.936  17.304  1.00  0.00     0.193 C 
BRANCH  20  21
HETATM   21  C21 UNL     1      18.179   4.309  18.259  1.00  0.00     0.194 C 
BRANCH  21  22
HETATM   22  O4  UNL     1      17.358   3.355  17.729  1.00  0.00    -0.383 OA
BRANCH  22  23
HETATM   23  C22 UNL     1      16.801   2.474  18.659  1.00  0.00     0.135 C 
HETATM   24  C23 UNL     1      17.948   1.857  19.424  1.00  0.00     0.041 C 
BRANCH  23  25
HETATM   25  C24 UNL     1      15.920   3.204  19.644  1.00  0.00     0.157 C 
BRANCH  25  26
HETATM   26  N7  UNL     1      14.710   3.639  18.990  1.00  0.00    -0.350 N 
HETATM   27  C25 UNL     1      13.516   2.897  18.658  1.00  0.00     0.126 C 
HETATM   28  C26 UNL     1      12.947   3.647  17.485  1.00  0.00     0.029 C 
HETATM   29  C27 UNL     1      13.658   4.951  17.365  1.00  0.00     0.104 C 
HETATM   30  C28 UNL     1      14.505   5.011  18.574  1.00  0.00     0.219 C 
HETATM   31  O5  UNL     1      14.991   6.024  19.180  1.00  0.00    -0.273 OA
ENDBRANCH  25  26
ENDBRANCH  23  25
ENDBRANCH  22  23
ENDBRANCH  21  22
ENDBRANCH  20  21
ENDBRANCH  19  20
ENDBRANCH  18  19
ENDBRANCH  17  18
ENDBRANCH  16  17
ENDBRANCH  15  16
ENDBRANCH  14  15
ENDBRANCH  13  14
ENDBRANCH   7  13
BRANCH   4  32
HETATM   32  N3  UNL     1      21.327   8.139  22.293  1.00  0.00    -0.341 N 
ATOM     33  H3  UNL     1      21.798   7.451  22.881  1.00  0.00     0.167 HD
BRANCH  32  34
HETATM   34  C6  UNL     1      19.923   8.051  22.149  1.00  0.00     0.033 A 
HETATM   35  C7  UNL     1      19.339   7.620  20.964  1.00  0.00     0.032 A 
HETATM   36  C8  UNL     1      17.987   7.564  20.874  1.00  0.00     0.032 A 
HETATM   37  C9  UNL     1      17.150   7.921  21.924  1.00  0.00     0.034 A 
HETATM   38  C11 UNL     1      17.746   8.350  23.106  1.00  0.00     0.032 A 
HETATM   39  C12 UNL     1      19.098   8.404  23.187  1.00  0.00     0.032 A 
BRANCH  37  40
HETATM   40  N4  UNL     1      15.750   7.850  21.792  1.00  0.00    -0.331 N 
HETATM   41  C10 UNL     1      15.021   6.922  22.564  1.00  0.00     0.186 C 
HETATM   42  N5  UNL     1      14.791   5.749  22.109  1.00  0.00    -0.373 N 
HETATM   43  N6  UNL     1      14.546   7.311  23.851  1.00  0.00    -0.064 NA
ATOM     44  H52 UNL     1      15.130   5.470  21.188  1.00  0.00     0.158 HD
ATOM     45  H51 UNL     1      14.263   5.077  22.666  1.00  0.00     0.158 HD
ATOM     46  H4  UNL     1      15.266   8.467  21.141  1.00  0.00     0.168 HD
ENDBRANCH  37  40
ENDBRANCH  32  34
ENDBRANCH   4  32
BRANCH   1  47
HETATM   47  N1  UNL     1      22.665  12.512  21.739  1.00  0.00    -0.226 N 
ATOM     48  H1  UNL     1      22.167  13.171  21.143  1.00  0.00     0.177 HD
BRANCH  47  49
HETATM   49  C3  UNL     1      23.276  12.956  22.971  1.00  0.00     0.137 C 
BRANCH  49  50
HETATM   50  C2  UNL     1      22.244  13.275  24.028  1.00  0.00     0.016 C 
HETATM   51  C1  UNL     1      22.705  14.379  24.932  1.00  0.00     0.006 C 
ENDBRANCH  49  50
ENDBRANCH  47  49
ENDBRANCH   1  47
TORSDOF 19
ENDMDL
MODEL 3
REMARK VINA RESULT: -8.671880458      0.822      2.141
REMARK  19 active torsions:
REMARK  status: ('A' for Active; 'I' for Inactive)
REMARK    1  A    between atoms: C2_2  and  C3_3 
REMARK    2  A    between atoms: C3_3  and  N1_4 
REMARK    3  A    between atoms: N1_4  and  C4_6 
REMARK    4  A    between atoms: C5_9  and  N3_10 
REMARK    5  A    between atoms: N3_10  and  C6_12 
REMARK    6  A    between atoms: C9_15  and  N4_16 
REMARK       I    between atoms: N4_16  and  C10_18 
REMARK    7  A    between atoms: C15_27  and  O1_28 
REMARK    8  A    between atoms: O1_28  and  C16_29 
REMARK    9  A    between atoms: C16_29  and  C17_30 
REMARK   10  A    between atoms: C17_30  and  O2_31 
REMARK   11  A    between atoms: O2_31  and  C18_32 
REMARK   12  A    between atoms: C18_32  and  C19_33 
REMARK   13  A    between atoms: C19_33  and  O3_34 
REMARK   14  A    between atoms: O3_34  and  C20_35 
REMARK   15  A    between atoms: C20_35  and  C21_36 
REMARK   16  A    between atoms: C21_36  and  O4_37 
REMARK   17  A    between atoms: O4_37  and  C22_38 
REMARK   18  A    between atoms: C22_38  and  C24_40 
REMARK   19  A    between atoms: C24_40  and  N7_41 
ROOT
HETATM    1  C4  UNL     1      22.981  11.658  21.544  1.00  0.00     0.680 A 
HETATM    2  N2  UNL     1      21.865  10.958  21.894  1.00  0.00    -0.176 N 
ATOM      3  H2  UNL     1      21.145  11.420  22.449  1.00  0.00     0.186 HD
HETATM    4  C5  UNL     1      21.686   9.685  21.531  1.00  0.00     0.134 A 
HETATM    5  C13 UNL     1      22.660   9.030  20.769  1.00  0.00     0.038 A 
HETATM    6  C14 UNL     1      22.483   7.695  20.385  1.00  0.00     0.054 A 
HETATM    7  C15 UNL     1      23.463   7.084  19.637  1.00  0.00     0.069 A 
HETATM    8  C29 UNL     1      24.612   7.817  19.281  1.00  0.00     0.039 A 
HETATM    9  C30 UNL     1      24.756   9.118  19.672  1.00  0.00     0.034 A 
HETATM   10  C31 UNL     1      23.775   9.739  20.423  1.00  0.00     0.063 A 
HETATM   11  N8  UNL     1      23.901  11.014  20.815  1.00  0.00    -0.191 N 
ATOM     12  H8  UNL     1      24.744  11.520  20.543  1.00  0.00     0.184 HD
ENDROOT
BRANCH   7  13
HETATM   13  O1  UNL     1      23.422   5.804  19.196  1.00  0.00    -0.349 OA
BRANCH  13  14
HETATM   14  C16 UNL     1      23.629   5.264  17.955  1.00  0.00     0.201 C 
BRANCH  14  15
HETATM   15  C17 UNL     1      22.507   5.354  16.968  1.00  0.00     0.194 C 
BRANCH  15  16
HETATM   16  O2  UNL     1      22.430   6.565  16.287  1.00  0.00    -0.387 OA
BRANCH  16  17
HETATM   17  C18 UNL     1      21.114   6.932  16.155  1.00  0.00     0.193 C 
BRANCH  17  18
HETATM   18  C19 UNL     1      20.198   6.206  17.111  1.00  0.00     0.193 C 
BRANCH  18  19
HETATM   19  O3  UNL     1      19.349   6.991  17.830  1.00  0.00    -0.387 OA
BRANCH  19  20
HETATM   20  C20 UNL     1      19.228   6.644  19.161  1.00  0.00     0.193 C 
BRANCH  20  21
HETATM   21  C21 UNL     1      18.276   7.584  19.852  1.00  0.00     0.194 C 
BRANCH  21  22
HETATM   22  O4  UNL     1      16.973   7.513  19.449  1.00  0.00    -0.383 OA
BRANCH  22  23
HETATM   23  C22 UNL     1      16.107   6.903  20.360  1.00  0.00     0.135 C 
HETATM   24  C23 UNL     1      15.240   7.994  20.942  1.00  0.00     0.041 C 
BRANCH  23  25
HETATM   25  C24 UNL     1      15.207   5.904  19.674  1.00  0.00     0.157 C 
BRANCH  25  26
HETATM   26  N7  UNL     1      15.968   4.738  19.298  1.00  0.00    -0.350 N 
HETATM   27  C25 UNL     1      16.647   3.766  20.123  1.00  0.00     0.126 C 
HETATM   28  C26 UNL     1      17.731   3.235  19.226  1.00  0.00     0.029 C 
HETATM   29  C27 UNL     1      17.463   3.694  17.834  1.00  0.00     0.104 C 
HETATM   30  C28 UNL     1      16.135   4.335  17.916  1.00  0.00     0.219 C 
HETATM   31  O5  UNL     1      15.264   4.529  17.003  1.00  0.00    -0.273 OA
ENDBRANCH  25  26
ENDBRANCH  23  25
ENDBRANCH  22  23
ENDBRANCH  21  22
ENDBRANCH  20  21
ENDBRANCH  19  20
ENDBRANCH  18  19
ENDBRANCH  17  18
ENDBRANCH  16  17
ENDBRANCH  15  16
ENDBRANCH  14  15
ENDBRANCH  13  14
ENDBRANCH   7  13
BRANCH   4  32
HETATM   32  N3  UNL     1      20.655   8.990  21.847  1.00  0.00    -0.341 N 
ATOM     33  H3  UNL     1      20.382   8.221  21.235  1.00  0.00     0.167 HD
BRANCH  32  34
HETATM   34  C6  UNL     1      19.878   9.237  23.003  1.00  0.00     0.033 A 
HETATM   35  C7  UNL     1      18.912   8.337  23.437  1.00  0.00     0.032 A 
HETATM   36  C8  UNL     1      18.187   8.626  24.545  1.00  0.00     0.032 A 
HETATM   37  C9  UNL     1      18.368   9.795  25.275  1.00  0.00     0.034 A 
HETATM   38  C11 UNL     1      19.338  10.688  24.832  1.00  0.00     0.032 A 
HETATM   39  C12 UNL     1      20.058  10.391  23.723  1.00  0.00     0.032 A 
BRANCH  37  40
HETATM   40  N4  UNL     1      17.594  10.060  26.421  1.00  0.00    -0.331 N 
HETATM   41  C10 UNL     1      18.174   9.937  27.701  1.00  0.00     0.186 C 
HETATM   42  N5  UNL     1      18.117   8.823  28.327  1.00  0.00    -0.373 N 
HETATM   43  N6  UNL     1      18.819  11.069  28.281  1.00  0.00    -0.064 NA
ATOM     44  H52 UNL     1      17.656   8.014  27.912  1.00  0.00     0.158 HD
ATOM     45  H51 UNL     1      18.537   8.734  29.253  1.00  0.00     0.158 HD
ATOM     46  H4  UNL     1      16.618  10.340  26.326  1.00  0.00     0.168 HD
ENDBRANCH  37  40
ENDBRANCH  32  34
ENDBRANCH   4  32
BRANCH   1  47
HETATM   47  N1  UNL     1      23.106  12.889  21.921  1.00  0.00    -0.226 N 
ATOM     48  H1  UNL     1      22.965  13.650  21.257  1.00  0.00     0.177 HD
BRANCH  47  49
HETATM   49  C3  UNL     1      23.447  13.172  23.297  1.00  0.00     0.137 C 
BRANCH  49  50
HETATM   50  C2  UNL     1      22.639  14.322  23.853  1.00  0.00     0.016 C 
HETATM   51  C1  UNL     1      21.475  13.836  24.662  1.00  0.00     0.006 C 
ENDBRANCH  49  50
ENDBRANCH  47  49
ENDBRANCH   1  47
TORSDOF 19
ENDMDL
MODEL 4
REMARK VINA RESULT: -8.657699182      2.756      4.553
REMARK  19 active torsions:
REMARK  status: ('A' for Active; 'I' for Inactive)
REMARK    1  A    between atoms: C2_2  and  C3_3 
REMARK    2  A    between atoms: C3_3  and  N1_4 
REMARK    3  A    between atoms: N1_4  and  C4_6 
REMARK    4  A    between atoms: C5_9  and  N3_10 
REMARK    5  A    between atoms: N3_10  and  C6_12 
REMARK    6  A    between atoms: C9_15  and  N4_16 
REMARK       I    between atoms: N4_16  and  C10_18 
REMARK    7  A    between atoms: C15_27  and  O1_28 
REMARK    8  A    between atoms: O1_28  and  C16_29 
REMARK    9  A    between atoms: C16_29  and  C17_30 
REMARK   10  A    between atoms: C17_30  and  O2_31 
REMARK   11  A    between atoms: O2_31  and  C18_32 
REMARK   12  A    between atoms: C18_32  and  C19_33 
REMARK   13  A    between atoms: C19_33  and  O3_34 
REMARK   14  A    between atoms: O3_34  and  C20_35 
REMARK   15  A    between atoms: C20_35  and  C21_36 
REMARK   16  A    between atoms: C21_36  and  O4_37 
REMARK   17  A    between atoms: O4_37  and  C22_38 
REMARK   18  A    between atoms: C22_38  and  C24_40 
REMARK   19  A    between atoms: C24_40  and  N7_41 
ROOT
HETATM    1  C4  UNL     1      22.855  11.113  21.030  1.00  0.00     0.680 A 
HETATM    2  N2  UNL     1      22.047  10.209  21.652  1.00  0.00    -0.176 N 
ATOM      3  H2  UNL     1      21.391  10.537  22.361  1.00  0.00     0.186 HD
HETATM    4  C5  UNL     1      22.088   8.906  21.361  1.00  0.00     0.134 A 
HETATM    5  C13 UNL     1      22.979   8.432  20.392  1.00  0.00     0.038 A 
HETATM    6  C14 UNL     1      23.030   7.068  20.080  1.00  0.00     0.054 A 
HETATM    7  C15 UNL     1      23.920   6.640  19.122  1.00  0.00     0.069 A 
HETATM    8  C29 UNL     1      24.751   7.583  18.485  1.00  0.00     0.039 A 
HETATM    9  C30 UNL     1      24.677   8.907  18.812  1.00  0.00     0.034 A 
HETATM   10  C31 UNL     1      23.785   9.346  19.773  1.00  0.00     0.063 A 
HETATM   11  N8  UNL     1      23.701  10.640  20.106  1.00  0.00    -0.191 N 
ATOM     12  H8  UNL     1      24.314  11.301  19.629  1.00  0.00     0.184 HD
ENDROOT
BRANCH   7  13
HETATM   13  O1  UNL     1      24.074   5.355  18.720  1.00  0.00    -0.349 OA
BRANCH  13  14
HETATM   14  C16 UNL     1      23.879   4.753  17.506  1.00  0.00     0.201 C 
BRANCH  14  15
HETATM   15  C17 UNL     1      22.482   4.716  16.971  1.00  0.00     0.194 C 
BRANCH  15  16
HETATM   16  O2  UNL     1      21.500   4.498  17.932  1.00  0.00    -0.387 OA
BRANCH  16  17
HETATM   17  C18 UNL     1      20.457   5.367  17.727  1.00  0.00     0.193 C 
BRANCH  17  18
HETATM   18  C19 UNL     1      19.153   4.667  17.429  1.00  0.00     0.193 C 
BRANCH  18  19
HETATM   19  O3  UNL     1      18.040   5.232  17.974  1.00  0.00    -0.387 OA
BRANCH  19  20
HETATM   20  C20 UNL     1      17.269   4.373  18.732  1.00  0.00     0.193 C 
BRANCH  20  21
HETATM   21  C21 UNL     1      16.070   3.925  17.939  1.00  0.00     0.194 C 
BRANCH  21  22
HETATM   22  O4  UNL     1      14.874   3.961  18.597  1.00  0.00    -0.383 OA
BRANCH  22  23
HETATM   23  C22 UNL     1      13.769   3.576  17.833  1.00  0.00     0.135 C 
HETATM   24  C23 UNL     1      13.075   4.844  17.394  1.00  0.00     0.041 C 
BRANCH  23  25
HETATM   25  C24 UNL     1      14.196   2.822  16.596  1.00  0.00     0.157 C 
BRANCH  25  26
HETATM   26  N7  UNL     1      13.295   1.720  16.361  1.00  0.00    -0.350 N 
HETATM   27  C25 UNL     1      12.253   1.178  17.201  1.00  0.00     0.126 C 
HETATM   28  C26 UNL     1      12.142  -0.252  16.749  1.00  0.00     0.029 C 
HETATM   29  C27 UNL     1      12.905  -0.409  15.479  1.00  0.00     0.104 C 
HETATM   30  C28 UNL     1      13.298   0.969  15.123  1.00  0.00     0.219 C 
HETATM   31  O5  UNL     1      13.593   1.465  13.984  1.00  0.00    -0.273 OA
ENDBRANCH  25  26
ENDBRANCH  23  25
ENDBRANCH  22  23
ENDBRANCH  21  22
ENDBRANCH  20  21
ENDBRANCH  19  20
ENDBRANCH  18  19
ENDBRANCH  17  18
ENDBRANCH  16  17
ENDBRANCH  15  16
ENDBRANCH  14  15
ENDBRANCH  13  14
ENDBRANCH   7  13
BRANCH   4  32
HETATM   32  N3  UNL     1      21.350   8.023  21.929  1.00  0.00    -0.341 N 
ATOM     33  H3  UNL     1      21.805   7.274  22.452  1.00  0.00     0.167 HD
BRANCH  32  34
HETATM   34  C6  UNL     1      19.937   8.037  21.868  1.00  0.00     0.033 A 
HETATM   35  C7  UNL     1      19.164   8.356  22.978  1.00  0.00     0.032 A 
HETATM   36  C8  UNL     1      17.812   8.345  22.869  1.00  0.00     0.032 A 
HETATM   37  C9  UNL     1      17.158   8.025  21.686  1.00  0.00     0.034 A 
HETATM   38  C11 UNL     1      17.942   7.709  20.581  1.00  0.00     0.032 A 
HETATM   39  C12 UNL     1      19.293   7.722  20.698  1.00  0.00     0.032 A 
BRANCH  37  40
HETATM   40  N4  UNL     1      15.752   8.024  21.613  1.00  0.00    -0.331 N 
HETATM   41  C10 UNL     1      15.044   6.818  21.793  1.00  0.00     0.186 C 
HETATM   42  N5  UNL     1      14.766   6.079  20.787  1.00  0.00    -0.373 N 
HETATM   43  N6  UNL     1      14.645   6.439  23.109  1.00  0.00    -0.064 NA
ATOM     44  H52 UNL     1      15.051   6.351  19.845  1.00  0.00     0.158 HD
ATOM     45  H51 UNL     1      14.253   5.207  20.917  1.00  0.00     0.158 HD
ATOM     46  H4  UNL     1      15.248   8.891  21.430  1.00  0.00     0.168 HD
ENDBRANCH  37  40
ENDBRANCH  32  34
ENDBRANCH   4  32
BRANCH   1  47
HETATM   47  N1  UNL     1      22.776  12.364  21.349  1.00  0.00    -0.226 N 
ATOM     48  H1  UNL     1      22.457  13.052  20.668  1.00  0.00     0.177 HD
BRANCH  47  49
HETATM   49  C3  UNL     1      23.148  12.774  22.685  1.00  0.00     0.137 C 
BRANCH  49  50
HETATM   50  C2  UNL     1      24.514  12.256  23.074  1.00  0.00     0.016 C 
HETATM   51  C1  UNL     1      24.715  12.295  24.558  1.00  0.00     0.006 C 
ENDBRANCH  49  50
ENDBRANCH  47  49
ENDBRANCH   1  47
TORSDOF 19
ENDMDL
MODEL 5
REMARK VINA RESULT: -8.633549486      1.202      1.659
REMARK  19 active torsions:
REMARK  status: ('A' for Active; 'I' for Inactive)
REMARK    1  A    between atoms: C2_2  and  C3_3 
REMARK    2  A    between atoms: C3_3  and  N1_4 
REMARK    3  A    between atoms: N1_4  and  C4_6 
REMARK    4  A    between atoms: C5_9  and  N3_10 
REMARK    5  A    between atoms: N3_10  and  C6_12 
REMARK    6  A    between atoms: C9_15  and  N4_16 
REMARK       I    between atoms: N4_16  and  C10_18 
REMARK    7  A    between atoms: C15_27  and  O1_28 
REMARK    8  A    between atoms: O1_28  and  C16_29 
REMARK    9  A    between atoms: C16_29  and  C17_30 
REMARK   10  A    between atoms: C17_30  and  O2_31 
REMARK   11  A    between atoms: O2_31  and  C18_32 
REMARK   12  A    between atoms: C18_32  and  C19_33 
REMARK   13  A    between atoms: C19_33  and  O3_34 
REMARK   14  A    between atoms: O3_34  and  C20_35 
REMARK   15  A    between atoms: C20_35  and  C21_36 
REMARK   16  A    between atoms: C21_36  and  O4_37 
REMARK   17  A    between atoms: O4_37  and  C22_38 
REMARK   18  A    between atoms: C22_38  and  C24_40 
REMARK   19  A    between atoms: C24_40  and  N7_41 
ROOT
HETATM    1  C4  UNL     1      22.939  11.619  21.534  1.00  0.00     0.680 A 
HETATM    2  N2  UNL     1      21.824  10.916  21.883  1.00  0.00    -0.176 N 
ATOM      3  H2  UNL     1      21.104  11.374  22.441  1.00  0.00     0.186 HD
HETATM    4  C5  UNL     1      21.648   9.643  21.516  1.00  0.00     0.134 A 
HETATM    5  C13 UNL     1      22.622   8.993  20.750  1.00  0.00     0.038 A 
HETATM    6  C14 UNL     1      22.447   7.660  20.361  1.00  0.00     0.054 A 
HETATM    7  C15 UNL     1      23.428   7.054  19.610  1.00  0.00     0.069 A 
HETATM    8  C29 UNL     1      24.575   7.790  19.256  1.00  0.00     0.039 A 
HETATM    9  C30 UNL     1      24.717   9.090  19.651  1.00  0.00     0.034 A 
HETATM   10  C31 UNL     1      23.735   9.706  20.406  1.00  0.00     0.063 A 
HETATM   11  N8  UNL     1      23.859  10.979  20.802  1.00  0.00    -0.191 N 
ATOM     12  H8  UNL     1      24.700  11.489  20.532  1.00  0.00     0.184 HD
ENDROOT
BRANCH   7  13
HETATM   13  O1  UNL     1      23.389   5.775  19.164  1.00  0.00    -0.349 OA
BRANCH  13  14
HETATM   14  C16 UNL     1      23.538   5.246  17.910  1.00  0.00     0.201 C 
BRANCH  14  15
HETATM   15  C17 UNL     1      22.377   5.358  16.972  1.00  0.00     0.194 C 
BRANCH  15  16
HETATM   16  O2  UNL     1      22.317   6.556  16.265  1.00  0.00    -0.387 OA
BRANCH  16  17
HETATM   17  C18 UNL     1      21.011   6.968  16.174  1.00  0.00     0.193 C 
BRANCH  17  18
HETATM   18  C19 UNL     1      20.176   6.558  17.364  1.00  0.00     0.193 C 
BRANCH  18  19
HETATM   19  O3  UNL     1      19.330   7.508  17.849  1.00  0.00    -0.387 OA
BRANCH  19  20
HETATM   20  C20 UNL     1      18.971   7.342  19.172  1.00  0.00     0.193 C 
BRANCH  20  21
HETATM   21  C21 UNL     1      18.208   6.055  19.340  1.00  0.00     0.194 C 
BRANCH  21  22
HETATM   22  O4  UNL     1      16.848   6.157  19.274  1.00  0.00    -0.383 OA
BRANCH  22  23
HETATM   23  C22 UNL     1      16.224   6.489  20.480  1.00  0.00     0.135 C 
HETATM   24  C23 UNL     1      15.352   7.693  20.207  1.00  0.00     0.041 C 
BRANCH  23  25
HETATM   25  C24 UNL     1      15.336   5.367  20.962  1.00  0.00     0.157 C 
BRANCH  25  26
HETATM   26  N7  UNL     1      14.751   5.719  22.233  1.00  0.00    -0.350 N 
HETATM   27  C25 UNL     1      13.363   5.859  22.609  1.00  0.00     0.126 C 
HETATM   28  C26 UNL     1      13.405   6.821  23.764  1.00  0.00     0.029 C 
HETATM   29  C27 UNL     1      14.820   6.973  24.204  1.00  0.00     0.104 C 
HETATM   30  C28 UNL     1      15.554   5.965  23.413  1.00  0.00     0.219 C 
HETATM   31  O5  UNL     1      16.666   5.388  23.657  1.00  0.00    -0.273 OA
ENDBRANCH  25  26
ENDBRANCH  23  25
ENDBRANCH  22  23
ENDBRANCH  21  22
ENDBRANCH  20  21
ENDBRANCH  19  20
ENDBRANCH  18  19
ENDBRANCH  17  18
ENDBRANCH  16  17
ENDBRANCH  15  16
ENDBRANCH  14  15
ENDBRANCH  13  14
ENDBRANCH   7  13
BRANCH   4  32
HETATM   32  N3  UNL     1      20.618   8.945  21.830  1.00  0.00    -0.341 N 
ATOM     33  H3  UNL     1      20.341   8.183  21.210  1.00  0.00     0.167 HD
BRANCH  32  34
HETATM   34  C6  UNL     1      19.848   9.179  22.994  1.00  0.00     0.033 A 
HETATM   35  C7  UNL     1      18.897   8.266  23.432  1.00  0.00     0.032 A 
HETATM   36  C8  UNL     1      18.178   8.543  24.548  1.00  0.00     0.032 A 
HETATM   37  C9  UNL     1      18.352   9.711  25.281  1.00  0.00     0.034 A 
HETATM   38  C11 UNL     1      19.307  10.617  24.833  1.00  0.00     0.032 A 
HETATM   39  C12 UNL     1      20.021  10.332  23.716  1.00  0.00     0.032 A 
BRANCH  37  40
HETATM   40  N4  UNL     1      17.585   9.963  26.434  1.00  0.00    -0.331 N 
HETATM   41  C10 UNL     1      18.162   9.792  27.709  1.00  0.00     0.186 C 
HETATM   42  N5  UNL     1      18.080   8.663  28.305  1.00  0.00    -0.373 N 
HETATM   43  N6  UNL     1      18.834  10.891  28.320  1.00  0.00    -0.064 NA
ATOM     44  H52 UNL     1      17.599   7.876  27.869  1.00  0.00     0.158 HD
ATOM     45  H51 UNL     1      18.498   8.538  29.228  1.00  0.00     0.158 HD
ATOM     46  H4  UNL     1      16.616  10.268  26.348  1.00  0.00     0.168 HD
ENDBRANCH  37  40
ENDBRANCH  32  34
ENDBRANCH   4  32
BRANCH   1  47
HETATM   47  N1  UNL     1      23.061  12.849  21.917  1.00  0.00    -0.226 N 
ATOM     48  H1  UNL     1      22.912  13.612  21.257  1.00  0.00     0.177 HD
BRANCH  47  49
HETATM   49  C3  UNL     1      23.411  13.127  23.291  1.00  0.00     0.137 C 
BRANCH  49  50
HETATM   50  C2  UNL     1      22.605  14.274  23.857  1.00  0.00     0.016 C 
HETATM   51  C1  UNL     1      21.426  13.784  24.642  1.00  0.00     0.006 C 
ENDBRANCH  49  50
ENDBRANCH  47  49
ENDBRANCH   1  47
TORSDOF 19
ENDMDL
