MODEL 1
REMARK VINA RESULT: -7.904442053      0.000      0.000
REMARK  22 active torsions:
REMARK  status: ('A' for Active; 'I' for Inactive)
REMARK    1  A    between atoms: C2_2  and  C3_3 
REMARK    2  A    between atoms: C3_3  and  C4_4 
REMARK    3  A    between atoms: C10_15  and  O2_16 
REMARK    4  A    between atoms: N3_18  and  C11_19 
REMARK    5  A    between atoms: C11_19  and  C12_21 
REMARK    6  A    between atoms: C12_21  and  C13_22 
REMARK    7  A    between atoms: C13_22  and  C14_23 
REMARK    8  A    between atoms: C14_23  and  O3_24 
REMARK    9  A    between atoms: O3_24  and  C15_25 
REMARK   10  A    between atoms: C15_25  and  C16_26 
REMARK   11  A    between atoms: C16_26  and  C17_27 
REMARK   12  A    between atoms: C17_27  and  C18_28 
REMARK   13  A    between atoms: C18_28  and  C19_29 
REMARK   14  A    between atoms: C19_29  and  C20_30 
REMARK   15  A    between atoms: C21_32  and  N4_33 
REMARK       I    between atoms: N4_33  and  C22_35 
REMARK   16  A    between atoms: C22_35  and  C23_37 
REMARK   17  A    between atoms: C23_37  and  C24_38 
REMARK   18  A    between atoms: C24_38  and  C25_39 
REMARK   19  A    between atoms: C25_39  and  C26_40 
REMARK   20  A    between atoms: C26_40  and  C27_41 
REMARK   21  A    between atoms: C27_41  and  C28_42 
REMARK   22  A    between atoms: C28_42  and  N5_43 
ROOT
HETATM    1  C15 UNL     1      17.061   8.446  27.081  1.00  0.00     0.167 C 
ENDROOT
BRANCH   1   2
HETATM    2  O3  UNL     1      16.607   9.656  27.487  1.00  0.00    -0.391 OA
BRANCH   2   3
HETATM    3  C14 UNL     1      17.133  10.779  26.940  1.00  0.00     0.168 C 
BRANCH   3   4
HETATM    4  C13 UNL     1      18.329  11.373  27.637  1.00  0.00     0.033 C 
BRANCH   4   5
HETATM    5  C12 UNL     1      19.616  11.085  26.893  1.00  0.00     0.071 C 
BRANCH   5   6
HETATM    6  C11 UNL     1      20.276  12.358  26.438  1.00  0.00     0.080 C 
HETATM    7  S1  UNL     1      20.144  13.600  27.502  1.00  0.00    -0.065 SA
BRANCH   6   8
HETATM    8  N3  UNL     1      20.943  12.464  25.219  1.00  0.00    -0.314 N 
HETATM    9  C2  UNL     1      22.351  12.433  24.916  1.00  0.00     0.118 C 
HETATM   10  C1  UNL     1      22.775  13.812  24.331  1.00  0.00     0.049 C 
HETATM   11  C9  UNL     1      22.333  11.553  23.723  1.00  0.00     0.249 C 
HETATM   12  O1  UNL     1      23.076  10.634  23.390  1.00  0.00    -0.271 OA
HETATM   13  N2  UNL     1      21.177  12.054  22.996  1.00  0.00    -0.316 N 
HETATM   14  C10 UNL     1      20.260  12.639  23.949  1.00  0.00     0.333 C 
ATOM     15  H2  UNL     1      21.036  12.000  21.986  1.00  0.00     0.166 HD
BRANCH   9  16
HETATM   16  C3  UNL     1      23.267  12.049  26.009  1.00  0.00     0.079 C 
BRANCH  16  17
HETATM   17  C4  UNL     1      24.697  12.463  25.818  1.00  0.00    -0.053 A 
HETATM   18  C5  UNL     1      25.206  13.566  26.512  1.00  0.00     0.024 A 
HETATM   19  C6  UNL     1      26.520  13.939  26.390  1.00  0.00     0.088 A 
HETATM   20  N1  UNL     1      27.376  13.243  25.584  1.00  0.00    -0.375 N 
HETATM   21  C7  UNL     1      26.918  12.178  24.903  1.00  0.00     0.088 A 
ATOM     22  H1  UNL     1      28.352  13.528  25.499  1.00  0.00     0.164 HD
HETATM   23  C8  UNL     1      25.584  11.786  25.018  1.00  0.00     0.024 A 
ENDBRANCH  16  17
ENDBRANCH   9  16
BRANCH  14  24
HETATM   24  O2  UNL     1      19.019  11.992  23.899  1.00  0.00    -0.359 OA
ATOM     25  H2  UNL     1      18.315  12.626  23.834  1.00  0.00     0.214 HD
ENDBRANCH  14  24
ENDBRANCH   6   8
ENDBRANCH   5   6
ENDBRANCH   4   5
ENDBRANCH   3   4
ENDBRANCH   2   3
ENDBRANCH   1   2
BRANCH   1  26
HETATM   26  C16 UNL     1      16.657   8.036  25.688  1.00  0.00     0.026 C 
BRANCH  26  27
HETATM   27  C17 UNL     1      17.859   7.923  24.781  1.00  0.00     0.002 C 
BRANCH  27  28
HETATM   28  C18 UNL     1      17.530   7.440  23.396  1.00  0.00     0.005 C 
BRANCH  28  29
HETATM   29  C19 UNL     1      17.894   8.590  22.454  1.00  0.00     0.050 C 
BRANCH  29  30
HETATM   30  C20 UNL     1      18.525   8.056  21.190  1.00  0.00     0.027 A 
HETATM   31  S2  UNL     1      20.159   7.836  20.784  1.00  0.00    -0.055 SA
HETATM   32  C21 UNL     1      19.938   7.205  19.171  1.00  0.00     0.152 A 
HETATM   33  N6  UNL     1      18.616   7.210  19.063  1.00  0.00    -0.324 N 
HETATM   34  C29 UNL     1      17.885   7.631  20.057  1.00  0.00     0.131 A 
ATOM     35  H6  UNL     1      18.172   6.885  18.204  1.00  0.00     0.169 HD
HETATM   36  N7  UNL     1      16.422   7.669  20.024  1.00  0.00    -0.082 NA
BRANCH  32  37
HETATM   37  N4  UNL     1      20.889   6.858  18.374  1.00  0.00    -0.307 N 
HETATM   38  C22 UNL     1      21.375   5.584  18.191  1.00  0.00     0.223 C 
HETATM   39  O4  UNL     1      20.758   4.565  18.578  1.00  0.00    -0.273 OA
ATOM     40  H4  UNL     1      21.324   7.599  17.824  1.00  0.00     0.171 HD
BRANCH  38  41
HETATM   41  C23 UNL     1      22.716   5.390  17.487  1.00  0.00     0.103 C 
BRANCH  41  42
HETATM   42  C24 UNL     1      23.646   6.428  18.012  1.00  0.00     0.009 C 
BRANCH  42  43
HETATM   43  C25 UNL     1      24.230   6.104  19.349  1.00  0.00     0.001 C 
BRANCH  43  44
HETATM   44  C26 UNL     1      24.922   7.275  20.013  1.00  0.00     0.002 C 
BRANCH  44  45
HETATM   45  C27 UNL     1      23.855   8.312  20.267  1.00  0.00     0.027 C 
BRANCH  45  46
HETATM   46  C28 UNL     1      24.180   9.657  19.654  1.00  0.00     0.229 C 
BRANCH  46  47
HETATM   47  N5  UNL     1      23.419  10.733  20.230  1.00  0.00    -0.079 N 
ATOM     48  H53 UNL     1      22.996  11.310  19.504  1.00  0.00     0.274 HD
ATOM     49  H52 UNL     1      22.572  10.382  20.678  1.00  0.00     0.274 HD
ATOM     50  H51 UNL     1      23.965  11.302  20.878  1.00  0.00     0.274 HD
ENDBRANCH  46  47
ENDBRANCH  45  46
ENDBRANCH  44  45
ENDBRANCH  43  44
ENDBRANCH  42  43
ENDBRANCH  41  42
ENDBRANCH  38  41
ENDBRANCH  32  37
ENDBRANCH  29  30
ENDBRANCH  28  29
ENDBRANCH  27  28
ENDBRANCH  26  27
ENDBRANCH   1  26
TORSDOF 22
ENDMDL
MODEL 2
REMARK VINA RESULT: -7.735760301      3.006     10.761
REMARK  22 active torsions:
REMARK  status: ('A' for Active; 'I' for Inactive)
REMARK    1  A    between atoms: C2_2  and  C3_3 
REMARK    2  A    between atoms: C3_3  and  C4_4 
REMARK    3  A    between atoms: C10_15  and  O2_16 
REMARK    4  A    between atoms: N3_18  and  C11_19 
REMARK    5  A    between atoms: C11_19  and  C12_21 
REMARK    6  A    between atoms: C12_21  and  C13_22 
REMARK    7  A    between atoms: C13_22  and  C14_23 
REMARK    8  A    between atoms: C14_23  and  O3_24 
REMARK    9  A    between atoms: O3_24  and  C15_25 
REMARK   10  A    between atoms: C15_25  and  C16_26 
REMARK   11  A    between atoms: C16_26  and  C17_27 
REMARK   12  A    between atoms: C17_27  and  C18_28 
REMARK   13  A    between atoms: C18_28  and  C19_29 
REMARK   14  A    between atoms: C19_29  and  C20_30 
REMARK   15  A    between atoms: C21_32  and  N4_33 
REMARK       I    between atoms: N4_33  and  C22_35 
REMARK   16  A    between atoms: C22_35  and  C23_37 
REMARK   17  A    between atoms: C23_37  and  C24_38 
REMARK   18  A    between atoms: C24_38  and  C25_39 
REMARK   19  A    between atoms: C25_39  and  C26_40 
REMARK   20  A    between atoms: C26_40  and  C27_41 
REMARK   21  A    between atoms: C27_41  and  C28_42 
REMARK   22  A    between atoms: C28_42  and  N5_43 
ROOT
HETATM    1  C15 UNL     1      23.836   5.502  18.265  1.00  0.00     0.167 C 
ENDROOT
BRANCH   1   2
HETATM    2  O3  UNL     1      22.494   5.314  18.286  1.00  0.00    -0.391 OA
BRANCH   2   3
HETATM    3  C14 UNL     1      21.800   5.360  17.123  1.00  0.00     0.168 C 
BRANCH   3   4
HETATM    4  C13 UNL     1      20.677   4.369  16.968  1.00  0.00     0.033 C 
BRANCH   4   5
HETATM    5  C12 UNL     1      19.337   4.973  17.336  1.00  0.00     0.071 C 
BRANCH   5   6
HETATM    6  C11 UNL     1      18.997   4.702  18.776  1.00  0.00     0.080 C 
HETATM    7  S1  UNL     1      19.322   3.170  19.266  1.00  0.00    -0.065 SA
BRANCH   6   8
HETATM    8  N3  UNL     1      18.456   5.674  19.615  1.00  0.00    -0.314 N 
HETATM    9  C2  UNL     1      17.175   5.738  20.271  1.00  0.00     0.118 C 
HETATM   10  C1  UNL     1      16.377   6.952  19.711  1.00  0.00     0.049 C 
HETATM   11  C9  UNL     1      17.600   6.205  21.611  1.00  0.00     0.249 C 
HETATM   12  O1  UNL     1      17.241   5.863  22.734  1.00  0.00    -0.271 OA
HETATM   13  N2  UNL     1      18.591   7.217  21.278  1.00  0.00    -0.316 N 
HETATM   14  C10 UNL     1      19.163   6.885  19.992  1.00  0.00     0.333 C 
ATOM     15  H2  UNL     1      18.840   8.023  21.853  1.00  0.00     0.166 HD
BRANCH   9  16
HETATM   16  C3  UNL     1      16.335   4.524  20.228  1.00  0.00     0.079 C 
BRANCH  16  17
HETATM   17  C4  UNL     1      15.340   4.475  19.105  1.00  0.00    -0.053 A 
HETATM   18  C5  UNL     1      15.763   4.165  17.808  1.00  0.00     0.024 A 
HETATM   19  C6  UNL     1      14.869   4.071  16.772  1.00  0.00     0.088 A 
HETATM   20  N1  UNL     1      13.533   4.278  16.975  1.00  0.00    -0.375 N 
HETATM   21  C7  UNL     1      13.095   4.578  18.210  1.00  0.00     0.088 A 
ATOM     22  H1  UNL     1      12.876   4.205  16.199  1.00  0.00     0.164 HD
HETATM   23  C8  UNL     1      13.993   4.676  19.274  1.00  0.00     0.024 A 
ENDBRANCH  16  17
ENDBRANCH   9  16
BRANCH  14  24
HETATM   24  O2  UNL     1      20.547   6.701  20.103  1.00  0.00    -0.359 OA
ATOM     25  H2  UNL     1      21.011   7.326  19.560  1.00  0.00     0.214 HD
ENDBRANCH  14  24
ENDBRANCH   6   8
ENDBRANCH   5   6
ENDBRANCH   4   5
ENDBRANCH   3   4
ENDBRANCH   2   3
ENDBRANCH   1   2
BRANCH   1  26
HETATM   26  C16 UNL     1      24.288   6.926  18.071  1.00  0.00     0.026 C 
BRANCH  26  27
HETATM   27  C17 UNL     1      25.043   7.429  19.279  1.00  0.00     0.002 C 
BRANCH  27  28
HETATM   28  C18 UNL     1      24.171   7.687  20.475  1.00  0.00     0.005 C 
BRANCH  28  29
HETATM   29  C19 UNL     1      23.106   8.682  20.009  1.00  0.00     0.050 C 
BRANCH  29  30
HETATM   30  C20 UNL     1      22.821   9.694  21.094  1.00  0.00     0.027 A 
HETATM   31  S2  UNL     1      23.316  11.311  21.248  1.00  0.00    -0.055 SA
HETATM   32  C21 UNL     1      22.546  11.669  22.773  1.00  0.00     0.152 A 
HETATM   33  N6  UNL     1      21.961  10.512  23.053  1.00  0.00    -0.324 N 
HETATM   34  C29 UNL     1      22.083   9.507  22.231  1.00  0.00     0.131 A 
ATOM     35  H6  UNL     1      21.417  10.409  23.910  1.00  0.00     0.169 HD
HETATM   36  N7  UNL     1      21.470   8.198  22.462  1.00  0.00    -0.082 NA
BRANCH  32  37
HETATM   37  N4  UNL     1      22.601  12.804  23.383  1.00  0.00    -0.307 N 
HETATM   38  C22 UNL     1      22.703  12.995  24.741  1.00  0.00     0.223 C 
HETATM   39  O4  UNL     1      23.036  12.079  25.528  1.00  0.00    -0.273 OA
ATOM     40  H4  UNL     1      22.565  13.641  22.802  1.00  0.00     0.171 HD
BRANCH  38  41
HETATM   41  C23 UNL     1      22.405  14.373  25.326  1.00  0.00     0.103 C 
BRANCH  41  42
HETATM   42  C24 UNL     1      21.696  14.162  26.619  1.00  0.00     0.009 C 
BRANCH  42  43
HETATM   43  C25 UNL     1      20.232  13.900  26.476  1.00  0.00     0.001 C 
BRANCH  43  44
HETATM   44  C26 UNL     1      19.639  13.110  27.622  1.00  0.00     0.002 C 
BRANCH  44  45
HETATM   45  C27 UNL     1      18.965  11.907  27.007  1.00  0.00     0.027 C 
BRANCH  45  46
HETATM   46  C28 UNL     1      18.081  11.161  27.983  1.00  0.00     0.229 C 
BRANCH  46  47
HETATM   47  N5  UNL     1      16.700  11.137  27.582  1.00  0.00    -0.079 N 
ATOM     48  H53 UNL     1      16.144  11.774  28.151  1.00  0.00     0.274 HD
ATOM     49  H52 UNL     1      16.577  11.579  26.670  1.00  0.00     0.274 HD
ATOM     50  H51 UNL     1      16.301  10.198  27.589  1.00  0.00     0.274 HD
ENDBRANCH  46  47
ENDBRANCH  45  46
ENDBRANCH  44  45
ENDBRANCH  43  44
ENDBRANCH  42  43
ENDBRANCH  41  42
ENDBRANCH  38  41
ENDBRANCH  32  37
ENDBRANCH  29  30
ENDBRANCH  28  29
ENDBRANCH  27  28
ENDBRANCH  26  27
ENDBRANCH   1  26
TORSDOF 22
ENDMDL
MODEL 3
REMARK VINA RESULT: -7.692547175      2.766      7.628
REMARK  22 active torsions:
REMARK  status: ('A' for Active; 'I' for Inactive)
REMARK    1  A    between atoms: C2_2  and  C3_3 
REMARK    2  A    between atoms: C3_3  and  C4_4 
REMARK    3  A    between atoms: C10_15  and  O2_16 
REMARK    4  A    between atoms: N3_18  and  C11_19 
REMARK    5  A    between atoms: C11_19  and  C12_21 
REMARK    6  A    between atoms: C12_21  and  C13_22 
REMARK    7  A    between atoms: C13_22  and  C14_23 
REMARK    8  A    between atoms: C14_23  and  O3_24 
REMARK    9  A    between atoms: O3_24  and  C15_25 
REMARK   10  A    between atoms: C15_25  and  C16_26 
REMARK   11  A    between atoms: C16_26  and  C17_27 
REMARK   12  A    between atoms: C17_27  and  C18_28 
REMARK   13  A    between atoms: C18_28  and  C19_29 
REMARK   14  A    between atoms: C19_29  and  C20_30 
REMARK   15  A    between atoms: C21_32  and  N4_33 
REMARK       I    between atoms: N4_33  and  C22_35 
REMARK   16  A    between atoms: C22_35  and  C23_37 
REMARK   17  A    between atoms: C23_37  and  C24_38 
REMARK   18  A    between atoms: C24_38  and  C25_39 
REMARK   19  A    between atoms: C25_39  and  C26_40 
REMARK   20  A    between atoms: C26_40  and  C27_41 
REMARK   21  A    between atoms: C27_41  and  C28_42 
REMARK   22  A    between atoms: C28_42  and  N5_43 
ROOT
HETATM    1  C15 UNL     1      17.786   9.455  27.674  1.00  0.00     0.167 C 
ENDROOT
BRANCH   1   2
HETATM    2  O3  UNL     1      16.519   9.191  28.076  1.00  0.00    -0.391 OA
BRANCH   2   3
HETATM    3  C14 UNL     1      15.539   9.080  27.147  1.00  0.00     0.168 C 
BRANCH   3   4
HETATM    4  C13 UNL     1      15.667   7.948  26.163  1.00  0.00     0.033 C 
BRANCH   4   5
HETATM    5  C12 UNL     1      14.341   7.260  25.918  1.00  0.00     0.071 C 
BRANCH   5   6
HETATM    6  C11 UNL     1      14.503   6.074  25.006  1.00  0.00     0.080 C 
HETATM    7  S1  UNL     1      14.766   4.657  25.790  1.00  0.00    -0.065 SA
BRANCH   6   8
HETATM    8  N3  UNL     1      14.432   6.179  23.619  1.00  0.00    -0.314 N 
HETATM    9  C2  UNL     1      15.475   6.321  22.636  1.00  0.00     0.118 C 
HETATM   10  C1  UNL     1      15.319   7.697  21.925  1.00  0.00     0.049 C 
HETATM   11  C9  UNL     1      14.994   5.360  21.616  1.00  0.00     0.249 C 
HETATM   12  O1  UNL     1      15.600   4.530  20.943  1.00  0.00    -0.271 OA
HETATM   13  N2  UNL     1      13.566   5.637  21.589  1.00  0.00    -0.316 N 
HETATM   14  C10 UNL     1      13.181   6.160  22.881  1.00  0.00     0.333 C 
ATOM     15  H2  UNL     1      12.943   5.488  20.794  1.00  0.00     0.166 HD
BRANCH   9  16
HETATM   16  C3  UNL     1      16.866   6.154  23.100  1.00  0.00     0.079 C 
BRANCH  16  17
HETATM   17  C4  UNL     1      17.867   7.076  22.467  1.00  0.00    -0.053 A 
HETATM   18  C5  UNL     1      18.473   8.081  23.227  1.00  0.00     0.024 A 
HETATM   19  C6  UNL     1      19.422   8.909  22.685  1.00  0.00     0.088 A 
HETATM   20  N1  UNL     1      19.807   8.778  21.380  1.00  0.00    -0.375 N 
HETATM   21  C7  UNL     1      19.243   7.821  20.622  1.00  0.00     0.088 A 
ATOM     22  H1  UNL     1      20.514   9.398  20.985  1.00  0.00     0.164 HD
HETATM   23  C8  UNL     1      18.277   6.971  21.160  1.00  0.00     0.024 A 
ENDBRANCH  16  17
ENDBRANCH   9  16
BRANCH  14  24
HETATM   24  O2  UNL     1      12.208   5.344  23.471  1.00  0.00    -0.359 OA
ATOM     25  H2  UNL     1      12.220   5.441  24.416  1.00  0.00     0.214 HD
ENDBRANCH  14  24
ENDBRANCH   6   8
ENDBRANCH   5   6
ENDBRANCH   4   5
ENDBRANCH   3   4
ENDBRANCH   2   3
ENDBRANCH   1   2
BRANCH   1  26
HETATM   26  C16 UNL     1      18.756   9.803  28.775  1.00  0.00     0.026 C 
BRANCH  26  27
HETATM   27  C17 UNL     1      19.528  11.059  28.446  1.00  0.00     0.002 C 
BRANCH  27  28
HETATM   28  C18 UNL     1      18.760  12.039  27.605  1.00  0.00     0.005 C 
BRANCH  28  29
HETATM   29  C19 UNL     1      19.713  13.208  27.350  1.00  0.00     0.050 C 
BRANCH  29  30
HETATM   30  C20 UNL     1      20.395  13.049  26.011  1.00  0.00     0.027 A 
HETATM   31  S2  UNL     1      20.170  11.887  24.793  1.00  0.00    -0.055 SA
HETATM   32  C21 UNL     1      21.364  12.471  23.661  1.00  0.00     0.152 A 
HETATM   33  N6  UNL     1      21.850  13.523  24.307  1.00  0.00    -0.324 N 
HETATM   34  C29 UNL     1      21.384  13.834  25.484  1.00  0.00     0.131 A 
ATOM     35  H6  UNL     1      22.587  14.086  23.883  1.00  0.00     0.169 HD
HETATM   36  N7  UNL     1      21.862  14.977  26.264  1.00  0.00    -0.082 NA
BRANCH  32  37
HETATM   37  N4  UNL     1      21.626  11.936  22.518  1.00  0.00    -0.307 N 
HETATM   38  C22 UNL     1      22.594  10.994  22.261  1.00  0.00     0.223 C 
HETATM   39  O4  UNL     1      23.155  10.338  23.169  1.00  0.00    -0.273 OA
ATOM     40  H4  UNL     1      21.059  12.241  21.726  1.00  0.00     0.171 HD
BRANCH  38  41
HETATM   41  C23 UNL     1      23.010  10.724  20.817  1.00  0.00     0.103 C 
BRANCH  41  42
HETATM   42  C24 UNL     1      23.501   9.319  20.752  1.00  0.00     0.009 C 
BRANCH  42  43
HETATM   43  C25 UNL     1      24.524   9.078  19.690  1.00  0.00     0.001 C 
BRANCH  43  44
HETATM   44  C26 UNL     1      25.031   7.653  19.643  1.00  0.00     0.002 C 
BRANCH  44  45
HETATM   45  C27 UNL     1      24.700   7.128  18.267  1.00  0.00     0.027 C 
BRANCH  45  46
HETATM   46  C28 UNL     1      23.321   6.509  18.186  1.00  0.00     0.229 C 
BRANCH  46  47
HETATM   47  N5  UNL     1      22.388   7.316  17.447  1.00  0.00    -0.079 N 
ATOM     48  H53 UNL     1      22.707   8.283  17.389  1.00  0.00     0.274 HD
ATOM     49  H52 UNL     1      22.403   7.077  16.455  1.00  0.00     0.274 HD
ATOM     50  H51 UNL     1      21.439   7.267  17.819  1.00  0.00     0.274 HD
ENDBRANCH  46  47
ENDBRANCH  45  46
ENDBRANCH  44  45
ENDBRANCH  43  44
ENDBRANCH  42  43
ENDBRANCH  41  42
ENDBRANCH  38  41
ENDBRANCH  32  37
ENDBRANCH  29  30
ENDBRANCH  28  29
ENDBRANCH  27  28
ENDBRANCH  26  27
ENDBRANCH   1  26
TORSDOF 22
ENDMDL
MODEL 4
REMARK VINA RESULT: -7.630308458      2.779      9.609
REMARK  22 active torsions:
REMARK  status: ('A' for Active; 'I' for Inactive)
REMARK    1  A    between atoms: C2_2  and  C3_3 
REMARK    2  A    between atoms: C3_3  and  C4_4 
REMARK    3  A    between atoms: C10_15  and  O2_16 
REMARK    4  A    between atoms: N3_18  and  C11_19 
REMARK    5  A    between atoms: C11_19  and  C12_21 
REMARK    6  A    between atoms: C12_21  and  C13_22 
REMARK    7  A    between atoms: C13_22  and  C14_23 
REMARK    8  A    between atoms: C14_23  and  O3_24 
REMARK    9  A    between atoms: O3_24  and  C15_25 
REMARK   10  A    between atoms: C15_25  and  C16_26 
REMARK   11  A    between atoms: C16_26  and  C17_27 
REMARK   12  A    between atoms: C17_27  and  C18_28 
REMARK   13  A    between atoms: C18_28  and  C19_29 
REMARK   14  A    between atoms: C19_29  and  C20_30 
REMARK   15  A    between atoms: C21_32  and  N4_33 
REMARK       I    between atoms: N4_33  and  C22_35 
REMARK   16  A    between atoms: C22_35  and  C23_37 
REMARK   17  A    between atoms: C23_37  and  C24_38 
REMARK   18  A    between atoms: C24_38  and  C25_39 
REMARK   19  A    between atoms: C25_39  and  C26_40 
REMARK   20  A    between atoms: C26_40  and  C27_41 
REMARK   21  A    between atoms: C27_41  and  C28_42 
REMARK   22  A    between atoms: C28_42  and  N5_43 
ROOT
HETATM    1  C15 UNL     1      21.833   5.388  18.163  1.00  0.00     0.167 C 
ENDROOT
BRANCH   1   2
HETATM    2  O3  UNL     1      20.554   5.104  18.511  1.00  0.00    -0.391 OA
BRANCH   2   3
HETATM    3  C14 UNL     1      20.019   3.912  18.151  1.00  0.00     0.168 C 
BRANCH   3   4
HETATM    4  C13 UNL     1      18.520   3.796  18.226  1.00  0.00     0.033 C 
BRANCH   4   5
HETATM    5  C12 UNL     1      17.995   4.147  19.602  1.00  0.00     0.071 C 
BRANCH   5   6
HETATM    6  C11 UNL     1      16.908   5.184  19.521  1.00  0.00     0.080 C 
HETATM    7  S1  UNL     1      15.636   4.750  18.580  1.00  0.00    -0.065 SA
BRANCH   6   8
HETATM    8  N3  UNL     1      16.981   6.402  20.193  1.00  0.00    -0.314 N 
HETATM    9  C2  UNL     1      16.445   6.801  21.469  1.00  0.00     0.118 C 
HETATM   10  C1  UNL     1      15.388   7.924  21.248  1.00  0.00     0.049 C 
HETATM   11  C9  UNL     1      17.609   7.539  22.013  1.00  0.00     0.249 C 
HETATM   12  O1  UNL     1      18.101   7.548  23.138  1.00  0.00    -0.271 OA
HETATM   13  N2  UNL     1      18.061   8.290  20.852  1.00  0.00    -0.316 N 
HETATM   14  C10 UNL     1      17.671   7.565  19.663  1.00  0.00     0.333 C 
ATOM     15  H2  UNL     1      18.566   9.177  20.873  1.00  0.00     0.166 HD
BRANCH   9  16
HETATM   16  C3  UNL     1      15.874   5.740  22.322  1.00  0.00     0.079 C 
BRANCH  16  17
HETATM   17  C4  UNL     1      14.790   6.187  23.259  1.00  0.00    -0.053 A 
HETATM   18  C5  UNL     1      13.449   5.940  22.948  1.00  0.00     0.024 A 
HETATM   19  C6  UNL     1      12.442   6.298  23.807  1.00  0.00     0.088 A 
HETATM   20  N1  UNL     1      12.718   6.911  24.998  1.00  0.00    -0.375 N 
HETATM   21  C7  UNL     1      13.997   7.162  25.326  1.00  0.00     0.088 A 
ATOM     22  H1  UNL     1      11.962   7.173  25.630  1.00  0.00     0.164 HD
HETATM   23  C8  UNL     1      15.032   6.802  24.463  1.00  0.00     0.024 A 
ENDBRANCH  16  17
ENDBRANCH   9  16
BRANCH  14  24
HETATM   24  O2  UNL     1      18.797   7.234  18.899  1.00  0.00    -0.359 OA
ATOM     25  H2  UNL     1      18.988   7.922  18.272  1.00  0.00     0.214 HD
ENDBRANCH  14  24
ENDBRANCH   6   8
ENDBRANCH   5   6
ENDBRANCH   4   5
ENDBRANCH   3   4
ENDBRANCH   2   3
ENDBRANCH   1   2
BRANCH   1  26
HETATM   26  C16 UNL     1      22.293   6.790  18.475  1.00  0.00     0.026 C 
BRANCH  26  27
HETATM   27  C17 UNL     1      23.765   6.819  18.813  1.00  0.00     0.002 C 
BRANCH  27  28
HETATM   28  C18 UNL     1      24.059   7.339  20.192  1.00  0.00     0.005 C 
BRANCH  28  29
HETATM   29  C19 UNL     1      23.863   8.855  20.118  1.00  0.00     0.050 C 
BRANCH  29  30
HETATM   30  C20 UNL     1      22.813   9.298  21.110  1.00  0.00     0.027 A 
HETATM   31  S2  UNL     1      21.828   8.388  22.151  1.00  0.00    -0.055 SA
HETATM   32  C21 UNL     1      20.946   9.704  22.884  1.00  0.00     0.152 A 
HETATM   33  N6  UNL     1      21.478  10.753  22.271  1.00  0.00    -0.324 N 
HETATM   34  C29 UNL     1      22.413  10.579  21.378  1.00  0.00     0.131 A 
ATOM     35  H6  UNL     1      21.156  11.694  22.497  1.00  0.00     0.169 HD
HETATM   36  N7  UNL     1      23.053  11.679  20.656  1.00  0.00    -0.082 NA
BRANCH  32  37
HETATM   37  N4  UNL     1      20.030   9.574  23.781  1.00  0.00    -0.307 N 
HETATM   38  C22 UNL     1      19.207  10.568  24.256  1.00  0.00     0.223 C 
HETATM   39  O4  UNL     1      19.065  11.664  23.666  1.00  0.00    -0.273 OA
ATOM     40  H4  UNL     1      19.904   8.643  24.179  1.00  0.00     0.171 HD
BRANCH  38  41
HETATM   41  C23 UNL     1      18.427  10.340  25.548  1.00  0.00     0.103 C 
BRANCH  41  42
HETATM   42  C24 UNL     1      18.397  11.636  26.282  1.00  0.00     0.009 C 
BRANCH  42  43
HETATM   43  C25 UNL     1      19.701  12.013  26.908  1.00  0.00     0.001 C 
BRANCH  43  44
HETATM   44  C26 UNL     1      19.940  13.506  26.968  1.00  0.00     0.002 C 
BRANCH  44  45
HETATM   45  C27 UNL     1      21.390  13.721  26.611  1.00  0.00     0.027 C 
BRANCH  45  46
HETATM   46  C28 UNL     1      21.777  13.081  25.295  1.00  0.00     0.229 C 
BRANCH  46  47
HETATM   47  N5  UNL     1      21.325  13.831  24.154  1.00  0.00    -0.079 N 
ATOM     48  H53 UNL     1      20.934  13.212  23.443  1.00  0.00     0.274 HD
ATOM     49  H52 UNL     1      20.490  14.372  24.380  1.00  0.00     0.274 HD
ATOM     50  H51 UNL     1      22.052  14.428  23.759  1.00  0.00     0.274 HD
ENDBRANCH  46  47
ENDBRANCH  45  46
ENDBRANCH  44  45
ENDBRANCH  43  44
ENDBRANCH  42  43
ENDBRANCH  41  42
ENDBRANCH  38  41
ENDBRANCH  32  37
ENDBRANCH  29  30
ENDBRANCH  28  29
ENDBRANCH  27  28
ENDBRANCH  26  27
ENDBRANCH   1  26
TORSDOF 22
ENDMDL
MODEL 5
REMARK VINA RESULT: -7.532668917      2.915      7.330
REMARK  22 active torsions:
REMARK  status: ('A' for Active; 'I' for Inactive)
REMARK    1  A    between atoms: C2_2  and  C3_3 
REMARK    2  A    between atoms: C3_3  and  C4_4 
REMARK    3  A    between atoms: C10_15  and  O2_16 
REMARK    4  A    between atoms: N3_18  and  C11_19 
REMARK    5  A    between atoms: C11_19  and  C12_21 
REMARK    6  A    between atoms: C12_21  and  C13_22 
REMARK    7  A    between atoms: C13_22  and  C14_23 
REMARK    8  A    between atoms: C14_23  and  O3_24 
REMARK    9  A    between atoms: O3_24  and  C15_25 
REMARK   10  A    between atoms: C15_25  and  C16_26 
REMARK   11  A    between atoms: C16_26  and  C17_27 
REMARK   12  A    between atoms: C17_27  and  C18_28 
REMARK   13  A    between atoms: C18_28  and  C19_29 
REMARK   14  A    between atoms: C19_29  and  C20_30 
REMARK   15  A    between atoms: C21_32  and  N4_33 
REMARK       I    between atoms: N4_33  and  C22_35 
REMARK   16  A    between atoms: C22_35  and  C23_37 
REMARK   17  A    between atoms: C23_37  and  C24_38 
REMARK   18  A    between atoms: C24_38  and  C25_39 
REMARK   19  A    between atoms: C25_39  and  C26_40 
REMARK   20  A    between atoms: C26_40  and  C27_41 
REMARK   21  A    between atoms: C27_41  and  C28_42 
REMARK   22  A    between atoms: C28_42  and  N5_43 
ROOT
HETATM    1  C15 UNL     1      18.701  10.872  28.287  1.00  0.00     0.167 C 
ENDROOT
BRANCH   1   2
HETATM    2  O3  UNL     1      17.505  10.369  28.677  1.00  0.00    -0.391 OA
BRANCH   2   3
HETATM    3  C14 UNL     1      17.179   9.098  28.340  1.00  0.00     0.168 C 
BRANCH   3   4
HETATM    4  C13 UNL     1      16.181   8.931  27.224  1.00  0.00     0.033 C 
BRANCH   4   5
HETATM    5  C12 UNL     1      16.818   8.341  25.983  1.00  0.00     0.071 C 
BRANCH   5   6
HETATM    6  C11 UNL     1      16.214   7.005  25.645  1.00  0.00     0.080 C 
HETATM    7  S1  UNL     1      16.791   5.761  26.544  1.00  0.00    -0.065 SA
BRANCH   6   8
HETATM    8  N3  UNL     1      15.246   6.848  24.654  1.00  0.00    -0.314 N 
HETATM    9  C2  UNL     1      15.365   6.394  23.293  1.00  0.00     0.118 C 
HETATM   10  C1  UNL     1      14.978   7.557  22.333  1.00  0.00     0.049 C 
HETATM   11  C9  UNL     1      14.188   5.496  23.223  1.00  0.00     0.249 C 
HETATM   12  O1  UNL     1      14.053   4.384  22.719  1.00  0.00    -0.271 OA
HETATM   13  N2  UNL     1      13.174   6.271  23.921  1.00  0.00    -0.316 N 
HETATM   14  C10 UNL     1      13.840   7.147  24.860  1.00  0.00     0.333 C 
ATOM     15  H2  UNL     1      12.166   6.207  23.774  1.00  0.00     0.166 HD
BRANCH   9  16
HETATM   16  C3  UNL     1      16.662   5.819  22.885  1.00  0.00     0.079 C 
BRANCH  16  17
HETATM   17  C4  UNL     1      17.579   6.761  22.160  1.00  0.00    -0.053 A 
HETATM   18  C5  UNL     1      18.348   7.683  22.878  1.00  0.00     0.024 A 
HETATM   19  C6  UNL     1      19.225   8.525  22.244  1.00  0.00     0.088 A 
HETATM   20  N1  UNL     1      19.375   8.491  20.886  1.00  0.00    -0.375 N 
HETATM   21  C7  UNL     1      18.650   7.617  20.166  1.00  0.00     0.088 A 
ATOM     22  H1  UNL     1      20.030   9.121  20.423  1.00  0.00     0.164 HD
HETATM   23  C8  UNL     1      17.754   6.753  20.798  1.00  0.00     0.024 A 
ENDBRANCH  16  17
ENDBRANCH   9  16
BRANCH  14  24
HETATM   24  O2  UNL     1      13.408   6.885  26.166  1.00  0.00    -0.359 OA
ATOM     25  H2  UNL     1      13.250   5.956  26.285  1.00  0.00     0.214 HD
ENDBRANCH  14  24
ENDBRANCH   6   8
ENDBRANCH   5   6
ENDBRANCH   4   5
ENDBRANCH   3   4
ENDBRANCH   2   3
ENDBRANCH   1   2
BRANCH   1  26
HETATM   26  C16 UNL     1      18.639  12.145  27.482  1.00  0.00     0.026 C 
BRANCH  26  27
HETATM   27  C17 UNL     1      19.707  13.120  27.917  1.00  0.00     0.002 C 
BRANCH  27  28
HETATM   28  C18 UNL     1      20.973  13.031  27.112  1.00  0.00     0.005 C 
BRANCH  28  29
HETATM   29  C19 UNL     1      20.702  13.804  25.820  1.00  0.00     0.050 C 
BRANCH  29  30
HETATM   30  C20 UNL     1      21.202  13.026  24.626  1.00  0.00     0.027 A 
HETATM   31  S2  UNL     1      22.726  13.016  23.878  1.00  0.00    -0.055 SA
HETATM   32  C21 UNL     1      22.382  11.865  22.611  1.00  0.00     0.152 A 
HETATM   33  N6  UNL     1      21.112  11.571  22.858  1.00  0.00    -0.324 N 
HETATM   34  C29 UNL     1      20.497  12.138  23.859  1.00  0.00     0.131 A 
ATOM     35  H6  UNL     1      20.618  10.903  22.266  1.00  0.00     0.169 HD
HETATM   36  N7  UNL     1      19.100  11.870  24.202  1.00  0.00    -0.082 NA
BRANCH  32  37
HETATM   37  N4  UNL     1      23.222  11.475  21.715  1.00  0.00    -0.307 N 
HETATM   38  C22 UNL     1      23.114  10.349  20.932  1.00  0.00     0.223 C 
HETATM   39  O4  UNL     1      22.041   9.717  20.805  1.00  0.00    -0.273 OA
ATOM     40  H4  UNL     1      24.048  12.057  21.573  1.00  0.00     0.171 HD
BRANCH  38  41
HETATM   41  C23 UNL     1      24.342   9.843  20.179  1.00  0.00     0.103 C 
BRANCH  41  42
HETATM   42  C24 UNL     1      24.231   8.359  20.098  1.00  0.00     0.009 C 
BRANCH  42  43
HETATM   43  C25 UNL     1      24.589   7.792  18.762  1.00  0.00     0.001 C 
BRANCH  43  44
HETATM   44  C26 UNL     1      24.491   6.284  18.693  1.00  0.00     0.002 C 
BRANCH  44  45
HETATM   45  C27 UNL     1      24.184   5.942  17.256  1.00  0.00     0.027 C 
BRANCH  45  46
HETATM   46  C28 UNL     1      23.962   4.462  17.034  1.00  0.00     0.229 C 
BRANCH  46  47
HETATM   47  N5  UNL     1      22.596   4.142  16.716  1.00  0.00    -0.079 N 
ATOM     48  H53 UNL     1      22.227   3.439  17.356  1.00  0.00     0.274 HD
ATOM     49  H52 UNL     1      21.976   4.919  16.947  1.00  0.00     0.274 HD
ATOM     50  H51 UNL     1      22.472   3.854  15.745  1.00  0.00     0.274 HD
ENDBRANCH  46  47
ENDBRANCH  45  46
ENDBRANCH  44  45
ENDBRANCH  43  44
ENDBRANCH  42  43
ENDBRANCH  41  42
ENDBRANCH  38  41
ENDBRANCH  32  37
ENDBRANCH  29  30
ENDBRANCH  28  29
ENDBRANCH  27  28
ENDBRANCH  26  27
ENDBRANCH   1  26
TORSDOF 22
ENDMDL
