MODEL 1
REMARK VINA RESULT: -8.153704787      0.000      0.000
REMARK  6 active torsions:
REMARK  status: ('A' for Active; 'I' for Inactive)
REMARK    1  A    between atoms: C2_2  and  O1_4 
REMARK    2  A    between atoms: C2_2  and  O2_6 
REMARK    3  A    between atoms: O2_6  and  C4_7 
REMARK       I    between atoms: C4_7  and  N1_9 
REMARK    4  A    between atoms: N1_9  and  C5_11 
REMARK    5  A    between atoms: C6_14  and  N3_15 
REMARK    6  A    between atoms: C7_20  and  N5_21 
ROOT
HETATM    1  C5  UNL     1      91.484  65.624  20.763  1.00  0.00     0.704 A 
HETATM    2  N2  UNL     1      92.288  66.357  21.551  1.00  0.00    -0.154 N 
ATOM      3  H2  UNL     1      92.039  67.319  21.779  1.00  0.00     0.187 HD
HETATM    4  C6  UNL     1      93.420  65.822  22.038  1.00  0.00     0.278 A 
HETATM    5  N4  UNL     1      93.705  64.536  21.703  1.00  0.00    -0.155 N 
ATOM      6  H4  UNL     1      94.559  64.106  22.059  1.00  0.00     0.187 HD
HETATM    7  C7  UNL     1      92.888  63.816  20.912  1.00  0.00     0.693 A 
HETATM    8  N6  UNL     1      91.745  64.353  20.419  1.00  0.00    -0.022 N 
ATOM      9  H6  UNL     1      91.117  63.820  19.818  1.00  0.00     0.203 HD
ENDROOT
BRANCH   1  10
HETATM   10  N1  UNL     1      90.416  66.203  20.334  1.00  0.00    -0.134 N 
HETATM   11  C4  UNL     1      90.514  67.282  19.412  1.00  0.00     0.381 C 
HETATM   12  O3  UNL     1      90.935  68.433  19.766  1.00  0.00    -0.237 OA
ATOM     13  H1  UNL     1      89.500  65.887  20.655  1.00  0.00     0.189 HD
BRANCH  11  14
HETATM   14  O2  UNL     1      90.160  67.141  18.090  1.00  0.00    -0.266 OA
BRANCH  14  15
HETATM   15  C2  UNL     1      89.248  67.984  17.413  1.00  0.00     0.165 C 
HETATM   16  C1  UNL     1      88.143  67.127  16.835  1.00  0.00     0.079 C 
HETATM   17  C3  UNL     1      90.035  68.672  16.304  1.00  0.00     0.079 C 
BRANCH  15  18
HETATM   18  O1  UNL     1      88.709  68.915  18.283  1.00  0.00    -0.365 OA
ATOM     19  H1  UNL     1      88.781  68.598  19.176  1.00  0.00     0.213 HD
ENDBRANCH  15  18
ENDBRANCH  14  15
ENDBRANCH  11  14
ENDBRANCH   1  10
BRANCH   4  20
HETATM   20  N3  UNL     1      94.262  66.591  22.863  1.00  0.00    -0.078 N 
HETATM   21  O4  UNL     1      94.455  67.782  22.607  1.00  0.00    -0.529 OA
HETATM   22  O5  UNL     1      94.860  66.016  23.945  1.00  0.00    -0.529 OA
ENDBRANCH   4  20
BRANCH   7  23
HETATM   23  N5  UNL     1      93.159  62.589  20.591  1.00  0.00    -0.234 N 
ATOM     24  H52 UNL     1      94.111  62.382  20.291  1.00  0.00     0.174 HD
ATOM     25  H51 UNL     1      92.450  61.857  20.635  1.00  0.00     0.174 HD
ENDBRANCH   7  23
TORSDOF 6
ENDMDL
MODEL 2
REMARK VINA RESULT: -7.816219577      2.270      6.111
REMARK  6 active torsions:
REMARK  status: ('A' for Active; 'I' for Inactive)
REMARK    1  A    between atoms: C2_2  and  O1_4 
REMARK    2  A    between atoms: C2_2  and  O2_6 
REMARK    3  A    between atoms: O2_6  and  C4_7 
REMARK       I    between atoms: C4_7  and  N1_9 
REMARK    4  A    between atoms: N1_9  and  C5_11 
REMARK    5  A    between atoms: C6_14  and  N3_15 
REMARK    6  A    between atoms: C7_20  and  N5_21 
ROOT
HETATM    1  C5  UNL     1      93.007  65.967  21.439  1.00  0.00     0.704 A 
HETATM    2  N2  UNL     1      91.852  66.334  20.860  1.00  0.00    -0.154 N 
ATOM      3  H2  UNL     1      91.532  67.300  20.929  1.00  0.00     0.187 HD
HETATM    4  C6  UNL     1      91.120  65.428  20.190  1.00  0.00     0.278 A 
HETATM    5  N4  UNL     1      91.592  64.155  20.131  1.00  0.00    -0.155 N 
ATOM      6  H4  UNL     1      91.055  63.447  19.629  1.00  0.00     0.187 HD
HETATM    7  C7  UNL     1      92.751  63.805  20.717  1.00  0.00     0.693 A 
HETATM    8  N6  UNL     1      93.493  64.716  21.393  1.00  0.00    -0.022 N 
ATOM      9  H6  UNL     1      94.373  64.465  21.843  1.00  0.00     0.203 HD
ENDROOT
BRANCH   1  10
HETATM   10  N1  UNL     1      93.656  66.889  22.063  1.00  0.00    -0.134 N 
HETATM   11  C4  UNL     1      94.873  66.576  22.729  1.00  0.00     0.381 C 
HETATM   12  O3  UNL     1      94.894  65.899  23.811  1.00  0.00    -0.237 OA
ATOM     13  H1  UNL     1      93.297  67.844  22.079  1.00  0.00     0.189 HD
BRANCH  11  14
HETATM   14  O2  UNL     1      96.093  66.984  22.241  1.00  0.00    -0.266 OA
BRANCH  14  15
HETATM   15  C2  UNL     1      96.845  68.059  22.770  1.00  0.00     0.165 C 
HETATM   16  C1  UNL     1      95.890  69.174  23.139  1.00  0.00     0.079 C 
HETATM   17  C3  UNL     1      97.798  68.506  21.668  1.00  0.00     0.079 C 
BRANCH  15  18
HETATM   18  O1  UNL     1      97.546  67.656  23.892  1.00  0.00    -0.365 OA
ATOM     19  H1  UNL     1      98.228  68.288  24.088  1.00  0.00     0.213 HD
ENDBRANCH  15  18
ENDBRANCH  14  15
ENDBRANCH  11  14
ENDBRANCH   1  10
BRANCH   4  20
HETATM   20  N3  UNL     1      89.910  65.813  19.584  1.00  0.00    -0.078 N 
HETATM   21  O4  UNL     1      89.574  67.000  19.579  1.00  0.00    -0.529 OA
HETATM   22  O5  UNL     1      89.113  64.872  19.003  1.00  0.00    -0.529 OA
ENDBRANCH   4  20
BRANCH   7  23
HETATM   23  N5  UNL     1      93.203  62.591  20.661  1.00  0.00    -0.234 N 
ATOM     24  H52 UNL     1      92.665  61.914  20.119  1.00  0.00     0.174 HD
ATOM     25  H51 UNL     1      94.062  62.317  21.138  1.00  0.00     0.174 HD
ENDBRANCH   7  23
TORSDOF 6
ENDMDL
MODEL 3
REMARK VINA RESULT: -7.653310478      2.479      6.428
REMARK  6 active torsions:
REMARK  status: ('A' for Active; 'I' for Inactive)
REMARK    1  A    between atoms: C2_2  and  O1_4 
REMARK    2  A    between atoms: C2_2  and  O2_6 
REMARK    3  A    between atoms: O2_6  and  C4_7 
REMARK       I    between atoms: C4_7  and  N1_9 
REMARK    4  A    between atoms: N1_9  and  C5_11 
REMARK    5  A    between atoms: C6_14  and  N3_15 
REMARK    6  A    between atoms: C7_20  and  N5_21 
ROOT
HETATM    1  C5  UNL     1      90.987  66.104  19.882  1.00  0.00     0.704 A 
HETATM    2  N2  UNL     1      90.059  65.312  19.321  1.00  0.00    -0.154 N 
ATOM      3  H2  UNL     1      90.100  64.302  19.458  1.00  0.00     0.187 HD
HETATM    4  C6  UNL     1      89.076  65.850  18.580  1.00  0.00     0.278 A 
HETATM    5  N4  UNL     1      89.068  67.201  18.428  1.00  0.00    -0.155 N 
ATOM      6  H4  UNL     1      88.333  67.635  17.869  1.00  0.00     0.187 HD
HETATM    7  C7  UNL     1      90.007  67.979  18.997  1.00  0.00     0.693 A 
HETATM    8  N6  UNL     1      91.000  67.439  19.746  1.00  0.00    -0.022 N 
ATOM      9  H6  UNL     1      91.717  68.017  20.183  1.00  0.00     0.203 HD
ENDROOT
BRANCH   1  10
HETATM   10  N1  UNL     1      91.898  65.518  20.580  1.00  0.00    -0.134 N 
HETATM   11  C4  UNL     1      93.266  65.640  20.209  1.00  0.00     0.381 C 
HETATM   12  O3  UNL     1      93.741  65.048  19.184  1.00  0.00    -0.237 OA
ATOM     13  H1  UNL     1      91.639  64.967  21.398  1.00  0.00     0.189 HD
BRANCH  11  14
HETATM   14  O2  UNL     1      94.149  66.405  20.936  1.00  0.00    -0.266 OA
BRANCH  14  15
HETATM   15  C2  UNL     1      94.267  66.366  22.345  1.00  0.00     0.165 C 
HETATM   16  C1  UNL     1      95.374  67.311  22.759  1.00  0.00     0.079 C 
HETATM   17  C3  UNL     1      94.618  64.928  22.712  1.00  0.00     0.079 C 
BRANCH  15  18
HETATM   18  O1  UNL     1      93.080  66.749  22.943  1.00  0.00    -0.365 OA
ATOM     19  H1  UNL     1      93.169  66.708  23.888  1.00  0.00     0.213 HD
ENDBRANCH  15  18
ENDBRANCH  14  15
ENDBRANCH  11  14
ENDBRANCH   1  10
BRANCH   4  20
HETATM   20  N3  UNL     1      88.104  65.019  17.993  1.00  0.00    -0.078 N 
HETATM   21  O4  UNL     1      87.772  63.970  18.551  1.00  0.00    -0.529 OA
HETATM   22  O5  UNL     1      87.532  65.377  16.808  1.00  0.00    -0.529 OA
ENDBRANCH   4  20
BRANCH   7  23
HETATM   23  N5  UNL     1      90.001  69.268  18.853  1.00  0.00    -0.234 N 
ATOM     24  H52 UNL     1      89.093  69.733  18.828  1.00  0.00     0.174 HD
ATOM     25  H51 UNL     1      90.866  69.801  18.767  1.00  0.00     0.174 HD
ENDBRANCH   7  23
TORSDOF 6
ENDMDL
MODEL 4
REMARK VINA RESULT: -7.583762099      2.595      5.946
REMARK  6 active torsions:
REMARK  status: ('A' for Active; 'I' for Inactive)
REMARK    1  A    between atoms: C2_2  and  O1_4 
REMARK    2  A    between atoms: C2_2  and  O2_6 
REMARK    3  A    between atoms: O2_6  and  C4_7 
REMARK       I    between atoms: C4_7  and  N1_9 
REMARK    4  A    between atoms: N1_9  and  C5_11 
REMARK    5  A    between atoms: C6_14  and  N3_15 
REMARK    6  A    between atoms: C7_20  and  N5_21 
ROOT
HETATM    1  C5  UNL     1      93.117  65.901  21.516  1.00  0.00     0.704 A 
HETATM    2  N2  UNL     1      92.981  66.546  20.347  1.00  0.00    -0.154 N 
ATOM      3  H2  UNL     1      92.939  67.565  20.328  1.00  0.00     0.187 HD
HETATM    4  C6  UNL     1      92.899  65.849  19.201  1.00  0.00     0.278 A 
HETATM    5  N4  UNL     1      92.958  64.493  19.282  1.00  0.00    -0.155 N 
ATOM      6  H4  UNL     1      92.897  63.940  18.427  1.00  0.00     0.187 HD
HETATM    7  C7  UNL     1      93.094  63.864  20.463  1.00  0.00     0.693 A 
HETATM    8  N6  UNL     1      93.178  64.564  21.621  1.00  0.00    -0.022 N 
ATOM      9  H6  UNL     1      93.281  64.100  22.523  1.00  0.00     0.203 HD
ENDROOT
BRANCH   1  10
HETATM   10  N1  UNL     1      93.190  66.635  22.573  1.00  0.00    -0.134 N 
HETATM   11  C4  UNL     1      94.435  66.800  23.240  1.00  0.00     0.381 C 
HETATM   12  O3  UNL     1      94.965  65.858  23.919  1.00  0.00    -0.237 OA
ATOM     13  H1  UNL     1      92.355  67.098  22.931  1.00  0.00     0.189 HD
BRANCH  11  14
HETATM   14  O2  UNL     1      95.136  67.983  23.187  1.00  0.00    -0.266 OA
BRANCH  14  15
HETATM   15  C2  UNL     1      96.445  68.113  22.666  1.00  0.00     0.165 C 
HETATM   16  C1  UNL     1      97.348  68.628  23.766  1.00  0.00     0.079 C 
HETATM   17  C3  UNL     1      96.359  69.118  21.523  1.00  0.00     0.079 C 
BRANCH  15  18
HETATM   18  O1  UNL     1      96.911  66.893  22.213  1.00  0.00    -0.365 OA
ATOM     19  H1  UNL     1      97.201  66.975  21.312  1.00  0.00     0.213 HD
ENDBRANCH  15  18
ENDBRANCH  14  15
ENDBRANCH  11  14
ENDBRANCH   1  10
BRANCH   4  20
HETATM   20  N3  UNL     1      92.755  66.526  17.975  1.00  0.00    -0.078 N 
HETATM   21  O4  UNL     1      93.684  66.534  17.164  1.00  0.00    -0.529 OA
HETATM   22  O5  UNL     1      91.588  67.170  17.689  1.00  0.00    -0.529 OA
ENDBRANCH   4  20
BRANCH   7  23
HETATM   23  N5  UNL     1      93.151  62.570  20.542  1.00  0.00    -0.234 N 
ATOM     24  H52 UNL     1      93.011  62.041  19.682  1.00  0.00     0.174 HD
ATOM     25  H51 UNL     1      93.328  62.096  21.428  1.00  0.00     0.174 HD
ENDBRANCH   7  23
TORSDOF 6
ENDMDL
MODEL 5
REMARK VINA RESULT: -7.577411896      2.478      6.032
REMARK  6 active torsions:
REMARK  status: ('A' for Active; 'I' for Inactive)
REMARK    1  A    between atoms: C2_2  and  O1_4 
REMARK    2  A    between atoms: C2_2  and  O2_6 
REMARK    3  A    between atoms: O2_6  and  C4_7 
REMARK       I    between atoms: C4_7  and  N1_9 
REMARK    4  A    between atoms: N1_9  and  C5_11 
REMARK    5  A    between atoms: C6_14  and  N3_15 
REMARK    6  A    between atoms: C7_20  and  N5_21 
ROOT
HETATM    1  C5  UNL     1      93.609  65.496  22.162  1.00  0.00     0.704 A 
HETATM    2  N2  UNL     1      92.709  66.308  21.584  1.00  0.00    -0.154 N 
ATOM      3  H2  UNL     1      92.627  67.278  21.888  1.00  0.00     0.187 HD
HETATM    4  C6  UNL     1      91.916  65.841  20.605  1.00  0.00     0.278 A 
HETATM    5  N4  UNL     1      92.065  64.541  20.238  1.00  0.00    -0.155 N 
ATOM      6  H4  UNL     1      91.475  64.161  19.497  1.00  0.00     0.187 HD
HETATM    7  C7  UNL     1      92.973  63.742  20.829  1.00  0.00     0.693 A 
HETATM    8  N6  UNL     1      93.774  64.210  21.817  1.00  0.00    -0.022 N 
ATOM      9  H6  UNL     1      94.466  63.616  22.274  1.00  0.00     0.203 HD
ENDROOT
BRANCH   1  10
HETATM   10  N1  UNL     1      94.335  66.013  23.093  1.00  0.00    -0.134 N 
HETATM   11  C4  UNL     1      95.313  66.994  22.770  1.00  0.00     0.381 C 
HETATM   12  O3  UNL     1      96.395  66.692  22.164  1.00  0.00    -0.237 OA
ATOM     13  H1  UNL     1      94.207  65.719  24.062  1.00  0.00     0.189 HD
BRANCH  11  14
HETATM   14  O2  UNL     1      95.144  68.321  23.093  1.00  0.00    -0.266 OA
BRANCH  14  15
HETATM   15  C2  UNL     1      96.195  69.192  23.463  1.00  0.00     0.165 C 
HETATM   16  C1  UNL     1      96.841  68.654  24.722  1.00  0.00     0.079 C 
HETATM   17  C3  UNL     1      95.559  70.553  23.722  1.00  0.00     0.079 C 
BRANCH  15  18
HETATM   18  O1  UNL     1      97.137  69.274  22.455  1.00  0.00    -0.365 OA
ATOM     19  H1  UNL     1      96.939  68.637  21.778  1.00  0.00     0.213 HD
ENDBRANCH  15  18
ENDBRANCH  14  15
ENDBRANCH  11  14
ENDBRANCH   1  10
BRANCH   4  20
HETATM   20  N3  UNL     1      90.972  66.692  19.999  1.00  0.00    -0.078 N 
HETATM   21  O4  UNL     1      91.288  67.845  19.697  1.00  0.00    -0.529 OA
HETATM   22  O5  UNL     1      89.712  66.237  19.748  1.00  0.00    -0.529 OA
ENDBRANCH   4  20
BRANCH   7  23
HETATM   23  N5  UNL     1      93.116  62.501  20.481  1.00  0.00    -0.234 N 
ATOM     24  H52 UNL     1      93.136  62.293  19.482  1.00  0.00     0.174 HD
ATOM     25  H51 UNL     1      93.207  61.758  21.174  1.00  0.00     0.174 HD
ENDBRANCH   7  23
TORSDOF 6
ENDMDL
