MODEL 1
REMARK VINA RESULT: -7.342558119      0.000      0.000
REMARK  2 active torsions:
REMARK  status: ('A' for Active; 'I' for Inactive)
REMARK    1  A    between atoms: C2_3  and  C3_4 
REMARK    2  A    between atoms: C3_4  and  O1_5 
REMARK       I    between atoms: N2_7  and  C4_9 
REMARK       I    between atoms: C4_9  and  N4_13 
ROOT
HETATM    1  N1  UNL     1      29.677  67.922  12.438  1.00  0.00    -0.193 NA
HETATM    2  C1  UNL     1      29.503  67.305  11.495  1.00  0.00     0.126 C 
HETATM    3  C2  UNL     1      29.239  66.496  10.236  1.00  0.00     0.396 C 
HETATM    4  N5  UNL     1      28.145  67.204   9.565  1.00  0.00    -0.013 N 
ATOM      5  H51 UNL     1      28.459  67.877   8.866  1.00  0.00     0.283 HD
ATOM      6  H52 UNL     1      27.658  67.871  10.163  1.00  0.00     0.283 HD
HETATM    7  C5  UNL     1      27.283  66.160   9.028  1.00  0.00     0.368 C 
HETATM    8  N6  UNL     1      26.905  65.269  10.111  1.00  0.00    -0.291 N 
ATOM      9  H6  UNL     1      25.998  64.926  10.428  1.00  0.00     0.174 HD
HETATM   10  S1  UNL     1      28.557  64.979  10.697  1.00  0.00     0.285 S 
HETATM   11  O2  UNL     1      28.486  64.800  12.204  1.00  0.00    -0.202 OA
HETATM   12  O3  UNL     1      29.151  63.802  10.043  1.00  0.00    -0.202 OA
ENDROOT
BRANCH   3  13
HETATM   13  C3  UNL     1      30.460  66.574   9.465  1.00  0.00     0.200 C 
HETATM   14  N2  UNL     1      30.612  66.867   8.141  1.00  0.00    -0.171 N 
HETATM   15  C4  UNL     1      31.828  66.932   7.407  1.00  0.00     0.671 C 
ATOM     16  H2  UNL     1      29.758  67.062   7.619  1.00  0.00     0.186 HD
HETATM   17  N3  UNL     1      31.783  67.284   6.116  1.00  0.00    -0.235 N 
HETATM   18  N4  UNL     1      33.059  66.711   7.968  1.00  0.00    -0.235 N 
ATOM     19  H32 UNL     1      30.868  67.449   5.698  1.00  0.00     0.174 HD
ATOM     20  H31 UNL     1      32.656  67.331   5.588  1.00  0.00     0.174 HD
ATOM     21  H42 UNL     1      33.093  66.443   8.952  1.00  0.00     0.174 HD
ATOM     22  H41 UNL     1      33.931  66.758   7.441  1.00  0.00     0.174 HD
BRANCH  13  23
HETATM   23  O1  UNL     1      31.596  66.330  10.137  1.00  0.00    -0.345 OA
ATOM     24  H1  UNL     1      32.171  65.676   9.757  1.00  0.00     0.219 HD
ENDBRANCH  13  23
ENDBRANCH   3  13
TORSDOF 2
ENDMDL
MODEL 2
REMARK VINA RESULT: -7.086770211      1.926      2.260
REMARK  2 active torsions:
REMARK  status: ('A' for Active; 'I' for Inactive)
REMARK    1  A    between atoms: C2_3  and  C3_4 
REMARK    2  A    between atoms: C3_4  and  O1_5 
REMARK       I    between atoms: N2_7  and  C4_9 
REMARK       I    between atoms: C4_9  and  N4_13 
ROOT
HETATM    1  N1  UNL     1      28.623  63.652  11.574  1.00  0.00    -0.193 NA
HETATM    2  C1  UNL     1      28.602  64.603  10.945  1.00  0.00     0.126 C 
HETATM    3  C2  UNL     1      28.553  65.885  10.132  1.00  0.00     0.396 C 
HETATM    4  N5  UNL     1      28.257  66.934  11.112  1.00  0.00    -0.013 N 
ATOM      5  H51 UNL     1      29.087  67.396  11.483  1.00  0.00     0.283 HD
ATOM      6  H52 UNL     1      27.911  66.577  12.003  1.00  0.00     0.283 HD
HETATM    7  C5  UNL     1      27.332  67.836  10.442  1.00  0.00     0.368 C 
HETATM    8  N6  UNL     1      26.199  67.065   9.961  1.00  0.00    -0.291 N 
ATOM      9  H6  UNL     1      25.192  67.189  10.071  1.00  0.00     0.174 HD
HETATM   10  S1  UNL     1      27.160  65.833   9.115  1.00  0.00     0.285 S 
HETATM   11  O2  UNL     1      26.409  64.516   9.214  1.00  0.00    -0.202 OA
HETATM   12  O3  UNL     1      27.393  66.214   7.713  1.00  0.00    -0.202 OA
ENDROOT
BRANCH   3  13
HETATM   13  C3  UNL     1      29.883  66.045   9.585  1.00  0.00     0.200 C 
HETATM   14  N2  UNL     1      30.253  66.614   8.402  1.00  0.00    -0.171 N 
HETATM   15  C4  UNL     1      31.571  66.753   7.887  1.00  0.00     0.671 C 
ATOM     16  H2  UNL     1      29.499  66.982   7.821  1.00  0.00     0.186 HD
HETATM   17  N3  UNL     1      31.743  67.387   6.720  1.00  0.00    -0.235 N 
HETATM   18  N4  UNL     1      32.689  66.325   8.554  1.00  0.00    -0.235 N 
ATOM     19  H32 UNL     1      30.912  67.706   6.223  1.00  0.00     0.174 HD
ATOM     20  H31 UNL     1      32.689  67.487   6.350  1.00  0.00     0.174 HD
ATOM     21  H42 UNL     1      32.558  65.842   9.443  1.00  0.00     0.174 HD
ATOM     22  H41 UNL     1      33.635  66.425   8.184  1.00  0.00     0.174 HD
BRANCH  13  23
HETATM   23  O1  UNL     1      30.889  65.576  10.340  1.00  0.00    -0.345 OA
ATOM     24  H1  UNL     1      31.371  64.841   9.980  1.00  0.00     0.219 HD
ENDBRANCH  13  23
ENDBRANCH   3  13
TORSDOF 2
ENDMDL
MODEL 3
REMARK VINA RESULT: -6.989678838      2.269      2.699
REMARK  2 active torsions:
REMARK  status: ('A' for Active; 'I' for Inactive)
REMARK    1  A    between atoms: C2_3  and  C3_4 
REMARK    2  A    between atoms: C3_4  and  O1_5 
REMARK       I    between atoms: N2_7  and  C4_9 
REMARK       I    between atoms: C4_9  and  N4_13 
ROOT
HETATM    1  N1  UNL     1      29.284  64.012  10.514  1.00  0.00    -0.193 NA
HETATM    2  C1  UNL     1      28.937  64.984  10.028  1.00  0.00     0.126 C 
HETATM    3  C2  UNL     1      28.461  66.289   9.412  1.00  0.00     0.396 C 
HETATM    4  N5  UNL     1      28.417  67.232  10.534  1.00  0.00    -0.013 N 
ATOM      5  H51 UNL     1      29.268  67.785  10.640  1.00  0.00     0.283 HD
ATOM      6  H52 UNL     1      28.451  66.784  11.449  1.00  0.00     0.283 HD
HETATM    7  C5  UNL     1      27.221  68.033  10.316  1.00  0.00     0.368 C 
HETATM    8  N6  UNL     1      26.084  67.139  10.181  1.00  0.00    -0.291 N 
ATOM      9  H6  UNL     1      25.174  67.116  10.642  1.00  0.00     0.174 HD
HETATM   10  S1  UNL     1      26.813  66.099   8.938  1.00  0.00     0.285 S 
HETATM   11  O2  UNL     1      26.297  64.687   9.159  1.00  0.00    -0.202 OA
HETATM   12  O3  UNL     1      26.491  66.584   7.586  1.00  0.00    -0.202 OA
ENDROOT
BRANCH   3  13
HETATM   13  C3  UNL     1      29.485  66.661   8.460  1.00  0.00     0.200 C 
HETATM   14  N2  UNL     1      30.837  66.529   8.572  1.00  0.00    -0.171 N 
HETATM   15  C4  UNL     1      31.822  66.908   7.618  1.00  0.00     0.671 C 
ATOM     16  H2  UNL     1      31.182  66.111   9.436  1.00  0.00     0.186 HD
HETATM   17  N3  UNL     1      33.110  66.656   7.886  1.00  0.00    -0.235 N 
HETATM   18  N4  UNL     1      31.518  67.467   6.404  1.00  0.00    -0.235 N 
ATOM     19  H32 UNL     1      33.336  66.240   8.789  1.00  0.00     0.174 HD
ATOM     20  H31 UNL     1      33.817  66.928   7.202  1.00  0.00     0.174 HD
ATOM     21  H42 UNL     1      30.538  67.659   6.199  1.00  0.00     0.174 HD
ATOM     22  H41 UNL     1      32.225  67.739   5.720  1.00  0.00     0.174 HD
BRANCH  13  23
HETATM   23  O1  UNL     1      29.050  67.202   7.312  1.00  0.00    -0.345 OA
ATOM     24  H1  UNL     1      29.347  66.780   6.514  1.00  0.00     0.219 HD
ENDBRANCH  13  23
ENDBRANCH   3  13
TORSDOF 2
ENDMDL
MODEL 4
REMARK VINA RESULT: -6.938387842      1.804      2.640
REMARK  2 active torsions:
REMARK  status: ('A' for Active; 'I' for Inactive)
REMARK    1  A    between atoms: C2_3  and  C3_4 
REMARK    2  A    between atoms: C3_4  and  O1_5 
REMARK       I    between atoms: N2_7  and  C4_9 
REMARK       I    between atoms: C4_9  and  N4_13 
ROOT
HETATM    1  N1  UNL     1      27.306  66.144   8.118  1.00  0.00    -0.193 NA
HETATM    2  C1  UNL     1      28.104  66.108   8.932  1.00  0.00     0.126 C 
HETATM    3  C2  UNL     1      29.151  66.032  10.031  1.00  0.00     0.396 C 
HETATM    4  N5  UNL     1      29.073  64.653  10.521  1.00  0.00    -0.013 N 
ATOM      5  H51 UNL     1      29.737  64.020  10.074  1.00  0.00     0.283 HD
ATOM      6  H52 UNL     1      28.227  64.161  10.232  1.00  0.00     0.283 HD
HETATM    7  C5  UNL     1      29.234  64.748  11.965  1.00  0.00     0.368 C 
HETATM    8  N6  UNL     1      28.240  65.672  12.481  1.00  0.00    -0.291 N 
ATOM      9  H6  UNL     1      27.556  65.589  13.234  1.00  0.00     0.174 HD
HETATM   10  S1  UNL     1      28.617  66.997  11.359  1.00  0.00     0.285 S 
HETATM   11  O2  UNL     1      27.322  67.735  11.066  1.00  0.00    -0.202 OA
HETATM   12  O3  UNL     1      29.633  67.898  11.926  1.00  0.00    -0.202 OA
ENDROOT
BRANCH   3  13
HETATM   13  C3  UNL     1      30.416  66.282   9.376  1.00  0.00     0.200 C 
HETATM   14  N2  UNL     1      30.644  66.675   8.090  1.00  0.00    -0.171 N 
HETATM   15  C4  UNL     1      31.902  66.909   7.470  1.00  0.00     0.671 C 
ATOM     16  H2  UNL     1      29.819  66.819   7.507  1.00  0.00     0.186 HD
HETATM   17  N3  UNL     1      31.926  67.340   6.202  1.00  0.00    -0.235 N 
HETATM   18  N4  UNL     1      33.100  66.775   8.123  1.00  0.00    -0.235 N 
ATOM     19  H32 UNL     1      31.035  67.440   5.716  1.00  0.00     0.174 HD
ATOM     20  H31 UNL     1      32.829  67.507   5.757  1.00  0.00     0.174 HD
ATOM     21  H42 UNL     1      33.082  66.447   9.089  1.00  0.00     0.174 HD
ATOM     22  H41 UNL     1      34.002  66.942   7.678  1.00  0.00     0.174 HD
BRANCH  13  23
HETATM   23  O1  UNL     1      31.513  66.108  10.129  1.00  0.00    -0.345 OA
ATOM     24  H1  UNL     1      32.183  66.777  10.049  1.00  0.00     0.219 HD
ENDBRANCH  13  23
ENDBRANCH   3  13
TORSDOF 2
ENDMDL
MODEL 5
REMARK VINA RESULT: -6.902158553      3.347      4.564
REMARK  2 active torsions:
REMARK  status: ('A' for Active; 'I' for Inactive)
REMARK    1  A    between atoms: C2_3  and  C3_4 
REMARK    2  A    between atoms: C3_4  and  O1_5 
REMARK       I    between atoms: N2_7  and  C4_9 
REMARK       I    between atoms: C4_9  and  N4_13 
ROOT
HETATM    1  N1  UNL     1      27.083  61.186   9.876  1.00  0.00    -0.193 NA
HETATM    2  C1  UNL     1      27.200  62.128  10.509  1.00  0.00     0.126 C 
HETATM    3  C2  UNL     1      27.359  63.362  11.381  1.00  0.00     0.396 C 
HETATM    4  N5  UNL     1      28.118  62.897  12.545  1.00  0.00    -0.013 N 
ATOM      5  H51 UNL     1      29.126  63.031  12.459  1.00  0.00     0.283 HD
ATOM      6  H52 UNL     1      28.142  61.882  12.642  1.00  0.00     0.283 HD
HETATM    7  C5  UNL     1      27.530  63.582  13.687  1.00  0.00     0.368 C 
HETATM    8  N6  UNL     1      26.102  63.317  13.701  1.00  0.00    -0.291 N 
ATOM      9  H6  UNL     1      25.478  62.976  14.433  1.00  0.00     0.174 HD
HETATM   10  S1  UNL     1      25.810  63.786  12.013  1.00  0.00     0.285 S 
HETATM   11  O2  UNL     1      24.695  62.905  11.476  1.00  0.00    -0.202 OA
HETATM   12  O3  UNL     1      25.463  65.213  11.913  1.00  0.00    -0.202 OA
ENDROOT
BRANCH   3  13
HETATM   13  C3  UNL     1      28.135  64.294  10.592  1.00  0.00     0.200 C 
HETATM   14  N2  UNL     1      29.489  64.452  10.552  1.00  0.00    -0.171 N 
HETATM   15  C4  UNL     1      30.226  65.381   9.768  1.00  0.00     0.671 C 
ATOM     16  H2  UNL     1      30.035  63.834  11.153  1.00  0.00     0.186 HD
HETATM   17  N3  UNL     1      31.564  65.357   9.827  1.00  0.00    -0.235 N 
HETATM   18  N4  UNL     1      29.639  66.267   8.901  1.00  0.00    -0.235 N 
ATOM     19  H32 UNL     1      32.000  64.698  10.471  1.00  0.00     0.174 HD
ATOM     20  H31 UNL     1      32.093  66.024   9.264  1.00  0.00     0.174 HD
ATOM     21  H42 UNL     1      28.621  66.285   8.856  1.00  0.00     0.174 HD
ATOM     22  H41 UNL     1      30.168  66.933   8.339  1.00  0.00     0.174 HD
BRANCH  13  23
HETATM   23  O1  UNL     1      27.435  65.108   9.788  1.00  0.00    -0.345 OA
ATOM     24  H1  UNL     1      27.771  65.211   8.905  1.00  0.00     0.219 HD
ENDBRANCH  13  23
ENDBRANCH   3  13
TORSDOF 2
ENDMDL
