MODEL 1
REMARK VINA RESULT: -7.409521559      0.000      0.000
REMARK  4 active torsions:
REMARK  status: ('A' for Active; 'I' for Inactive)
REMARK    1  A    between atoms: N1_2  and  C2_4 
REMARK    2  A    between atoms: C3_7  and  N3_8 
REMARK    3  A    between atoms: N3_8  and  N4_10 
REMARK       I    between atoms: N4_10  and  C4_12 
REMARK       I    between atoms: C4_12  and  N6_16 
REMARK    4  A    between atoms: N6_16  and  N7_18 
ROOT
HETATM    1  C2  UNL     1      28.949  65.072  12.598  1.00  0.00     0.694 A 
HETATM    2  N2  UNL     1      29.730  65.307  11.531  1.00  0.00    -0.169 N 
ATOM      3  H2  UNL     1      30.737  65.414  11.650  1.00  0.00     0.186 HD
HETATM    4  C3  UNL     1      29.191  65.399  10.319  1.00  0.00     0.206 A 
HETATM    5  C5  UNL     1      27.833  65.255  10.156  1.00  0.00     0.308 A 
HETATM    6  O1  UNL     1      27.279  65.334   9.025  1.00  0.00    -0.262 OA
HETATM    7  N8  UNL     1      27.055  65.019  11.220  1.00  0.00    -0.244 N 
HETATM    8  C6  UNL     1      25.597  64.861  11.075  1.00  0.00     0.182 C 
HETATM    9  N9  UNL     1      27.625  64.935  12.403  1.00  0.00    -0.127 N 
ATOM     10  H9  UNL     1      27.032  64.757  13.214  1.00  0.00     0.206 HD
ENDROOT
BRANCH   4  11
HETATM   11  N3  UNL     1      29.955  65.626   9.297  1.00  0.00    -0.266 N 
ATOM     12  H3  UNL     1      29.854  65.058   8.455  1.00  0.00     0.189 HD
BRANCH  11  13
HETATM   13  N4  UNL     1      30.905  66.629   9.334  1.00  0.00    -0.130 N 
HETATM   14  C4  UNL     1      32.265  66.256   9.066  1.00  0.00     0.704 C 
HETATM   15  N5  UNL     1      32.838  65.464   9.909  1.00  0.00    -0.232 N 
HETATM   16  N6  UNL     1      32.958  66.723   7.939  1.00  0.00    -0.138 N 
ATOM     17  H52 UNL     1      32.335  65.125  10.728  1.00  0.00     0.174 HD
ATOM     18  H51 UNL     1      33.805  65.199   9.719  1.00  0.00     0.174 HD
ATOM     19  H6  UNL     1      33.666  67.443   8.083  1.00  0.00     0.205 HD
ATOM     20  H4  UNL     1      30.651  67.595   9.543  1.00  0.00     0.205 HD
BRANCH  16  21
HETATM   21  N7  UNL     1      32.747  66.272   6.636  1.00  0.00    -0.331 N 
ATOM     22  H72 UNL     1      32.346  65.339   6.534  1.00  0.00     0.177 HD
ATOM     23  H71 UNL     1      32.964  66.807   5.796  1.00  0.00     0.177 HD
ENDBRANCH  16  21
ENDBRANCH  11  13
ENDBRANCH   4  11
BRANCH   1  24
HETATM   24  N1  UNL     1      29.472  64.982  13.779  1.00  0.00    -0.229 N 
HETATM   25  C1  UNL     1      29.335  65.982  14.789  1.00  0.00     0.165 C 
ATOM     26  H1  UNL     1      30.015  64.148  14.000  1.00  0.00     0.177 HD
ENDBRANCH   1  24
TORSDOF 4
ENDMDL
MODEL 2
REMARK VINA RESULT: -7.215520090      1.484      1.723
REMARK  4 active torsions:
REMARK  status: ('A' for Active; 'I' for Inactive)
REMARK    1  A    between atoms: N1_2  and  C2_4 
REMARK    2  A    between atoms: C3_7  and  N3_8 
REMARK    3  A    between atoms: N3_8  and  N4_10 
REMARK       I    between atoms: N4_10  and  C4_12 
REMARK       I    between atoms: C4_12  and  N6_16 
REMARK    4  A    between atoms: N6_16  and  N7_18 
ROOT
HETATM    1  C2  UNL     1      28.859  64.938  11.980  1.00  0.00     0.694 A 
HETATM    2  N2  UNL     1      30.072  65.092  11.424  1.00  0.00    -0.169 N 
ATOM      3  H2  UNL     1      30.912  64.925  11.979  1.00  0.00     0.186 HD
HETATM    4  C3  UNL     1      30.179  65.463  10.153  1.00  0.00     0.206 A 
HETATM    5  C5  UNL     1      29.049  65.690   9.403  1.00  0.00     0.308 A 
HETATM    6  O1  UNL     1      29.104  66.044   8.192  1.00  0.00    -0.262 OA
HETATM    7  N8  UNL     1      27.840  65.536   9.957  1.00  0.00    -0.244 N 
HETATM    8  C6  UNL     1      26.612  65.772   9.178  1.00  0.00     0.182 C 
HETATM    9  N9  UNL     1      27.774  65.168  11.218  1.00  0.00    -0.127 N 
ATOM     10  H9  UNL     1      26.853  65.050  11.640  1.00  0.00     0.206 HD
ENDROOT
BRANCH   4  11
HETATM   11  N3  UNL     1      31.356  65.609   9.628  1.00  0.00    -0.266 N 
ATOM     12  H3  UNL     1      31.995  64.814   9.593  1.00  0.00     0.189 HD
BRANCH  11  13
HETATM   13  N4  UNL     1      31.755  66.828   9.115  1.00  0.00    -0.130 N 
HETATM   14  C4  UNL     1      32.351  66.827   7.809  1.00  0.00     0.704 C 
HETATM   15  N5  UNL     1      33.484  66.222   7.676  1.00  0.00    -0.232 N 
HETATM   16  N6  UNL     1      31.743  67.454   6.711  1.00  0.00    -0.138 N 
ATOM     17  H52 UNL     1      33.926  65.767   8.474  1.00  0.00     0.174 HD
ATOM     18  H51 UNL     1      33.909  66.222   6.748  1.00  0.00     0.174 HD
ATOM     19  H6  UNL     1      32.140  68.338   6.390  1.00  0.00     0.205 HD
ATOM     20  H4  UNL     1      31.631  67.693   9.641  1.00  0.00     0.205 HD
BRANCH  16  21
HETATM   21  N7  UNL     1      30.635  66.955   6.028  1.00  0.00    -0.331 N 
ATOM     22  H72 UNL     1      29.793  67.531   6.039  1.00  0.00     0.177 HD
ATOM     23  H71 UNL     1      30.614  66.066   5.528  1.00  0.00     0.177 HD
ENDBRANCH  16  21
ENDBRANCH  11  13
ENDBRANCH   4  11
BRANCH   1  24
HETATM   24  N1  UNL     1      28.753  64.577  13.219  1.00  0.00    -0.229 N 
HETATM   25  C1  UNL     1      27.806  63.619  13.691  1.00  0.00     0.165 C 
ATOM     26  H1  UNL     1      29.383  65.003  13.898  1.00  0.00     0.177 HD
ENDBRANCH   1  24
TORSDOF 4
ENDMDL
MODEL 3
REMARK VINA RESULT: -7.182660099      1.808      2.092
REMARK  4 active torsions:
REMARK  status: ('A' for Active; 'I' for Inactive)
REMARK    1  A    between atoms: N1_2  and  C2_4 
REMARK    2  A    between atoms: C3_7  and  N3_8 
REMARK    3  A    between atoms: N3_8  and  N4_10 
REMARK       I    between atoms: N4_10  and  C4_12 
REMARK       I    between atoms: C4_12  and  N6_16 
REMARK    4  A    between atoms: N6_16  and  N7_18 
ROOT
HETATM    1  C2  UNL     1      27.870  63.767  11.309  1.00  0.00     0.694 A 
HETATM    2  N2  UNL     1      29.016  64.284  10.837  1.00  0.00    -0.169 N 
ATOM      3  H2  UNL     1      29.912  63.947  11.190  1.00  0.00     0.186 HD
HETATM    4  C3  UNL     1      28.985  65.235   9.909  1.00  0.00     0.206 A 
HETATM    5  C5  UNL     1      27.779  65.693   9.431  1.00  0.00     0.308 A 
HETATM    6  O1  UNL     1      27.702  66.594   8.550  1.00  0.00    -0.262 OA
HETATM    7  N8  UNL     1      26.637  65.176   9.901  1.00  0.00    -0.244 N 
HETATM    8  C6  UNL     1      25.330  65.647   9.408  1.00  0.00     0.182 C 
HETATM    9  N9  UNL     1      26.708  64.237  10.819  1.00  0.00    -0.127 N 
ATOM     10  H9  UNL     1      25.838  63.844  11.178  1.00  0.00     0.206 HD
ENDROOT
BRANCH   4  11
HETATM   11  N3  UNL     1      30.098  65.726   9.461  1.00  0.00    -0.266 N 
ATOM     12  H3  UNL     1      30.658  66.335  10.059  1.00  0.00     0.189 HD
BRANCH  11  13
HETATM   13  N4  UNL     1      30.535  65.435   8.183  1.00  0.00    -0.130 N 
HETATM   14  C4  UNL     1      31.034  66.526   7.396  1.00  0.00     0.704 C 
HETATM   15  N5  UNL     1      30.196  67.452   7.068  1.00  0.00    -0.232 N 
HETATM   16  N6  UNL     1      32.375  66.600   6.988  1.00  0.00    -0.138 N 
ATOM     17  H52 UNL     1      29.222  67.398   7.364  1.00  0.00     0.174 HD
ATOM     18  H51 UNL     1      30.551  68.228   6.508  1.00  0.00     0.174 HD
ATOM     19  H6  UNL     1      32.585  66.399   6.010  1.00  0.00     0.205 HD
ATOM     20  H4  UNL     1      30.505  64.484   7.814  1.00  0.00     0.205 HD
BRANCH  16  21
HETATM   21  N7  UNL     1      33.440  66.929   7.826  1.00  0.00    -0.331 N 
ATOM     22  H72 UNL     1      33.661  66.264   8.568  1.00  0.00     0.177 HD
ATOM     23  H71 UNL     1      34.001  67.776   7.745  1.00  0.00     0.177 HD
ENDBRANCH  16  21
ENDBRANCH  11  13
ENDBRANCH   4  11
BRANCH   1  24
HETATM   24  N1  UNL     1      27.898  62.841  12.213  1.00  0.00    -0.229 N 
HETATM   25  C1  UNL     1      27.878  63.098  13.618  1.00  0.00     0.165 C 
ATOM     26  H1  UNL     1      27.938  61.870  11.904  1.00  0.00     0.177 HD
ENDBRANCH   1  24
TORSDOF 4
ENDMDL
MODEL 4
REMARK VINA RESULT: -7.130623409      1.770      3.104
REMARK  4 active torsions:
REMARK  status: ('A' for Active; 'I' for Inactive)
REMARK    1  A    between atoms: N1_2  and  C2_4 
REMARK    2  A    between atoms: C3_7  and  N3_8 
REMARK    3  A    between atoms: N3_8  and  N4_10 
REMARK       I    between atoms: N4_10  and  C4_12 
REMARK       I    between atoms: C4_12  and  N6_16 
REMARK    4  A    between atoms: N6_16  and  N7_18 
ROOT
HETATM    1  C2  UNL     1      26.391  66.464   9.565  1.00  0.00     0.694 A 
HETATM    2  N2  UNL     1      27.542  66.421   8.874  1.00  0.00    -0.169 N 
ATOM      3  H2  UNL     1      27.575  66.772   7.916  1.00  0.00     0.186 HD
HETATM    4  C3  UNL     1      28.638  65.923   9.436  1.00  0.00     0.206 A 
HETATM    5  C5  UNL     1      28.597  65.450  10.727  1.00  0.00     0.308 A 
HETATM    6  O1  UNL     1      29.613  64.968  11.300  1.00  0.00    -0.262 OA
HETATM    7  N8  UNL     1      27.450  65.494  11.416  1.00  0.00    -0.244 N 
HETATM    8  C6  UNL     1      27.376  64.994  12.800  1.00  0.00     0.182 C 
HETATM    9  N9  UNL     1      26.386  65.994  10.825  1.00  0.00    -0.127 N 
ATOM     10  H9  UNL     1      25.512  66.027  11.350  1.00  0.00     0.206 HD
ENDROOT
BRANCH   4  11
HETATM   11  N3  UNL     1      29.743  65.886   8.758  1.00  0.00    -0.266 N 
ATOM     12  H3  UNL     1      29.870  65.174   8.038  1.00  0.00     0.189 HD
BRANCH  11  13
HETATM   13  N4  UNL     1      30.750  66.801   8.998  1.00  0.00    -0.130 N 
HETATM   14  C4  UNL     1      32.099  66.312   8.979  1.00  0.00     0.704 C 
HETATM   15  N5  UNL     1      32.435  65.464   9.893  1.00  0.00    -0.232 N 
HETATM   16  N6  UNL     1      33.029  66.728   8.015  1.00  0.00    -0.138 N 
ATOM     17  H52 UNL     1      31.759  65.162  10.595  1.00  0.00     0.174 HD
ATOM     18  H51 UNL     1      33.394  65.117   9.880  1.00  0.00     0.174 HD
ATOM     19  H6  UNL     1      33.756  67.381   8.307  1.00  0.00     0.205 HD
ATOM     20  H4  UNL     1      30.544  67.783   9.182  1.00  0.00     0.205 HD
BRANCH  16  21
HETATM   21  N7  UNL     1      33.030  66.311   6.684  1.00  0.00    -0.331 N 
ATOM     22  H72 UNL     1      32.533  66.903   6.018  1.00  0.00     0.177 HD
ATOM     23  H71 UNL     1      33.489  65.467   6.341  1.00  0.00     0.177 HD
ENDBRANCH  16  21
ENDBRANCH  11  13
ENDBRANCH   4  11
BRANCH   1  24
HETATM   24  N1  UNL     1      25.323  66.949   9.019  1.00  0.00    -0.229 N 
HETATM   25  C1  UNL     1      24.165  67.352   9.752  1.00  0.00     0.165 C 
ATOM     26  H1  UNL     1      25.306  67.050   8.004  1.00  0.00     0.177 HD
ENDBRANCH   1  24
TORSDOF 4
ENDMDL
MODEL 5
REMARK VINA RESULT: -7.096294582      1.084      1.163
REMARK  4 active torsions:
REMARK  status: ('A' for Active; 'I' for Inactive)
REMARK    1  A    between atoms: N1_2  and  C2_4 
REMARK    2  A    between atoms: C3_7  and  N3_8 
REMARK    3  A    between atoms: N3_8  and  N4_10 
REMARK       I    between atoms: N4_10  and  C4_12 
REMARK       I    between atoms: C4_12  and  N6_16 
REMARK    4  A    between atoms: N6_16  and  N7_18 
ROOT
HETATM    1  C2  UNL     1      28.636  64.505  12.099  1.00  0.00     0.694 A 
HETATM    2  N2  UNL     1      29.508  64.694  11.096  1.00  0.00    -0.169 N 
ATOM      3  H2  UNL     1      30.445  64.293  11.152  1.00  0.00     0.186 HD
HETATM    4  C3  UNL     1      29.152  65.401  10.028  1.00  0.00     0.206 A 
HETATM    5  C5  UNL     1      27.890  65.942   9.949  1.00  0.00     0.308 A 
HETATM    6  O1  UNL     1      27.510  66.620   8.955  1.00  0.00    -0.262 OA
HETATM    7  N8  UNL     1      27.020  65.752  10.949  1.00  0.00    -0.244 N 
HETATM    8  C6  UNL     1      25.662  66.320  10.891  1.00  0.00     0.182 C 
HETATM    9  N9  UNL     1      27.409  65.047  11.988  1.00  0.00    -0.127 N 
ATOM     10  H9  UNL     1      26.746  64.903  12.751  1.00  0.00     0.206 HD
ENDROOT
BRANCH   4  11
HETATM   11  N3  UNL     1      30.004  65.577   9.066  1.00  0.00    -0.266 N 
ATOM     12  H3  UNL     1      30.034  64.913   8.291  1.00  0.00     0.189 HD
BRANCH  11  13
HETATM   13  N4  UNL     1      30.872  66.652   9.079  1.00  0.00    -0.130 N 
HETATM   14  C4  UNL     1      32.270  66.368   8.922  1.00  0.00     0.704 C 
HETATM   15  N5  UNL     1      32.846  65.691   9.858  1.00  0.00    -0.232 N 
HETATM   16  N6  UNL     1      32.998  66.803   7.805  1.00  0.00    -0.138 N 
ATOM     17  H52 UNL     1      32.317  65.375  10.671  1.00  0.00     0.174 HD
ATOM     18  H51 UNL     1      33.840  65.489   9.747  1.00  0.00     0.174 HD
ATOM     19  H6  UNL     1      33.640  67.586   7.931  1.00  0.00     0.205 HD
ATOM     20  H4  UNL     1      30.533  67.607   9.195  1.00  0.00     0.205 HD
BRANCH  16  21
HETATM   21  N7  UNL     1      32.907  66.240   6.531  1.00  0.00    -0.331 N 
ATOM     22  H72 UNL     1      33.434  65.382   6.372  1.00  0.00     0.177 HD
ATOM     23  H71 UNL     1      32.355  66.626   5.766  1.00  0.00     0.177 HD
ENDBRANCH  16  21
ENDBRANCH  11  13
ENDBRANCH   4  11
BRANCH   1  24
HETATM   24  N1  UNL     1      28.980  63.816  13.139  1.00  0.00    -0.229 N 
HETATM   25  C1  UNL     1      28.180  62.781  13.711  1.00  0.00     0.165 C 
ATOM     26  H1  UNL     1      29.878  64.025  13.577  1.00  0.00     0.177 HD
ENDBRANCH   1  24
TORSDOF 4
ENDMDL
