MODEL 1
REMARK VINA RESULT: -6.976008556      0.000      0.000
REMARK  8 active torsions:
REMARK  status: ('A' for Active; 'I' for Inactive)
REMARK    1  A    between atoms: N1_1  and  C1_5 
REMARK    2  A    between atoms: C2_6  and  O1_7 
REMARK    3  A    between atoms: C3_11  and  O2_12 
REMARK    4  A    between atoms: O2_12  and  S2_13 
REMARK    5  A    between atoms: S2_13  and  N4_14 
REMARK    6  A    between atoms: C4_19  and  O5_20 
REMARK    7  A    between atoms: O5_20  and  S3_21 
REMARK    8  A    between atoms: S3_21  and  N5_22 
ROOT
HETATM    1  C1  UNL     1     -25.643  35.930  45.837  1.00  0.00     0.264 C 
HETATM    2  C2  UNL     1     -24.233  35.743  46.294  1.00  0.00     0.280 C 
HETATM    3  N2  UNL     1     -23.715  37.048  46.666  1.00  0.00    -0.110 NA
HETATM    4  N3  UNL     1     -23.570  37.794  45.501  1.00  0.00    -0.109 NA
HETATM    5  C3  UNL     1     -24.811  38.025  44.808  1.00  0.00     0.285 C 
HETATM    6  C4  UNL     1     -25.586  36.756  44.551  1.00  0.00     0.226 C 
ENDROOT
BRANCH   5   7
HETATM    7  O2  UNL     1     -24.547  38.681  43.634  1.00  0.00    -0.233 OA
BRANCH   7   8
HETATM    8  S2  UNL     1     -23.953  40.227  43.847  1.00  0.00     0.357 S 
HETATM    9  O3  UNL     1     -22.456  40.251  43.719  1.00  0.00    -0.176 OA
HETATM   10  O4  UNL     1     -24.497  41.101  42.748  1.00  0.00    -0.176 OA
BRANCH   8  11
HETATM   11  N4  UNL     1     -24.334  40.883  45.385  1.00  0.00    -0.306 N 
ATOM     12  H42 UNL     1     -24.198  40.365  46.253  1.00  0.00     0.171 HD
ATOM     13  H41 UNL     1     -24.704  41.832  45.332  1.00  0.00     0.171 HD
ENDBRANCH   8  11
ENDBRANCH   7   8
ENDBRANCH   5   7
BRANCH   6  14
HETATM   14  O5  UNL     1     -25.107  36.016  43.499  1.00  0.00    -0.248 OA
BRANCH  14  15
HETATM   15  S3  UNL     1     -26.156  35.886  42.218  1.00  0.00     0.356 S 
HETATM   16  O6  UNL     1     -27.534  35.607  42.785  1.00  0.00    -0.176 OA
HETATM   17  O7  UNL     1     -26.229  37.149  41.406  1.00  0.00    -0.176 OA
BRANCH  15  18
HETATM   18  N5  UNL     1     -25.776  34.583  41.163  1.00  0.00    -0.306 N 
ATOM     19  H52 UNL     1     -26.493  33.998  40.733  1.00  0.00     0.171 HD
ATOM     20  H51 UNL     1     -24.774  34.463  41.019  1.00  0.00     0.171 HD
ENDBRANCH  15  18
ENDBRANCH  14  15
ENDBRANCH   6  14
BRANCH   1  21
HETATM   21  N1  UNL     1     -26.335  34.684  45.577  1.00  0.00    -0.069 N 
ATOM     22  H13 UNL     1     -26.821  34.721  44.681  1.00  0.00     0.275 HD
ATOM     23  H12 UNL     1     -25.671  33.936  45.379  1.00  0.00     0.275 HD
ATOM     24  H11 UNL     1     -26.973  34.411  46.325  1.00  0.00     0.275 HD
ENDBRANCH   1  21
BRANCH   2  25
HETATM   25  O1  UNL     1     -24.099  34.806  47.305  1.00  0.00    -0.282 OA
HETATM   26  S1  UNL     1     -22.572  34.909  48.083  1.00  0.00     0.095 SA
ENDBRANCH   2  25
TORSDOF 8
ENDMDL
MODEL 2
REMARK VINA RESULT: -6.824702517      2.948      5.190
REMARK  8 active torsions:
REMARK  status: ('A' for Active; 'I' for Inactive)
REMARK    1  A    between atoms: N1_1  and  C1_5 
REMARK    2  A    between atoms: C2_6  and  O1_7 
REMARK    3  A    between atoms: C3_11  and  O2_12 
REMARK    4  A    between atoms: O2_12  and  S2_13 
REMARK    5  A    between atoms: S2_13  and  N4_14 
REMARK    6  A    between atoms: C4_19  and  O5_20 
REMARK    7  A    between atoms: O5_20  and  S3_21 
REMARK    8  A    between atoms: S3_21  and  N5_22 
ROOT
HETATM    1  C1  UNL     1     -27.034  35.597  44.507  1.00  0.00     0.264 C 
HETATM    2  C2  UNL     1     -26.300  36.202  43.355  1.00  0.00     0.280 C 
HETATM    3  N2  UNL     1     -24.891  35.886  43.517  1.00  0.00    -0.110 NA
HETATM    4  N3  UNL     1     -24.417  36.610  44.607  1.00  0.00    -0.109 NA
HETATM    5  C3  UNL     1     -25.062  36.269  45.848  1.00  0.00     0.285 C 
HETATM    6  C4  UNL     1     -26.568  36.330  45.765  1.00  0.00     0.226 C 
ENDROOT
BRANCH   5   7
HETATM    7  O2  UNL     1     -24.594  37.099  46.833  1.00  0.00    -0.233 OA
BRANCH   7   8
HETATM    8  S2  UNL     1     -23.917  36.291  48.128  1.00  0.00     0.357 S 
HETATM    9  O3  UNL     1     -24.620  34.985  48.375  1.00  0.00    -0.176 OA
HETATM   10  O4  UNL     1     -22.489  35.956  47.786  1.00  0.00    -0.176 OA
BRANCH   8  11
HETATM   11  N4  UNL     1     -23.996  37.184  49.590  1.00  0.00    -0.306 N 
ATOM     12  H42 UNL     1     -24.638  37.965  49.723  1.00  0.00     0.171 HD
ATOM     13  H41 UNL     1     -23.339  36.851  50.295  1.00  0.00     0.171 HD
ENDBRANCH   8  11
ENDBRANCH   7   8
ENDBRANCH   5   7
BRANCH   6  14
HETATM   14  O5  UNL     1     -27.076  37.604  45.822  1.00  0.00    -0.248 OA
BRANCH  14  15
HETATM   15  S3  UNL     1     -28.078  37.885  47.116  1.00  0.00     0.356 S 
HETATM   16  O6  UNL     1     -28.722  39.242  46.906  1.00  0.00    -0.176 OA
HETATM   17  O7  UNL     1     -29.171  36.860  47.230  1.00  0.00    -0.176 OA
BRANCH  15  18
HETATM   18  N5  UNL     1     -27.242  37.956  48.616  1.00  0.00    -0.306 N 
ATOM     19  H52 UNL     1     -26.606  38.718  48.854  1.00  0.00     0.171 HD
ATOM     20  H51 UNL     1     -27.449  37.167  49.228  1.00  0.00     0.171 HD
ENDBRANCH  15  18
ENDBRANCH  14  15
ENDBRANCH   6  14
BRANCH   1  21
HETATM   21  N1  UNL     1     -28.474  35.705  44.394  1.00  0.00    -0.069 N 
ATOM     22  H13 UNL     1     -28.751  35.837  43.420  1.00  0.00     0.275 HD
ATOM     23  H12 UNL     1     -28.920  34.806  44.576  1.00  0.00     0.275 HD
ATOM     24  H11 UNL     1     -28.874  36.432  44.986  1.00  0.00     0.275 HD
ENDBRANCH   1  21
BRANCH   2  25
HETATM   25  O1  UNL     1     -26.795  35.820  42.121  1.00  0.00    -0.282 OA
HETATM   26  S1  UNL     1     -25.919  34.502  41.453  1.00  0.00     0.095 SA
ENDBRANCH   2  25
TORSDOF 8
ENDMDL
MODEL 3
REMARK VINA RESULT: -6.817896379      2.413      5.003
REMARK  8 active torsions:
REMARK  status: ('A' for Active; 'I' for Inactive)
REMARK    1  A    between atoms: N1_1  and  C1_5 
REMARK    2  A    between atoms: C2_6  and  O1_7 
REMARK    3  A    between atoms: C3_11  and  O2_12 
REMARK    4  A    between atoms: O2_12  and  S2_13 
REMARK    5  A    between atoms: S2_13  and  N4_14 
REMARK    6  A    between atoms: C4_19  and  O5_20 
REMARK    7  A    between atoms: O5_20  and  S3_21 
REMARK    8  A    between atoms: S3_21  and  N5_22 
ROOT
HETATM    1  C1  UNL     1     -25.939  36.656  46.368  1.00  0.00     0.264 C 
HETATM    2  C2  UNL     1     -27.419  36.861  46.337  1.00  0.00     0.280 C 
HETATM    3  N2  UNL     1     -27.988  35.818  45.501  1.00  0.00    -0.110 NA
HETATM    4  N3  UNL     1     -27.609  36.072  44.187  1.00  0.00    -0.109 NA
HETATM    5  C3  UNL     1     -26.183  36.032  43.983  1.00  0.00     0.285 C 
HETATM    6  C4  UNL     1     -25.426  36.909  44.951  1.00  0.00     0.226 C 
ENDROOT
BRANCH   5   7
HETATM    7  O2  UNL     1     -25.912  36.388  42.688  1.00  0.00    -0.233 OA
BRANCH   7   8
HETATM    8  S2  UNL     1     -26.092  35.137  41.596  1.00  0.00     0.357 S 
HETATM    9  O3  UNL     1     -25.088  34.049  41.854  1.00  0.00    -0.176 OA
HETATM   10  O4  UNL     1     -27.454  34.526  41.793  1.00  0.00    -0.176 OA
BRANCH   8  11
HETATM   11  N4  UNL     1     -25.883  35.634  39.968  1.00  0.00    -0.306 N 
ATOM     12  H42 UNL     1     -25.125  36.251  39.675  1.00  0.00     0.171 HD
ATOM     13  H41 UNL     1     -26.589  35.249  39.341  1.00  0.00     0.171 HD
ENDBRANCH   8  11
ENDBRANCH   7   8
ENDBRANCH   5   7
BRANCH   6  14
HETATM   14  O5  UNL     1     -25.459  38.244  44.633  1.00  0.00    -0.248 OA
BRANCH  14  15
HETATM   15  S3  UNL     1     -23.968  38.921  44.358  1.00  0.00     0.356 S 
HETATM   16  O6  UNL     1     -23.135  38.709  45.607  1.00  0.00    -0.176 OA
HETATM   17  O7  UNL     1     -23.252  38.282  43.202  1.00  0.00    -0.176 OA
BRANCH  15  18
HETATM   18  N5  UNL     1     -24.036  40.616  44.085  1.00  0.00    -0.306 N 
ATOM     19  H52 UNL     1     -24.182  41.289  44.838  1.00  0.00     0.171 HD
ATOM     20  H51 UNL     1     -23.918  40.869  43.104  1.00  0.00     0.171 HD
ENDBRANCH  15  18
ENDBRANCH  14  15
ENDBRANCH   6  14
BRANCH   1  21
HETATM   21  N1  UNL     1     -25.255  37.539  47.291  1.00  0.00    -0.069 N 
ATOM     22  H13 UNL     1     -25.788  38.398  47.432  1.00  0.00     0.275 HD
ATOM     23  H12 UNL     1     -25.284  37.164  48.239  1.00  0.00     0.275 HD
ATOM     24  H11 UNL     1     -24.296  37.750  47.015  1.00  0.00     0.275 HD
ENDBRANCH   1  21
BRANCH   2  25
HETATM   25  O1  UNL     1     -27.997  36.915  47.593  1.00  0.00    -0.282 OA
HETATM   26  S1  UNL     1     -29.210  38.126  47.695  1.00  0.00     0.095 SA
ENDBRANCH   2  25
TORSDOF 8
ENDMDL
MODEL 4
REMARK VINA RESULT: -6.756568318      3.109      5.605
REMARK  8 active torsions:
REMARK  status: ('A' for Active; 'I' for Inactive)
REMARK    1  A    between atoms: N1_1  and  C1_5 
REMARK    2  A    between atoms: C2_6  and  O1_7 
REMARK    3  A    between atoms: C3_11  and  O2_12 
REMARK    4  A    between atoms: O2_12  and  S2_13 
REMARK    5  A    between atoms: S2_13  and  N4_14 
REMARK    6  A    between atoms: C4_19  and  O5_20 
REMARK    7  A    between atoms: O5_20  and  S3_21 
REMARK    8  A    between atoms: S3_21  and  N5_22 
ROOT
HETATM    1  C1  UNL     1     -25.294  36.726  43.668  1.00  0.00     0.264 C 
HETATM    2  C2  UNL     1     -25.945  35.563  42.992  1.00  0.00     0.280 C 
HETATM    3  N2  UNL     1     -27.377  35.805  42.986  1.00  0.00    -0.110 NA
HETATM    4  N3  UNL     1     -27.830  35.698  44.297  1.00  0.00    -0.109 NA
HETATM    5  C3  UNL     1     -27.251  36.672  45.186  1.00  0.00     0.285 C 
HETATM    6  C4  UNL     1     -25.743  36.697  45.129  1.00  0.00     0.226 C 
ENDROOT
BRANCH   5   7
HETATM    7  O2  UNL     1     -27.686  36.421  46.462  1.00  0.00    -0.233 OA
BRANCH   7   8
HETATM    8  S2  UNL     1     -29.001  37.346  46.916  1.00  0.00     0.357 S 
HETATM    9  O3  UNL     1     -29.180  37.329  48.409  1.00  0.00    -0.176 OA
HETATM   10  O4  UNL     1     -28.735  38.776  46.527  1.00  0.00    -0.176 OA
BRANCH   8  11
HETATM   11  N4  UNL     1     -30.474  36.796  46.231  1.00  0.00    -0.306 N 
ATOM     12  H42 UNL     1     -30.968  35.973  46.575  1.00  0.00     0.171 HD
ATOM     13  H41 UNL     1     -30.792  37.377  45.455  1.00  0.00     0.171 HD
ENDBRANCH   8  11
ENDBRANCH   7   8
ENDBRANCH   5   7
BRANCH   6  14
HETATM   14  O5  UNL     1     -25.144  35.674  45.820  1.00  0.00    -0.248 OA
BRANCH  14  15
HETATM   15  S3  UNL     1     -24.316  36.155  47.177  1.00  0.00     0.356 S 
HETATM   16  O6  UNL     1     -23.707  34.914  47.801  1.00  0.00    -0.176 OA
HETATM   17  O7  UNL     1     -23.205  37.116  46.862  1.00  0.00    -0.176 OA
BRANCH  15  18
HETATM   18  N5  UNL     1     -25.329  36.867  48.369  1.00  0.00    -0.306 N 
ATOM     19  H52 UNL     1     -25.859  36.313  49.042  1.00  0.00     0.171 HD
ATOM     20  H51 UNL     1     -25.340  37.886  48.329  1.00  0.00     0.171 HD
ENDBRANCH  15  18
ENDBRANCH  14  15
ENDBRANCH   6  14
BRANCH   1  21
HETATM   21  N1  UNL     1     -23.847  36.691  43.610  1.00  0.00    -0.069 N 
ATOM     22  H13 UNL     1     -23.530  36.069  42.865  1.00  0.00     0.275 HD
ATOM     23  H12 UNL     1     -23.477  37.575  43.261  1.00  0.00     0.275 HD
ATOM     24  H11 UNL     1     -23.411  36.442  44.498  1.00  0.00     0.275 HD
ENDBRANCH   1  21
BRANCH   2  25
HETATM   25  O1  UNL     1     -25.441  35.305  41.729  1.00  0.00    -0.282 OA
HETATM   26  S1  UNL     1     -26.236  33.984  40.973  1.00  0.00     0.095 SA
ENDBRANCH   2  25
TORSDOF 8
ENDMDL
MODEL 5
REMARK VINA RESULT: -6.639929086      2.649      4.135
REMARK  8 active torsions:
REMARK  status: ('A' for Active; 'I' for Inactive)
REMARK    1  A    between atoms: N1_1  and  C1_5 
REMARK    2  A    between atoms: C2_6  and  O1_7 
REMARK    3  A    between atoms: C3_11  and  O2_12 
REMARK    4  A    between atoms: O2_12  and  S2_13 
REMARK    5  A    between atoms: S2_13  and  N4_14 
REMARK    6  A    between atoms: C4_19  and  O5_20 
REMARK    7  A    between atoms: O5_20  and  S3_21 
REMARK    8  A    between atoms: S3_21  and  N5_22 
ROOT
HETATM    1  C1  UNL     1     -26.531  35.433  44.414  1.00  0.00     0.264 C 
HETATM    2  C2  UNL     1     -26.716  35.744  42.964  1.00  0.00     0.280 C 
HETATM    3  N2  UNL     1     -25.435  36.193  42.446  1.00  0.00    -0.110 NA
HETATM    4  N3  UNL     1     -25.167  37.440  43.002  1.00  0.00    -0.109 NA
HETATM    5  C3  UNL     1     -25.045  37.415  44.437  1.00  0.00     0.285 C 
HETATM    6  C4  UNL     1     -26.221  36.755  45.115  1.00  0.00     0.226 C 
ENDROOT
BRANCH   5   7
HETATM    7  O2  UNL     1     -24.878  38.698  44.889  1.00  0.00    -0.233 OA
BRANCH   7   8
HETATM    8  S2  UNL     1     -23.836  39.609  43.954  1.00  0.00     0.357 S 
HETATM    9  O3  UNL     1     -22.844  38.731  43.243  1.00  0.00    -0.176 OA
HETATM   10  O4  UNL     1     -24.639  40.307  42.888  1.00  0.00    -0.176 OA
BRANCH   8  11
HETATM   11  N4  UNL     1     -22.933  40.743  44.871  1.00  0.00    -0.306 N 
ATOM     12  H42 UNL     1     -22.455  40.494  45.736  1.00  0.00     0.171 HD
ATOM     13  H41 UNL     1     -22.930  41.676  44.458  1.00  0.00     0.171 HD
ENDBRANCH   8  11
ENDBRANCH   7   8
ENDBRANCH   5   7
BRANCH   6  14
HETATM   14  O5  UNL     1     -27.334  37.554  45.199  1.00  0.00    -0.248 OA
BRANCH  14  15
HETATM   15  S3  UNL     1     -27.875  37.818  46.746  1.00  0.00     0.356 S 
HETATM   16  O6  UNL     1     -28.481  39.208  46.784  1.00  0.00    -0.176 OA
HETATM   17  O7  UNL     1     -28.931  36.834  47.162  1.00  0.00    -0.176 OA
BRANCH  15  18
HETATM   18  N5  UNL     1     -26.616  37.791  47.916  1.00  0.00    -0.306 N 
ATOM     19  H52 UNL     1     -25.788  37.202  47.818  1.00  0.00     0.171 HD
ATOM     20  H51 UNL     1     -26.786  38.417  48.703  1.00  0.00     0.171 HD
ENDBRANCH  15  18
ENDBRANCH  14  15
ENDBRANCH   6  14
BRANCH   1  21
HETATM   21  N1  UNL     1     -27.696  34.827  45.026  1.00  0.00    -0.069 N 
ATOM     22  H13 UNL     1     -27.994  35.360  45.843  1.00  0.00     0.275 HD
ATOM     23  H12 UNL     1     -28.519  34.948  44.436  1.00  0.00     0.275 HD
ATOM     24  H11 UNL     1     -27.564  33.844  45.263  1.00  0.00     0.275 HD
ENDBRANCH   1  21
BRANCH   2  25
HETATM   25  O1  UNL     1     -27.248  34.693  42.237  1.00  0.00    -0.282 OA
HETATM   26  S1  UNL     1     -26.154  34.109  41.049  1.00  0.00     0.095 SA
ENDBRANCH   2  25
TORSDOF 8
ENDMDL
