MODEL 1
REMARK VINA RESULT: -7.571372791      0.000      0.000
REMARK  7 active torsions:
REMARK  status: ('A' for Active; 'I' for Inactive)
REMARK    1  A    between atoms: C4_4  and  C5_5 
REMARK    2  A    between atoms: C5_5  and  S1_6 
REMARK    3  A    between atoms: S1_6  and  C6_7 
REMARK    4  A    between atoms: C8_11  and  O1_12 
REMARK    5  A    between atoms: N2_14  and  C9_15 
REMARK    6  A    between atoms: C9_15  and  O2_16 
REMARK    7  A    between atoms: N3_18  and  O3_20 
ROOT
HETATM    1  C6  UNL     1      12.835  -6.570   9.469  1.00  0.00     0.114 A 
HETATM    2  N1  UNL     1      12.926  -5.302   9.282  1.00  0.00    -0.340 N 
ATOM      3  H1  UNL     1      12.097  -4.716   9.372  1.00  0.00     0.167 HD
HETATM    4  C7  UNL     1      14.109  -4.744   8.968  1.00  0.00     0.111 A 
HETATM    5  C8  UNL     1      14.439  -3.410   8.724  1.00  0.00     0.185 A 
HETATM    6  N2  UNL     1      15.693  -3.154   8.436  1.00  0.00    -0.221 N 
HETATM    7  S2  UNL     1      16.491  -4.618   8.468  1.00  0.00     0.008 SA
HETATM    8  C10 UNL     1      15.147  -5.618   8.875  1.00  0.00     0.096 A 
HETATM    9  S3  UNL     1      14.417  -7.149   9.225  1.00  0.00    -0.054 SA
ENDROOT
BRANCH   6  10
HETATM   10  C9  UNL     1      16.329  -1.911   8.140  1.00  0.00     0.256 C 
HETATM   11  N3  UNL     1      16.541  -1.019   9.061  1.00  0.00    -0.232 N 
ATOM     12  H3  UNL     1      16.997  -0.136   8.832  1.00  0.00     0.198 HD
BRANCH  10  13
HETATM   13  O2  UNL     1      16.727  -1.656   6.837  1.00  0.00    -0.330 OA
ATOM     14  H2  UNL     1      17.646  -1.487   6.662  1.00  0.00     0.221 HD
ENDBRANCH  10  13
BRANCH  11  15
HETATM   15  O3  UNL     1      16.142  -1.283  10.345  1.00  0.00    -0.287 OA
ATOM     16  H3  UNL     1      16.144  -0.579  10.982  1.00  0.00     0.244 HD
ENDBRANCH  11  15
ENDBRANCH   6  10
BRANCH   5  17
HETATM   17  O1  UNL     1      13.616  -2.403   8.758  1.00  0.00    -0.344 OA
ATOM     18  H1  UNL     1      13.728  -1.611   9.269  1.00  0.00     0.219 HD
ENDBRANCH   5  17
BRANCH   1  19
HETATM   19  S1  UNL     1      11.368  -7.554   9.889  1.00  0.00    -0.101 SA
BRANCH  19  20
HETATM   20  C5  UNL     1      11.968  -9.242  10.206  1.00  0.00     0.108 C 
BRANCH  20  21
HETATM   21  C4  UNL     1      11.445  -9.801  11.478  1.00  0.00    -0.014 C 
HETATM   22  C2  UNL     1      12.204  -9.850  12.545  1.00  0.00    -0.091 C 
HETATM   23  C1  UNL     1      13.589  -9.349  12.489  1.00  0.00     0.042 C 
HETATM   24  C3  UNL     1      11.645 -10.418  13.807  1.00  0.00     0.042 C 
ENDBRANCH  20  21
ENDBRANCH  19  20
ENDBRANCH   1  19
TORSDOF 7
ENDMDL
MODEL 2
REMARK VINA RESULT: -7.284647401      0.877      1.068
REMARK  7 active torsions:
REMARK  status: ('A' for Active; 'I' for Inactive)
REMARK    1  A    between atoms: C4_4  and  C5_5 
REMARK    2  A    between atoms: C5_5  and  S1_6 
REMARK    3  A    between atoms: S1_6  and  C6_7 
REMARK    4  A    between atoms: C8_11  and  O1_12 
REMARK    5  A    between atoms: N2_14  and  C9_15 
REMARK    6  A    between atoms: C9_15  and  O2_16 
REMARK    7  A    between atoms: N3_18  and  O3_20 
ROOT
HETATM    1  C6  UNL     1      13.254  -6.656   9.908  1.00  0.00     0.114 A 
HETATM    2  N1  UNL     1      13.250  -5.394   9.672  1.00  0.00    -0.340 N 
ATOM      3  H1  UNL     1      12.402  -4.851   9.835  1.00  0.00     0.167 HD
HETATM    4  C7  UNL     1      14.356  -4.783   9.212  1.00  0.00     0.111 A 
HETATM    5  C8  UNL     1      14.579  -3.444   8.890  1.00  0.00     0.185 A 
HETATM    6  N2  UNL     1      15.777  -3.131   8.457  1.00  0.00    -0.221 N 
HETATM    7  S2  UNL     1      16.658  -4.546   8.448  1.00  0.00     0.008 SA
HETATM    8  C10 UNL     1      15.428  -5.602   9.032  1.00  0.00     0.096 A 
HETATM    9  S3  UNL     1      14.832  -7.156   9.510  1.00  0.00    -0.054 SA
ENDROOT
BRANCH   6  10
HETATM   10  C9  UNL     1      16.302  -1.866   8.052  1.00  0.00     0.256 C 
HETATM   11  N3  UNL     1      16.574  -0.935   8.917  1.00  0.00    -0.232 N 
ATOM     12  H3  UNL     1      16.950  -0.037   8.611  1.00  0.00     0.198 HD
BRANCH  10  13
HETATM   13  O2  UNL     1      16.526  -1.634   6.704  1.00  0.00    -0.330 OA
ATOM     14  H2  UNL     1      16.713  -0.749   6.415  1.00  0.00     0.221 HD
ENDBRANCH  10  13
BRANCH  11  15
HETATM   15  O3  UNL     1      16.349  -1.177  10.247  1.00  0.00    -0.287 OA
ATOM     16  H3  UNL     1      16.900  -0.751  10.892  1.00  0.00     0.244 HD
ENDBRANCH  11  15
ENDBRANCH   6  10
BRANCH   5  17
HETATM   17  O1  UNL     1      13.707  -2.484   8.982  1.00  0.00    -0.344 OA
ATOM     18  H1  UNL     1      13.233  -2.091   8.258  1.00  0.00     0.219 HD
ENDBRANCH   5  17
BRANCH   1  19
HETATM   19  S1  UNL     1      11.903  -7.703  10.520  1.00  0.00    -0.101 SA
BRANCH  19  20
HETATM   20  C5  UNL     1      12.694  -9.150  11.287  1.00  0.00     0.108 C 
BRANCH  20  21
HETATM   21  C4  UNL     1      12.641  -9.108  12.770  1.00  0.00    -0.014 C 
HETATM   22  C2  UNL     1      13.735  -8.925  13.469  1.00  0.00    -0.091 C 
HETATM   23  C1  UNL     1      15.029  -8.762  12.785  1.00  0.00     0.042 C 
HETATM   24  C3  UNL     1      13.644  -8.886  14.959  1.00  0.00     0.042 C 
ENDBRANCH  20  21
ENDBRANCH  19  20
ENDBRANCH   1  19
TORSDOF 7
ENDMDL
MODEL 3
REMARK VINA RESULT: -7.245241133      2.998      3.401
REMARK  7 active torsions:
REMARK  status: ('A' for Active; 'I' for Inactive)
REMARK    1  A    between atoms: C4_4  and  C5_5 
REMARK    2  A    between atoms: C5_5  and  S1_6 
REMARK    3  A    between atoms: S1_6  and  C6_7 
REMARK    4  A    between atoms: C8_11  and  O1_12 
REMARK    5  A    between atoms: N2_14  and  C9_15 
REMARK    6  A    between atoms: C9_15  and  O2_16 
REMARK    7  A    between atoms: N3_18  and  O3_20 
ROOT
HETATM    1  C6  UNL     1      15.682  -5.679   9.773  1.00  0.00     0.114 A 
HETATM    2  N1  UNL     1      16.717  -5.137   9.241  1.00  0.00    -0.340 N 
ATOM      3  H1  UNL     1      17.644  -5.520   9.429  1.00  0.00     0.167 HD
HETATM    4  C7  UNL     1      16.588  -4.067   8.436  1.00  0.00     0.111 A 
HETATM    5  C8  UNL     1      17.557  -3.326   7.760  1.00  0.00     0.185 A 
HETATM    6  N2  UNL     1      17.133  -2.317   7.036  1.00  0.00    -0.221 N 
HETATM    7  S2  UNL     1      15.474  -2.286   7.200  1.00  0.00     0.008 SA
HETATM    8  C10 UNL     1      15.309  -3.640   8.254  1.00  0.00     0.096 A 
HETATM    9  S3  UNL     1      14.376  -4.746   9.206  1.00  0.00    -0.054 SA
ENDROOT
BRANCH   6  10
HETATM   10  C9  UNL     1      17.869  -1.386   6.243  1.00  0.00     0.256 C 
HETATM   11  N3  UNL     1      18.619  -0.474   6.787  1.00  0.00    -0.232 N 
ATOM     12  H3  UNL     1      19.139   0.183   6.205  1.00  0.00     0.198 HD
BRANCH  10  13
HETATM   13  O2  UNL     1      17.778  -1.463   4.862  1.00  0.00    -0.330 OA
ATOM     14  H2  UNL     1      18.467  -1.077   4.334  1.00  0.00     0.221 HD
ENDBRANCH  10  13
BRANCH  11  15
HETATM   15  O3  UNL     1      18.701  -0.409   8.152  1.00  0.00    -0.287 OA
ATOM     16  H3  UNL     1      17.905  -0.294   8.657  1.00  0.00     0.244 HD
ENDBRANCH  11  15
ENDBRANCH   6  10
BRANCH   5  17
HETATM   17  O1  UNL     1      18.839  -3.546   7.783  1.00  0.00    -0.344 OA
ATOM     18  H1  UNL     1      19.516  -2.916   7.569  1.00  0.00     0.219 HD
ENDBRANCH   5  17
BRANCH   1  19
HETATM   19  S1  UNL     1      15.594  -7.110  10.887  1.00  0.00    -0.101 SA
BRANCH  19  20
HETATM   20  C5  UNL     1      14.819  -6.509  12.419  1.00  0.00     0.108 C 
BRANCH  20  21
HETATM   21  C4  UNL     1      14.182  -7.600  13.199  1.00  0.00    -0.014 C 
HETATM   22  C2  UNL     1      14.542  -7.830  14.438  1.00  0.00    -0.091 C 
HETATM   23  C1  UNL     1      15.589  -7.006  15.067  1.00  0.00     0.042 C 
HETATM   24  C3  UNL     1      13.878  -8.934  15.193  1.00  0.00     0.042 C 
ENDBRANCH  20  21
ENDBRANCH  19  20
ENDBRANCH   1  19
TORSDOF 7
ENDMDL
MODEL 4
REMARK VINA RESULT: -7.189107266      2.249      3.062
REMARK  7 active torsions:
REMARK  status: ('A' for Active; 'I' for Inactive)
REMARK    1  A    between atoms: C4_4  and  C5_5 
REMARK    2  A    between atoms: C5_5  and  S1_6 
REMARK    3  A    between atoms: S1_6  and  C6_7 
REMARK    4  A    between atoms: C8_11  and  O1_12 
REMARK    5  A    between atoms: N2_14  and  C9_15 
REMARK    6  A    between atoms: C9_15  and  O2_16 
REMARK    7  A    between atoms: N3_18  and  O3_20 
ROOT
HETATM    1  C6  UNL     1      14.987  -6.724  11.270  1.00  0.00     0.114 A 
HETATM    2  N1  UNL     1      15.643  -6.445  10.202  1.00  0.00    -0.340 N 
ATOM      3  H1  UNL     1      16.422  -7.039   9.917  1.00  0.00     0.167 HD
HETATM    4  C7  UNL     1      15.309  -5.377   9.457  1.00  0.00     0.111 A 
HETATM    5  C8  UNL     1      15.872  -4.890   8.277  1.00  0.00     0.185 A 
HETATM    6  N2  UNL     1      15.331  -3.811   7.764  1.00  0.00    -0.221 N 
HETATM    7  S2  UNL     1      14.080  -3.384   8.781  1.00  0.00     0.008 SA
HETATM    8  C10 UNL     1      14.255  -4.658   9.929  1.00  0.00     0.096 A 
HETATM    9  S3  UNL     1      13.801  -5.507  11.368  1.00  0.00    -0.054 SA
ENDROOT
BRANCH   6  10
HETATM   10  C9  UNL     1      15.679  -3.083   6.586  1.00  0.00     0.256 C 
HETATM   11  N3  UNL     1      15.436  -3.555   5.400  1.00  0.00    -0.232 N 
ATOM     12  H3  UNL     1      15.691  -3.021   4.568  1.00  0.00     0.198 HD
BRANCH  10  13
HETATM   13  O2  UNL     1      16.288  -1.845   6.719  1.00  0.00    -0.330 OA
ATOM     14  H2  UNL     1      16.296  -1.255   5.974  1.00  0.00     0.221 HD
ENDBRANCH  10  13
BRANCH  11  15
HETATM   15  O3  UNL     1      14.833  -4.779   5.282  1.00  0.00    -0.287 OA
ATOM     16  H3  UNL     1      14.424  -5.014   4.458  1.00  0.00     0.244 HD
ENDBRANCH  11  15
ENDBRANCH   6  10
BRANCH   5  17
HETATM   17  O1  UNL     1      16.882  -5.410   7.643  1.00  0.00    -0.344 OA
ATOM     18  H1  UNL     1      16.864  -5.761   6.761  1.00  0.00     0.219 HD
ENDBRANCH   5  17
BRANCH   1  19
HETATM   19  S1  UNL     1      15.242  -8.091  12.438  1.00  0.00    -0.101 SA
BRANCH  19  20
HETATM   20  C5  UNL     1      13.637  -8.368  13.248  1.00  0.00     0.108 C 
BRANCH  20  21
HETATM   21  C4  UNL     1      12.621  -8.925  12.320  1.00  0.00    -0.014 C 
HETATM   22  C2  UNL     1      11.795  -9.860  12.721  1.00  0.00    -0.091 C 
HETATM   23  C1  UNL     1      11.871 -10.369  14.102  1.00  0.00     0.042 C 
HETATM   24  C3  UNL     1      10.785 -10.395  11.761  1.00  0.00     0.042 C 
ENDBRANCH  20  21
ENDBRANCH  19  20
ENDBRANCH   1  19
TORSDOF 7
ENDMDL
MODEL 5
REMARK VINA RESULT: -7.188245660      1.709      1.836
REMARK  7 active torsions:
REMARK  status: ('A' for Active; 'I' for Inactive)
REMARK    1  A    between atoms: C4_4  and  C5_5 
REMARK    2  A    between atoms: C5_5  and  S1_6 
REMARK    3  A    between atoms: S1_6  and  C6_7 
REMARK    4  A    between atoms: C8_11  and  O1_12 
REMARK    5  A    between atoms: N2_14  and  C9_15 
REMARK    6  A    between atoms: C9_15  and  O2_16 
REMARK    7  A    between atoms: N3_18  and  O3_20 
ROOT
HETATM    1  C6  UNL     1      11.721  -6.916   8.717  1.00  0.00     0.114 A 
HETATM    2  N1  UNL     1      12.561  -6.214   9.389  1.00  0.00    -0.340 N 
ATOM      3  H1  UNL     1      12.634  -6.342  10.399  1.00  0.00     0.167 HD
HETATM    4  C7  UNL     1      13.344  -5.312   8.771  1.00  0.00     0.111 A 
HETATM    5  C8  UNL     1      14.311  -4.452   9.291  1.00  0.00     0.185 A 
HETATM    6  N2  UNL     1      14.928  -3.669   8.438  1.00  0.00    -0.221 N 
HETATM    7  S2  UNL     1      14.285  -4.011   6.938  1.00  0.00     0.008 SA
HETATM    8  C10 UNL     1      13.163  -5.226   7.426  1.00  0.00     0.096 A 
HETATM    9  S3  UNL     1      11.925  -6.395   7.109  1.00  0.00    -0.054 SA
ENDROOT
BRANCH   6  10
HETATM   10  C9  UNL     1      15.947  -2.695   8.661  1.00  0.00     0.256 C 
HETATM   11  N3  UNL     1      17.163  -3.041   8.963  1.00  0.00    -0.232 N 
ATOM     12  H3  UNL     1      17.880  -2.331   9.118  1.00  0.00     0.198 HD
BRANCH  10  13
HETATM   13  O2  UNL     1      15.625  -1.351   8.550  1.00  0.00    -0.330 OA
ATOM     14  H2  UNL     1      15.004  -1.081   7.884  1.00  0.00     0.221 HD
ENDBRANCH  10  13
BRANCH  11  15
HETATM   15  O3  UNL     1      17.468  -4.372   9.069  1.00  0.00    -0.287 OA
ATOM     16  H3  UNL     1      18.127  -4.741   8.493  1.00  0.00     0.244 HD
ENDBRANCH  11  15
ENDBRANCH   6  10
BRANCH   5  17
HETATM   17  O1  UNL     1      14.655  -4.359  10.542  1.00  0.00    -0.344 OA
ATOM     18  H1  UNL     1      15.343  -3.805  10.890  1.00  0.00     0.219 HD
ENDBRANCH   5  17
BRANCH   1  19
HETATM   19  S1  UNL     1      10.561  -8.179   9.312  1.00  0.00    -0.101 SA
BRANCH  19  20
HETATM   20  C5  UNL     1      11.583  -9.522   9.990  1.00  0.00     0.108 C 
BRANCH  20  21
HETATM   21  C4  UNL     1      11.146  -9.940  11.347  1.00  0.00    -0.014 C 
HETATM   22  C2  UNL     1      11.956  -9.826  12.371  1.00  0.00    -0.091 C 
HETATM   23  C1  UNL     1      13.313  -9.283  12.181  1.00  0.00     0.042 C 
HETATM   24  C3  UNL     1      11.483 -10.254  13.720  1.00  0.00     0.042 C 
ENDBRANCH  20  21
ENDBRANCH  19  20
ENDBRANCH   1  19
TORSDOF 7
ENDMDL
