MODEL 1
REMARK VINA RESULT: -9.196164827      0.000      0.000
REMARK  4 active torsions:
REMARK  status: ('A' for Active; 'I' for Inactive)
REMARK    1  A    between atoms: C2_2  and  C3_3 
REMARK    2  A    between atoms: C3_3  and  C4_4 
REMARK    3  A    between atoms: C4_4  and  C5_5 
REMARK    4  A    between atoms: N2_14  and  C12_15 
ROOT
HETATM    1  C5  UNL     1      26.688  41.578   8.630  1.00  0.00     0.086 A 
HETATM    2  N1  UNL     1      25.653  41.425   7.784  1.00  0.00    -0.344 N 
ATOM      3  H1  UNL     1      25.535  40.638   7.146  1.00  0.00     0.167 HD
HETATM    4  C6  UNL     1      24.799  42.453   7.895  1.00  0.00     0.061 A 
HETATM    5  C7  UNL     1      23.616  42.746   7.254  1.00  0.00     0.042 A 
HETATM    6  C8  UNL     1      22.884  43.915   7.546  1.00  0.00    -0.019 A 
HETATM    7  C9  UNL     1      23.398  44.743   8.494  1.00  0.00     0.044 A 
HETATM    8  C10 UNL     1      24.612  44.407   9.127  1.00  0.00     0.062 A 
HETATM    9  C11 UNL     1      25.326  43.279   8.850  1.00  0.00     0.067 A 
HETATM   10  N2  UNL     1      26.492  42.721   9.292  1.00  0.00    -0.307 N 
HETATM   11  N3  UNL     1      22.760  45.968   8.921  1.00  0.00    -0.317 N 
ATOM     12  H3  UNL     1      23.222  46.526   9.639  1.00  0.00     0.169 HD
HETATM   13  C16 UNL     1      21.539  46.434   8.403  1.00  0.00     0.284 C 
HETATM   14  O2  UNL     1      21.179  47.609   8.478  1.00  0.00    -0.260 OA
HETATM   15  S1  UNL     1      20.509  45.199   7.610  1.00  0.00    -0.064 SA
HETATM   16  C17 UNL     1      21.619  44.110   6.750  1.00  0.00     0.125 C 
ENDROOT
BRANCH  10  17
HETATM   17  C12 UNL     1      27.290  43.340  10.273  1.00  0.00     0.229 C 
HETATM   18  C13 UNL     1      27.018  43.167  11.700  1.00  0.00     0.056 C 
HETATM   19  C14 UNL     1      27.864  44.333  12.282  1.00  0.00     0.031 C 
HETATM   20  C15 UNL     1      27.764  45.336  11.166  1.00  0.00     0.170 C 
HETATM   21  O1  UNL     1      27.028  44.739  10.181  1.00  0.00    -0.366 OA
ENDBRANCH  10  17
BRANCH   1  22
HETATM   22  C4  UNL     1      27.783  40.589   8.687  1.00  0.00     0.076 C 
BRANCH  22  23
HETATM   23  C3  UNL     1      27.866  39.847  10.004  1.00  0.00     0.007 C 
BRANCH  23  24
HETATM   24  C2  UNL     1      29.272  39.917  10.580  1.00  0.00    -0.004 C 
HETATM   25  C1  UNL     1      30.012  41.042   9.892  1.00  0.00     0.005 C 
ENDBRANCH  23  24
ENDBRANCH  22  23
ENDBRANCH   1  22
TORSDOF 4
ENDMDL
MODEL 2
REMARK VINA RESULT: -9.021246480      1.284      1.865
REMARK  4 active torsions:
REMARK  status: ('A' for Active; 'I' for Inactive)
REMARK    1  A    between atoms: C2_2  and  C3_3 
REMARK    2  A    between atoms: C3_3  and  C4_4 
REMARK    3  A    between atoms: C4_4  and  C5_5 
REMARK    4  A    between atoms: N2_14  and  C12_15 
ROOT
HETATM    1  C5  UNL     1      27.209  42.755  10.366  1.00  0.00     0.086 A 
HETATM    2  N1  UNL     1      26.376  42.381   9.377  1.00  0.00    -0.344 N 
ATOM      3  H1  UNL     1      26.461  41.518   8.839  1.00  0.00     0.167 HD
HETATM    4  C6  UNL     1      25.418  43.302   9.196  1.00  0.00     0.061 A 
HETATM    5  C7  UNL     1      24.357  43.374   8.320  1.00  0.00     0.042 A 
HETATM    6  C8  UNL     1      23.470  44.468   8.318  1.00  0.00    -0.019 A 
HETATM    7  C9  UNL     1      23.707  45.456   9.223  1.00  0.00     0.044 A 
HETATM    8  C10 UNL     1      24.805  45.345  10.101  1.00  0.00     0.062 A 
HETATM    9  C11 UNL     1      25.668  44.289  10.110  1.00  0.00     0.067 A 
HETATM   10  N2  UNL     1      26.777  43.932  10.823  1.00  0.00    -0.307 N 
HETATM   11  N3  UNL     1      22.880  46.633   9.361  1.00  0.00    -0.317 N 
ATOM     12  H3  UNL     1      23.138  47.321  10.069  1.00  0.00     0.169 HD
HETATM   13  C16 UNL     1      21.742  46.884   8.577  1.00  0.00     0.284 C 
HETATM   14  O2  UNL     1      21.258  48.007   8.429  1.00  0.00    -0.260 OA
HETATM   15  S1  UNL     1      21.011  45.450   7.786  1.00  0.00    -0.064 SA
HETATM   16  C17 UNL     1      22.369  44.416   7.291  1.00  0.00     0.125 C 
ENDROOT
BRANCH  10  17
HETATM   17  C12 UNL     1      27.306  44.752  11.838  1.00  0.00     0.229 C 
HETATM   18  C13 UNL     1      28.714  45.149  11.842  1.00  0.00     0.056 C 
HETATM   19  C14 UNL     1      28.851  45.646  13.308  1.00  0.00     0.031 C 
HETATM   20  C15 UNL     1      27.868  44.745  14.003  1.00  0.00     0.170 C 
HETATM   21  O1  UNL     1      27.309  43.967  13.029  1.00  0.00    -0.366 OA
ENDBRANCH  10  17
BRANCH   1  22
HETATM   22  C4  UNL     1      28.365  41.921  10.748  1.00  0.00     0.076 C 
BRANCH  22  23
HETATM   23  C3  UNL     1      28.859  41.017   9.639  1.00  0.00     0.007 C 
BRANCH  23  24
HETATM   24  C2  UNL     1      28.511  39.565   9.925  1.00  0.00    -0.004 C 
HETATM   25  C1  UNL     1      27.522  39.098   8.881  1.00  0.00     0.005 C 
ENDBRANCH  23  24
ENDBRANCH  22  23
ENDBRANCH   1  22
TORSDOF 4
ENDMDL
MODEL 3
REMARK VINA RESULT: -8.903100177      3.608      6.522
REMARK  4 active torsions:
REMARK  status: ('A' for Active; 'I' for Inactive)
REMARK    1  A    between atoms: C2_2  and  C3_3 
REMARK    2  A    between atoms: C3_3  and  C4_4 
REMARK    3  A    between atoms: C4_4  and  C5_5 
REMARK    4  A    between atoms: N2_14  and  C12_15 
ROOT
HETATM    1  C5  UNL     1      26.469  43.426   9.644  1.00  0.00     0.086 A 
HETATM    2  N1  UNL     1      26.202  44.714   9.928  1.00  0.00    -0.344 N 
ATOM      3  H1  UNL     1      25.593  45.318   9.375  1.00  0.00     0.167 HD
HETATM    4  C6  UNL     1      26.849  45.094  11.040  1.00  0.00     0.061 A 
HETATM    5  C7  UNL     1      26.896  46.291  11.719  1.00  0.00     0.042 A 
HETATM    6  C8  UNL     1      27.667  46.451  12.888  1.00  0.00    -0.019 A 
HETATM    7  C9  UNL     1      28.365  45.365  13.319  1.00  0.00     0.044 A 
HETATM    8  C10 UNL     1      28.290  44.159  12.594  1.00  0.00     0.062 A 
HETATM    9  C11 UNL     1      27.547  43.996  11.463  1.00  0.00     0.067 A 
HETATM   10  N2  UNL     1      27.299  42.977  10.588  1.00  0.00    -0.307 N 
HETATM   11  N3  UNL     1      29.185  45.360  14.509  1.00  0.00    -0.317 N 
ATOM     12  H3  UNL     1      29.673  44.498  14.752  1.00  0.00     0.169 HD
HETATM   13  C16 UNL     1      29.350  46.474  15.349  1.00  0.00     0.284 C 
HETATM   14  O2  UNL     1      30.297  46.600  16.127  1.00  0.00    -0.260 OA
HETATM   15  S1  UNL     1      28.078  47.733  15.229  1.00  0.00    -0.064 SA
HETATM   16  C17 UNL     1      27.635  47.823  13.510  1.00  0.00     0.125 C 
ENDROOT
BRANCH  10  17
HETATM   17  C12 UNL     1      27.887  41.706  10.738  1.00  0.00     0.229 C 
HETATM   18  C13 UNL     1      29.309  41.488  10.474  1.00  0.00     0.056 C 
HETATM   19  C14 UNL     1      29.332  39.937  10.375  1.00  0.00     0.031 C 
HETATM   20  C15 UNL     1      27.963  39.672   9.809  1.00  0.00     0.170 C 
HETATM   21  O1  UNL     1      27.356  40.891   9.695  1.00  0.00    -0.366 OA
ENDBRANCH  10  17
BRANCH   1  22
HETATM   22  C4  UNL     1      25.895  42.770   8.452  1.00  0.00     0.076 C 
BRANCH  22  23
HETATM   23  C3  UNL     1      24.463  43.170   8.168  1.00  0.00     0.007 C 
BRANCH  23  24
HETATM   24  C2  UNL     1      23.840  42.257   7.122  1.00  0.00    -0.004 C 
HETATM   25  C1  UNL     1      24.632  40.969   7.085  1.00  0.00     0.005 C 
ENDBRANCH  23  24
ENDBRANCH  22  23
ENDBRANCH   1  22
TORSDOF 4
ENDMDL
MODEL 4
REMARK VINA RESULT: -8.648701946      2.512      4.258
REMARK  4 active torsions:
REMARK  status: ('A' for Active; 'I' for Inactive)
REMARK    1  A    between atoms: C2_2  and  C3_3 
REMARK    2  A    between atoms: C3_3  and  C4_4 
REMARK    3  A    between atoms: C4_4  and  C5_5 
REMARK    4  A    between atoms: N2_14  and  C12_15 
ROOT
HETATM    1  C5  UNL     1      27.409  42.953  10.933  1.00  0.00     0.086 A 
HETATM    2  N1  UNL     1      27.681  44.030  11.692  1.00  0.00    -0.344 N 
ATOM      3  H1  UNL     1      28.440  44.087  12.371  1.00  0.00     0.167 HD
HETATM    4  C6  UNL     1      26.815  45.020  11.430  1.00  0.00     0.061 A 
HETATM    5  C7  UNL     1      26.683  46.293  11.940  1.00  0.00     0.042 A 
HETATM    6  C8  UNL     1      25.669  47.167  11.500  1.00  0.00    -0.019 A 
HETATM    7  C9  UNL     1      24.822  46.697  10.545  1.00  0.00     0.044 A 
HETATM    8  C10 UNL     1      24.990  45.388  10.050  1.00  0.00     0.062 A 
HETATM    9  C11 UNL     1      25.969  44.536  10.470  1.00  0.00     0.067 A 
HETATM   10  N2  UNL     1      26.353  43.259  10.176  1.00  0.00    -0.307 N 
HETATM   11  N3  UNL     1      23.744  47.474   9.976  1.00  0.00    -0.317 N 
ATOM     12  H3  UNL     1      23.160  47.035   9.264  1.00  0.00     0.169 HD
HETATM   13  C16 UNL     1      23.455  48.798  10.346  1.00  0.00     0.284 C 
HETATM   14  O2  UNL     1      22.361  49.330  10.155  1.00  0.00    -0.260 OA
HETATM   15  S1  UNL     1      24.795  49.696  11.130  1.00  0.00    -0.064 SA
HETATM   16  C17 UNL     1      25.637  48.520  12.163  1.00  0.00     0.125 C 
ENDROOT
BRANCH  10  17
HETATM   17  C12 UNL     1      25.668  42.474   9.229  1.00  0.00     0.229 C 
HETATM   18  C13 UNL     1      26.354  41.908   8.067  1.00  0.00     0.056 C 
HETATM   19  C14 UNL     1      25.130  41.530   7.187  1.00  0.00     0.031 C 
HETATM   20  C15 UNL     1      24.155  42.604   7.586  1.00  0.00     0.170 C 
HETATM   21  O1  UNL     1      24.784  43.355   8.539  1.00  0.00    -0.366 OA
ENDBRANCH  10  17
BRANCH   1  22
HETATM   22  C4  UNL     1      28.207  41.716  11.046  1.00  0.00     0.076 C 
BRANCH  22  23
HETATM   23  C3  UNL     1      29.478  41.734  10.224  1.00  0.00     0.007 C 
BRANCH  23  24
HETATM   24  C2  UNL     1      29.520  40.555   9.263  1.00  0.00    -0.004 C 
HETATM   25  C1  UNL     1      28.549  39.506   9.755  1.00  0.00     0.005 C 
ENDBRANCH  23  24
ENDBRANCH  22  23
ENDBRANCH   1  22
TORSDOF 4
ENDMDL
MODEL 5
REMARK VINA RESULT: -8.394213288      2.962      4.812
REMARK  4 active torsions:
REMARK  status: ('A' for Active; 'I' for Inactive)
REMARK    1  A    between atoms: C2_2  and  C3_3 
REMARK    2  A    between atoms: C3_3  and  C4_4 
REMARK    3  A    between atoms: C4_4  and  C5_5 
REMARK    4  A    between atoms: N2_14  and  C12_15 
ROOT
HETATM    1  C5  UNL     1      27.281  41.542  10.343  1.00  0.00     0.086 A 
HETATM    2  N1  UNL     1      27.724  42.149  11.459  1.00  0.00    -0.344 N 
ATOM      3  H1  UNL     1      28.271  41.695  12.190  1.00  0.00     0.167 HD
HETATM    4  C6  UNL     1      27.345  43.436  11.476  1.00  0.00     0.061 A 
HETATM    5  C7  UNL     1      27.548  44.448  12.388  1.00  0.00     0.042 A 
HETATM    6  C8  UNL     1      27.037  45.745  12.182  1.00  0.00    -0.019 A 
HETATM    7  C9  UNL     1      26.331  45.955  11.039  1.00  0.00     0.044 A 
HETATM    8  C10 UNL     1      26.145  44.892  10.132  1.00  0.00     0.062 A 
HETATM    9  C11 UNL     1      26.636  43.635  10.323  1.00  0.00     0.067 A 
HETATM   10  N2  UNL     1      26.608  42.454   9.637  1.00  0.00    -0.307 N 
HETATM   11  N3  UNL     1      25.759  47.231  10.672  1.00  0.00    -0.317 N 
ATOM     12  H3  UNL     1      25.244  47.292   9.793  1.00  0.00     0.169 HD
HETATM   13  C16 UNL     1      25.871  48.391  11.456  1.00  0.00     0.284 C 
HETATM   14  O2  UNL     1      25.109  49.354  11.352  1.00  0.00    -0.260 OA
HETATM   15  S1  UNL     1      27.214  48.400  12.645  1.00  0.00    -0.064 SA
HETATM   16  C17 UNL     1      27.323  46.742  13.275  1.00  0.00     0.125 C 
ENDROOT
BRANCH  10  17
HETATM   17  C12 UNL     1      25.938  42.323   8.406  1.00  0.00     0.229 C 
HETATM   18  C13 UNL     1      24.593  42.864   8.208  1.00  0.00     0.056 C 
HETATM   19  C14 UNL     1      24.185  42.111   6.912  1.00  0.00     0.031 C 
HETATM   20  C15 UNL     1      24.931  40.818   7.092  1.00  0.00     0.170 C 
HETATM   21  O1  UNL     1      25.626  40.939   8.262  1.00  0.00    -0.366 OA
ENDBRANCH  10  17
BRANCH   1  22
HETATM   22  C4  UNL     1      27.547  40.112  10.093  1.00  0.00     0.076 C 
BRANCH  22  23
HETATM   23  C3  UNL     1      29.019  39.765  10.045  1.00  0.00     0.007 C 
BRANCH  23  24
HETATM   24  C2  UNL     1      29.748  40.624   9.023  1.00  0.00    -0.004 C 
HETATM   25  C1  UNL     1      30.795  41.439   9.748  1.00  0.00     0.005 C 
ENDBRANCH  23  24
ENDBRANCH  22  23
ENDBRANCH   1  22
TORSDOF 4
ENDMDL
