MODEL 1
REMARK VINA RESULT: -8.502851607      0.000      0.000
REMARK  5 active torsions:
REMARK  status: ('A' for Active; 'I' for Inactive)
REMARK    1  A    between atoms: C2_2  and  C3_3 
REMARK    2  A    between atoms: C6_8  and  N1_9 
REMARK    3  A    between atoms: C14_18  and  O3_19 
REMARK    4  A    between atoms: O3_19  and  C15_20 
REMARK    5  A    between atoms: C15_20  and  O4_21 
ROOT
HETATM    1  C3  UNL     1      26.713  41.459   8.834  1.00  0.00     0.015 A 
HETATM    2  C4  UNL     1      25.752  41.023   7.943  1.00  0.00     0.156 A 
HETATM    3  O1  UNL     1      24.677  41.717   7.647  1.00  0.00    -0.298 OA
HETATM    4  C5  UNL     1      24.456  42.908   8.206  1.00  0.00     0.209 A 
HETATM    5  O2  UNL     1      23.501  43.787   8.099  1.00  0.00    -0.267 OA
HETATM    6  C6  UNL     1      23.697  44.821   8.840  1.00  0.00     0.185 A 
HETATM    7  C14 UNL     1      24.909  44.672   9.551  1.00  0.00     0.142 A 
HETATM    8  C16 UNL     1      25.363  43.414   9.104  1.00  0.00     0.111 A 
HETATM    9  C17 UNL     1      26.502  42.692   9.426  1.00  0.00     0.198 A 
HETATM   10  O5  UNL     1      27.289  43.202  10.247  1.00  0.00    -0.287 OA
ENDROOT
BRANCH   6  11
HETATM   11  N1  UNL     1      22.910  46.003   9.022  1.00  0.00    -0.342 N 
HETATM   12  C7  UNL     1      21.973  46.325   8.182  1.00  0.00    -0.011 C 
HETATM   13  C8  UNL     1      21.215  47.569   8.460  1.00  0.00     0.052 C 
HETATM   14  C13 UNL     1      21.639  45.531   6.999  1.00  0.00     0.056 C 
HETATM   15  C9  UNL     1      21.172  48.378   7.189  1.00  0.00     0.006 C 
HETATM   16  C10 UNL     1      20.509  47.576   6.093  1.00  0.00     0.005 C 
HETATM   17  C11 UNL     1      21.264  46.308   5.784  1.00  0.00    -0.013 C 
HETATM   18  C12 UNL     1      20.391  45.470   4.874  1.00  0.00     0.010 C 
ATOM     19  H1  UNL     1      23.089  46.604   9.827  1.00  0.00     0.167 HD
ENDBRANCH   6  11
BRANCH   7  20
HETATM   20  O3  UNL     1      25.488  45.454  10.395  1.00  0.00    -0.321 OA
BRANCH  20  21
HETATM   21  C15 UNL     1      26.066  46.216  11.256  1.00  0.00     0.341 C 
BRANCH  21  22
HETATM   22  O4  UNL     1      26.726  45.437  12.258  1.00  0.00    -0.377 OA
ATOM     23  H4  UNL     1      27.532  45.858  12.533  1.00  0.00     0.212 HD
ENDBRANCH  21  22
ENDBRANCH  20  21
ENDBRANCH   7  20
BRANCH   1  24
HETATM   24  C2  UNL     1      27.919  40.694   9.175  1.00  0.00     0.040 C 
HETATM   25  C1  UNL     1      27.699  39.209   9.218  1.00  0.00     0.010 C 
ENDBRANCH   1  24
TORSDOF 5
ENDMDL
MODEL 2
REMARK VINA RESULT: -8.496800308      1.819      6.712
REMARK  5 active torsions:
REMARK  status: ('A' for Active; 'I' for Inactive)
REMARK    1  A    between atoms: C2_2  and  C3_3 
REMARK    2  A    between atoms: C6_8  and  N1_9 
REMARK    3  A    between atoms: C14_18  and  O3_19 
REMARK    4  A    between atoms: O3_19  and  C15_20 
REMARK    5  A    between atoms: C15_20  and  O4_21 
ROOT
HETATM    1  C3  UNL     1      21.384  44.827   7.566  1.00  0.00     0.015 A 
HETATM    2  C4  UNL     1      21.604  43.617   6.939  1.00  0.00     0.156 A 
HETATM    3  O1  UNL     1      22.693  42.903   7.114  1.00  0.00    -0.298 OA
HETATM    4  C5  UNL     1      23.662  43.323   7.927  1.00  0.00     0.209 A 
HETATM    5  O2  UNL     1      24.816  42.831   8.278  1.00  0.00    -0.267 OA
HETATM    6  C6  UNL     1      25.445  43.589   9.107  1.00  0.00     0.185 A 
HETATM    7  C14 UNL     1      24.669  44.739   9.380  1.00  0.00     0.142 A 
HETATM    8  C16 UNL     1      23.522  44.517   8.589  1.00  0.00     0.111 A 
HETATM    9  C17 UNL     1      22.378  45.281   8.414  1.00  0.00     0.198 A 
HETATM   10  O5  UNL     1      22.307  46.356   9.041  1.00  0.00    -0.287 OA
ENDROOT
BRANCH   6  11
HETATM   11  N1  UNL     1      26.721  43.432   9.736  1.00  0.00    -0.342 N 
HETATM   12  C7  UNL     1      27.401  42.332   9.613  1.00  0.00    -0.011 C 
HETATM   13  C8  UNL     1      28.713  42.269  10.303  1.00  0.00     0.052 C 
HETATM   14  C13 UNL     1      26.941  41.177   8.842  1.00  0.00     0.056 C 
HETATM   15  C9  UNL     1      28.768  40.973  11.073  1.00  0.00     0.006 C 
HETATM   16  C10 UNL     1      28.600  39.807  10.126  1.00  0.00     0.005 C 
HETATM   17  C11 UNL     1      27.270  39.842   9.416  1.00  0.00    -0.013 C 
HETATM   18  C12 UNL     1      27.311  38.796   8.322  1.00  0.00     0.010 C 
ATOM     19  H1  UNL     1      27.104  44.198  10.290  1.00  0.00     0.167 HD
ENDBRANCH   6  11
BRANCH   7  20
HETATM   20  O3  UNL     1      24.906  45.749  10.142  1.00  0.00    -0.321 OA
BRANCH  20  21
HETATM   21  C15 UNL     1      25.121  46.754  10.918  1.00  0.00     0.341 C 
BRANCH  21  22
HETATM   22  O4  UNL     1      23.920  47.135  11.595  1.00  0.00    -0.377 OA
ATOM     23  H4  UNL     1      23.524  47.891  11.177  1.00  0.00     0.212 HD
ENDBRANCH  21  22
ENDBRANCH  20  21
ENDBRANCH   7  20
BRANCH   1  24
HETATM   24  C2  UNL     1      20.172  45.635   7.379  1.00  0.00     0.040 C 
HETATM   25  C1  UNL     1      19.804  45.846   5.939  1.00  0.00     0.010 C 
ENDBRANCH   1  24
TORSDOF 5
ENDMDL
MODEL 3
REMARK VINA RESULT: -8.477499494      4.235      8.300
REMARK  5 active torsions:
REMARK  status: ('A' for Active; 'I' for Inactive)
REMARK    1  A    between atoms: C2_2  and  C3_3 
REMARK    2  A    between atoms: C6_8  and  N1_9 
REMARK    3  A    between atoms: C14_18  and  O3_19 
REMARK    4  A    between atoms: O3_19  and  C15_20 
REMARK    5  A    between atoms: C15_20  and  O4_21 
ROOT
HETATM    1  C3  UNL     1      27.385  49.632  14.936  1.00  0.00     0.015 A 
HETATM    2  C4  UNL     1      26.722  49.798  13.736  1.00  0.00     0.156 A 
HETATM    3  O1  UNL     1      26.727  48.898  12.780  1.00  0.00    -0.298 OA
HETATM    4  C5  UNL     1      27.388  47.749  12.926  1.00  0.00     0.209 A 
HETATM    5  O2  UNL     1      27.558  46.708  12.163  1.00  0.00    -0.267 OA
HETATM    6  C6  UNL     1      28.289  45.804  12.716  1.00  0.00     0.185 A 
HETATM    7  C14 UNL     1      28.685  46.237  14.002  1.00  0.00     0.142 A 
HETATM    8  C16 UNL     1      28.074  47.505  14.089  1.00  0.00     0.111 A 
HETATM    9  C17 UNL     1      28.078  48.447  15.107  1.00  0.00     0.198 A 
HETATM   10  O5  UNL     1      28.718  48.169  16.141  1.00  0.00    -0.287 OA
ENDROOT
BRANCH   6  11
HETATM   11  N1  UNL     1      28.718  44.525  12.237  1.00  0.00    -0.342 N 
HETATM   12  C7  UNL     1      28.071  43.908  11.295  1.00  0.00    -0.011 C 
HETATM   13  C8  UNL     1      28.596  42.588  10.868  1.00  0.00     0.052 C 
HETATM   14  C13 UNL     1      26.874  44.445  10.648  1.00  0.00     0.056 C 
HETATM   15  C9  UNL     1      27.443  41.617  10.843  1.00  0.00     0.006 C 
HETATM   16  C10 UNL     1      26.380  42.109   9.887  1.00  0.00     0.005 C 
HETATM   17  C11 UNL     1      25.823  43.447  10.301  1.00  0.00    -0.013 C 
HETATM   18  C12 UNL     1      24.972  43.959   9.158  1.00  0.00     0.010 C 
ATOM     19  H1  UNL     1      29.546  44.090  12.643  1.00  0.00     0.167 HD
ENDBRANCH   6  11
BRANCH   7  20
HETATM   20  O3  UNL     1      29.412  45.659  14.894  1.00  0.00    -0.321 OA
BRANCH  20  21
HETATM   21  C15 UNL     1      30.145  45.104  15.796  1.00  0.00     0.341 C 
BRANCH  21  22
HETATM   22  O4  UNL     1      30.849  46.092  16.552  1.00  0.00    -0.377 OA
ATOM     23  H4  UNL     1      30.244  46.625  17.055  1.00  0.00     0.212 HD
ENDBRANCH  21  22
ENDBRANCH  20  21
ENDBRANCH   7  20
BRANCH   1  24
HETATM   24  C2  UNL     1      27.388  50.630  16.013  1.00  0.00     0.040 C 
HETATM   25  C1  UNL     1      26.305  50.423  17.031  1.00  0.00     0.010 C 
ENDBRANCH   1  24
TORSDOF 5
ENDMDL
MODEL 4
REMARK VINA RESULT: -8.429238237      5.094      8.951
REMARK  5 active torsions:
REMARK  status: ('A' for Active; 'I' for Inactive)
REMARK    1  A    between atoms: C2_2  and  C3_3 
REMARK    2  A    between atoms: C6_8  and  N1_9 
REMARK    3  A    between atoms: C14_18  and  O3_19 
REMARK    4  A    between atoms: O3_19  and  C15_20 
REMARK    5  A    between atoms: C15_20  and  O4_21 
ROOT
HETATM    1  C3  UNL     1      29.021  49.866  15.812  1.00  0.00     0.015 A 
HETATM    2  C4  UNL     1      27.903  50.116  15.042  1.00  0.00     0.156 A 
HETATM    3  O1  UNL     1      27.247  49.177  14.398  1.00  0.00    -0.298 OA
HETATM    4  C5  UNL     1      27.639  47.904  14.460  1.00  0.00     0.209 A 
HETATM    5  O2  UNL     1      27.190  46.800  13.936  1.00  0.00    -0.267 OA
HETATM    6  C6  UNL     1      27.894  45.774  14.268  1.00  0.00     0.185 A 
HETATM    7  C14 UNL     1      28.954  46.179  15.111  1.00  0.00     0.142 A 
HETATM    8  C16 UNL     1      28.743  47.571  15.204  1.00  0.00     0.111 A 
HETATM    9  C17 UNL     1      29.445  48.551  15.889  1.00  0.00     0.198 A 
HETATM   10  O5  UNL     1      30.439  48.188  16.548  1.00  0.00    -0.287 OA
ENDROOT
BRANCH   6  11
HETATM   11  N1  UNL     1      27.754  44.392  13.922  1.00  0.00    -0.342 N 
HETATM   12  C7  UNL     1      27.545  44.023  12.694  1.00  0.00    -0.011 C 
HETATM   13  C8  UNL     1      27.415  42.568  12.439  1.00  0.00     0.052 C 
HETATM   14  C13 UNL     1      27.437  44.959  11.575  1.00  0.00     0.056 C 
HETATM   15  C9  UNL     1      26.182  42.355  11.598  1.00  0.00     0.006 C 
HETATM   16  C10 UNL     1      26.308  43.120  10.301  1.00  0.00     0.005 C 
HETATM   17  C11 UNL     1      26.435  44.605  10.530  1.00  0.00    -0.013 C 
HETATM   18  C12 UNL     1      26.810  45.239   9.207  1.00  0.00     0.010 C 
ATOM     19  H1  UNL     1      27.819  43.684  14.653  1.00  0.00     0.167 HD
ENDBRANCH   6  11
BRANCH   7  20
HETATM   20  O3  UNL     1      29.888  45.493  15.671  1.00  0.00    -0.321 OA
BRANCH  20  21
HETATM   21  C15 UNL     1      30.822  44.823  16.251  1.00  0.00     0.341 C 
BRANCH  21  22
HETATM   22  O4  UNL     1      31.125  45.383  17.532  1.00  0.00    -0.377 OA
ATOM     23  H4  UNL     1      31.648  44.780  18.047  1.00  0.00     0.212 HD
ENDBRANCH  21  22
ENDBRANCH  20  21
ENDBRANCH   7  20
BRANCH   1  24
HETATM   24  C2  UNL     1      29.763  50.905  16.537  1.00  0.00     0.040 C 
HETATM   25  C1  UNL     1      30.572  51.801  15.644  1.00  0.00     0.010 C 
ENDBRANCH   1  24
TORSDOF 5
ENDMDL
MODEL 5
REMARK VINA RESULT: -8.392390978      1.250      1.441
REMARK  5 active torsions:
REMARK  status: ('A' for Active; 'I' for Inactive)
REMARK    1  A    between atoms: C2_2  and  C3_3 
REMARK    2  A    between atoms: C6_8  and  N1_9 
REMARK    3  A    between atoms: C14_18  and  O3_19 
REMARK    4  A    between atoms: O3_19  and  C15_20 
REMARK    5  A    between atoms: C15_20  and  O4_21 
ROOT
HETATM    1  C3  UNL     1      26.367  41.620   8.463  1.00  0.00     0.015 A 
HETATM    2  C4  UNL     1      25.627  40.926   7.527  1.00  0.00     0.156 A 
HETATM    3  O1  UNL     1      24.440  41.312   7.118  1.00  0.00    -0.298 OA
HETATM    4  C5  UNL     1      23.879  42.423   7.597  1.00  0.00     0.209 A 
HETATM    5  O2  UNL     1      22.745  43.025   7.376  1.00  0.00    -0.267 OA
HETATM    6  C6  UNL     1      22.610  44.097   8.076  1.00  0.00     0.185 A 
HETATM    7  C14 UNL     1      23.757  44.285   8.881  1.00  0.00     0.142 A 
HETATM    8  C16 UNL     1      24.549  43.171   8.533  1.00  0.00     0.111 A 
HETATM    9  C17 UNL     1      25.803  42.775   8.974  1.00  0.00     0.198 A 
HETATM   10  O5  UNL     1      26.363  43.495   9.824  1.00  0.00    -0.287 OA
ENDROOT
BRANCH   6  11
HETATM   11  N1  UNL     1      21.538  45.043   8.139  1.00  0.00    -0.342 N 
HETATM   12  C7  UNL     1      20.801  45.297   7.100  1.00  0.00    -0.011 C 
HETATM   13  C8  UNL     1      19.715  46.293   7.270  1.00  0.00     0.052 C 
HETATM   14  C13 UNL     1      20.990  44.657   5.798  1.00  0.00     0.056 C 
HETATM   15  C9  UNL     1      19.805  47.273   6.128  1.00  0.00     0.006 C 
HETATM   16  C10 UNL     1      19.666  46.543   4.812  1.00  0.00     0.005 C 
HETATM   17  C11 UNL     1      20.763  45.528   4.611  1.00  0.00    -0.013 C 
HETATM   18  C12 UNL     1      20.389  44.687   3.408  1.00  0.00     0.010 C 
ATOM     19  H1  UNL     1      21.349  45.527   9.017  1.00  0.00     0.167 HD
ENDBRANCH   6  11
BRANCH   7  20
HETATM   20  O3  UNL     1      24.045  45.214   9.724  1.00  0.00    -0.321 OA
BRANCH  20  21
HETATM   21  C15 UNL     1      24.328  46.161  10.550  1.00  0.00     0.341 C 
BRANCH  21  22
HETATM   22  O4  UNL     1      25.398  45.773  11.416  1.00  0.00    -0.377 OA
ATOM     23  H4  UNL     1      26.012  46.488  11.531  1.00  0.00     0.212 HD
ENDBRANCH  21  22
ENDBRANCH  20  21
ENDBRANCH   7  20
BRANCH   1  24
HETATM   24  C2  UNL     1      27.694  41.200   8.930  1.00  0.00     0.040 C 
HETATM   25  C1  UNL     1      27.813  39.721   9.156  1.00  0.00     0.010 C 
ENDBRANCH   1  24
TORSDOF 5
ENDMDL
