MODEL 1
REMARK VINA RESULT: -9.007731552      0.000      0.000
REMARK  15 active torsions:
REMARK  status: ('A' for Active; 'I' for Inactive)
REMARK    1  A    between atoms: C2_2  and  O1_3 
REMARK    2  A    between atoms: C2_2  and  C3_5 
REMARK    3  A    between atoms: C2_2  and  C19_47 
REMARK       I    between atoms: C3_5  and  N1_7 
REMARK    4  A    between atoms: N1_7  and  C4_9 
REMARK    5  A    between atoms: C6_13  and  C7_14 
REMARK    6  A    between atoms: C8_17  and  C9_18 
REMARK    7  A    between atoms: C9_18  and  S1_19 
REMARK    8  A    between atoms: S1_19  and  C10_20 
REMARK    9  A    between atoms: C11_23  and  C12_24 
REMARK   10  A    between atoms: C12_24  and  C13_25 
REMARK       I    between atoms: C13_25  and  N4_27 
REMARK       I    between atoms: N5_29  and  C14_31 
REMARK   11  A    between atoms: C14_31  and  O8_33 
REMARK   12  A    between atoms: O8_33  and  N6_34 
REMARK   13  A    between atoms: C15_37  and  O9_38 
REMARK   14  A    between atoms: N7_40  and  C16_41 
REMARK   15  A    between atoms: C16_41  and  C17_42 
ROOT
HETATM    1  C9  UNL     1       1.161  17.406  84.442  1.00  0.00     0.074 C 
ENDROOT
BRANCH   1   2
HETATM    2  C8  UNL     1       2.343  16.956  85.121  1.00  0.00     0.043 C 
HETATM    3  C6  UNL     1       2.793  16.875  86.323  1.00  0.00     0.133 C 
HETATM    4  N2  UNL     1       4.112  16.286  86.448  1.00  0.00    -0.292 N 
HETATM    5  C5  UNL     1       5.225  15.546  86.935  1.00  0.00     0.251 C 
HETATM    6  C18 UNL     1       4.985  16.656  85.318  1.00  0.00     0.192 C 
HETATM    7  C4  UNL     1       5.911  15.538  85.607  1.00  0.00     0.211 C 
HETATM    8  O3  UNL     1       5.557  15.057  88.050  1.00  0.00    -0.271 OA
HETATM    9  S2  UNL     1       3.708  16.282  84.050  1.00  0.00    -0.098 SA
BRANCH   3  10
HETATM   10  C7  UNL     1       2.210  17.455  87.539  1.00  0.00     0.228 C 
HETATM   11  O4  UNL     1       1.220  16.864  88.101  1.00  0.00    -0.643 OA
HETATM   12  O5  UNL     1       2.598  18.585  88.196  1.00  0.00    -0.643 OA
ENDBRANCH   3  10
BRANCH   7  13
HETATM   13  N1  UNL     1       7.275  16.000  85.785  1.00  0.00    -0.342 N 
HETATM   14  C3  UNL     1       8.143  16.267  84.704  1.00  0.00     0.259 C 
HETATM   15  O2  UNL     1       7.731  16.097  83.536  1.00  0.00    -0.270 OA
ATOM     16  H1  UNL     1       7.622  16.139  86.734  1.00  0.00     0.163 HD
BRANCH  14  17
HETATM   17  C2  UNL     1       9.512  16.737  84.934  1.00  0.00     0.178 C 
HETATM   18  C1  UNL     1       9.984  16.224  86.302  1.00  0.00     0.063 C 
BRANCH  17  19
HETATM   19  O1  UNL     1       9.595  18.116  84.985  1.00  0.00    -0.374 OA
ATOM     20  H1  UNL     1      10.475  18.342  84.710  1.00  0.00     0.211 HD
ENDBRANCH  17  19
BRANCH  17  21
HETATM   21  C19 UNL     1      10.484  16.213  83.900  1.00  0.00     0.077 A 
HETATM   22  C20 UNL     1      11.508  16.986  83.412  1.00  0.00     0.099 A 
HETATM   23  S3  UNL     1      12.260  15.910  82.318  1.00  0.00    -0.009 SA
HETATM   24  N8  UNL     1      11.250  14.587  82.549  1.00  0.00    -0.270 N 
HETATM   25  N9  UNL     1      10.396  15.003  83.430  1.00  0.00    -0.295 N 
ATOM     26  H8  UNL     1      11.297  13.671  82.101  1.00  0.00     0.195 HD
ATOM     27  H9  UNL     1       9.655  14.382  83.755  1.00  0.00     0.187 HD
ENDBRANCH  17  21
ENDBRANCH  14  17
ENDBRANCH   7  13
ENDBRANCH   1   2
BRANCH   1  28
HETATM   28  S1  UNL     1       1.086  17.439  82.686  1.00  0.00    -0.064 SA
BRANCH  28  29
HETATM   29  C10 UNL     1       0.752  19.073  82.042  1.00  0.00     0.153 A 
HETATM   30  N3  UNL     1      -0.362  19.774  82.220  1.00  0.00    -0.336 N 
HETATM   31  C11 UNL     1      -0.217  20.946  81.600  1.00  0.00     0.071 A 
ATOM     32  H3  UNL     1      -1.184  19.469  82.740  1.00  0.00     0.168 HD
HETATM   33  C15 UNL     1       1.048  20.976  81.010  1.00  0.00     0.168 A 
HETATM   34  N7  UNL     1       1.637  19.801  81.297  1.00  0.00    -0.296 N 
BRANCH  31  35
HETATM   35  C12 UNL     1      -1.184  22.060  81.508  1.00  0.00     0.166 C 
BRANCH  35  36
HETATM   36  C13 UNL     1      -2.531  21.544  81.136  1.00  0.00     0.241 C 
HETATM   37  O6  UNL     1      -2.574  20.570  80.330  1.00  0.00    -0.271 OA
HETATM   38  N4  UNL     1      -3.686  22.122  81.665  1.00  0.00    -0.265 N 
HETATM   39  N5  UNL     1      -4.359  23.001  81.125  1.00  0.00    -0.241 N 
ATOM     40  H4  UNL     1      -4.000  21.787  82.576  1.00  0.00     0.190 HD
HETATM   41  C14 UNL     1      -4.167  23.639  79.889  1.00  0.00     0.401 C 
ATOM     42  H5  UNL     1      -5.174  23.311  81.653  1.00  0.00     0.192 HD
HETATM   43  O7  UNL     1      -5.153  24.083  79.213  1.00  0.00    -0.235 OA
BRANCH  41  44
HETATM   44  O8  UNL     1      -2.861  23.780  79.409  1.00  0.00    -0.187 OA
BRANCH  44  45
HETATM   45  N6  UNL     1      -2.510  22.940  78.371  1.00  0.00    -0.301 N 
ATOM     46  H62 UNL     1      -2.845  23.104  77.422  1.00  0.00     0.184 HD
ATOM     47  H61 UNL     1      -1.902  22.159  78.618  1.00  0.00     0.184 HD
ENDBRANCH  44  45
ENDBRANCH  41  44
ENDBRANCH  35  36
ENDBRANCH  31  35
BRANCH  33  48
HETATM   48  O9  UNL     1       1.629  21.973  80.275  1.00  0.00    -0.344 OA
ATOM     49  H9  UNL     1       2.529  22.048  79.977  1.00  0.00     0.219 HD
ENDBRANCH  33  48
BRANCH  34  50
HETATM   50  C16 UNL     1       2.954  19.337  80.914  1.00  0.00     0.246 C 
BRANCH  50  51
HETATM   51  C17 UNL     1       3.969  19.983  81.780  1.00  0.00     0.192 C 
HETATM   52  O10 UNL     1       4.046  19.676  82.997  1.00  0.00    -0.647 OA
HETATM   53  O11 UNL     1       4.849  20.938  81.256  1.00  0.00    -0.647 OA
ENDBRANCH  50  51
ENDBRANCH  34  50
ENDBRANCH  28  29
ENDBRANCH   1  28
TORSDOF 15
ENDMDL
MODEL 2
REMARK VINA RESULT: -8.771209163      4.281      5.268
REMARK  15 active torsions:
REMARK  status: ('A' for Active; 'I' for Inactive)
REMARK    1  A    between atoms: C2_2  and  O1_3 
REMARK    2  A    between atoms: C2_2  and  C3_5 
REMARK    3  A    between atoms: C2_2  and  C19_47 
REMARK       I    between atoms: C3_5  and  N1_7 
REMARK    4  A    between atoms: N1_7  and  C4_9 
REMARK    5  A    between atoms: C6_13  and  C7_14 
REMARK    6  A    between atoms: C8_17  and  C9_18 
REMARK    7  A    between atoms: C9_18  and  S1_19 
REMARK    8  A    between atoms: S1_19  and  C10_20 
REMARK    9  A    between atoms: C11_23  and  C12_24 
REMARK   10  A    between atoms: C12_24  and  C13_25 
REMARK       I    between atoms: C13_25  and  N4_27 
REMARK       I    between atoms: N5_29  and  C14_31 
REMARK   11  A    between atoms: C14_31  and  O8_33 
REMARK   12  A    between atoms: O8_33  and  N6_34 
REMARK   13  A    between atoms: C15_37  and  O9_38 
REMARK   14  A    between atoms: N7_40  and  C16_41 
REMARK   15  A    between atoms: C16_41  and  C17_42 
ROOT
HETATM    1  C9  UNL     1       1.738  16.630  83.510  1.00  0.00     0.074 C 
ENDROOT
BRANCH   1   2
HETATM    2  C8  UNL     1       1.694  16.768  84.938  1.00  0.00     0.043 C 
HETATM    3  C6  UNL     1       0.846  17.087  85.850  1.00  0.00     0.133 C 
HETATM    4  N2  UNL     1       1.355  17.039  87.207  1.00  0.00    -0.292 N 
HETATM    5  C5  UNL     1       1.447  16.849  88.614  1.00  0.00     0.251 C 
HETATM    6  C18 UNL     1       2.764  17.466  87.277  1.00  0.00     0.192 C 
HETATM    7  C4  UNL     1       2.941  16.827  88.600  1.00  0.00     0.211 C 
HETATM    8  O3  UNL     1       0.617  16.736  89.558  1.00  0.00    -0.271 OA
HETATM    9  S2  UNL     1       3.278  16.426  85.851  1.00  0.00    -0.098 SA
BRANCH   3  10
HETATM   10  C7  UNL     1      -0.498  17.647  85.668  1.00  0.00     0.228 C 
HETATM   11  O4  UNL     1      -1.418  17.355  86.512  1.00  0.00    -0.643 OA
HETATM   12  O5  UNL     1      -0.928  18.486  84.681  1.00  0.00    -0.643 OA
ENDBRANCH   3  10
BRANCH   7  13
HETATM   13  N1  UNL     1       3.430  17.766  89.592  1.00  0.00    -0.342 N 
HETATM   14  C3  UNL     1       4.801  17.933  89.884  1.00  0.00     0.259 C 
HETATM   15  O2  UNL     1       5.642  17.240  89.269  1.00  0.00    -0.270 OA
ATOM     16  H1  UNL     1       2.751  18.333  90.102  1.00  0.00     0.163 HD
BRANCH  14  17
HETATM   17  C2  UNL     1       5.247  18.898  90.892  1.00  0.00     0.178 C 
HETATM   18  C1  UNL     1       6.760  19.103  90.741  1.00  0.00     0.063 C 
BRANCH  17  19
HETATM   19  O1  UNL     1       5.040  18.447  92.182  1.00  0.00    -0.374 OA
ATOM     20  H1  UNL     1       4.471  19.081  92.600  1.00  0.00     0.211 HD
ENDBRANCH  17  19
BRANCH  17  21
HETATM   21  C19 UNL     1       4.594  20.253  90.722  1.00  0.00     0.077 A 
HETATM   22  C20 UNL     1       3.736  20.765  91.664  1.00  0.00     0.099 A 
HETATM   23  S3  UNL     1       3.325  22.271  90.970  1.00  0.00    -0.009 SA
HETATM   24  N8  UNL     1       4.245  22.151  89.569  1.00  0.00    -0.270 N 
HETATM   25  N9  UNL     1       4.819  20.995  89.678  1.00  0.00    -0.295 N 
ATOM     26  H8  UNL     1       4.332  22.829  88.811  1.00  0.00     0.195 HD
ATOM     27  H9  UNL     1       5.447  20.666  88.944  1.00  0.00     0.187 HD
ENDBRANCH  17  21
ENDBRANCH  14  17
ENDBRANCH   7  13
ENDBRANCH   1   2
BRANCH   1  28
HETATM   28  S1  UNL     1       2.540  17.833  82.510  1.00  0.00    -0.064 SA
BRANCH  28  29
HETATM   29  C10 UNL     1       1.399  19.016  81.808  1.00  0.00     0.153 A 
HETATM   30  N3  UNL     1       0.132  19.191  82.165  1.00  0.00    -0.336 N 
HETATM   31  C11 UNL     1      -0.376  20.175  81.422  1.00  0.00     0.071 A 
ATOM     32  H3  UNL     1      -0.366  18.665  82.884  1.00  0.00     0.168 HD
HETATM   33  C15 UNL     1       0.622  20.635  80.561  1.00  0.00     0.168 A 
HETATM   34  N7  UNL     1       1.721  19.901  80.817  1.00  0.00    -0.296 N 
BRANCH  31  35
HETATM   35  C12 UNL     1      -1.747  20.730  81.446  1.00  0.00     0.166 C 
BRANCH  35  36
HETATM   36  C13 UNL     1      -1.761  22.096  80.853  1.00  0.00     0.241 C 
HETATM   37  O6  UNL     1      -1.295  23.037  81.558  1.00  0.00    -0.271 OA
HETATM   38  N4  UNL     1      -2.267  22.310  79.569  1.00  0.00    -0.265 N 
HETATM   39  N5  UNL     1      -3.417  22.661  79.304  1.00  0.00    -0.241 N 
ATOM     40  H4  UNL     1      -1.631  22.164  78.786  1.00  0.00     0.190 HD
HETATM   41  C14 UNL     1      -4.490  22.932  80.169  1.00  0.00     0.401 C 
ATOM     42  H5  UNL     1      -3.621  22.770  78.311  1.00  0.00     0.192 HD
HETATM   43  O7  UNL     1      -5.394  23.777  79.858  1.00  0.00    -0.235 OA
BRANCH  41  44
HETATM   44  O8  UNL     1      -4.549  22.252  81.389  1.00  0.00    -0.187 OA
BRANCH  44  45
HETATM   45  N6  UNL     1      -4.982  22.995  82.469  1.00  0.00    -0.301 N 
ATOM     46  H62 UNL     1      -5.774  23.632  82.389  1.00  0.00     0.184 HD
ATOM     47  H61 UNL     1      -4.460  22.863  83.336  1.00  0.00     0.184 HD
ENDBRANCH  44  45
ENDBRANCH  41  44
ENDBRANCH  35  36
ENDBRANCH  31  35
BRANCH  33  48
HETATM   48  O9  UNL     1       0.559  21.629  79.624  1.00  0.00    -0.344 OA
ATOM     49  H9  UNL     1       0.809  21.603  78.708  1.00  0.00     0.219 HD
ENDBRANCH  33  48
BRANCH  34  50
HETATM   50  C16 UNL     1       3.025  19.984  80.192  1.00  0.00     0.246 C 
BRANCH  50  51
HETATM   51  C17 UNL     1       3.839  21.001  80.897  1.00  0.00     0.192 C 
HETATM   52  O10 UNL     1       4.951  20.686  81.393  1.00  0.00    -0.647 OA
HETATM   53  O11 UNL     1       3.382  22.320  81.021  1.00  0.00    -0.647 OA
ENDBRANCH  50  51
ENDBRANCH  34  50
ENDBRANCH  28  29
ENDBRANCH   1  28
TORSDOF 15
ENDMDL
MODEL 3
REMARK VINA RESULT: -8.697477233      3.107     10.931
REMARK  15 active torsions:
REMARK  status: ('A' for Active; 'I' for Inactive)
REMARK    1  A    between atoms: C2_2  and  O1_3 
REMARK    2  A    between atoms: C2_2  and  C3_5 
REMARK    3  A    between atoms: C2_2  and  C19_47 
REMARK       I    between atoms: C3_5  and  N1_7 
REMARK    4  A    between atoms: N1_7  and  C4_9 
REMARK    5  A    between atoms: C6_13  and  C7_14 
REMARK    6  A    between atoms: C8_17  and  C9_18 
REMARK    7  A    between atoms: C9_18  and  S1_19 
REMARK    8  A    between atoms: S1_19  and  C10_20 
REMARK    9  A    between atoms: C11_23  and  C12_24 
REMARK   10  A    between atoms: C12_24  and  C13_25 
REMARK       I    between atoms: C13_25  and  N4_27 
REMARK       I    between atoms: N5_29  and  C14_31 
REMARK   11  A    between atoms: C14_31  and  O8_33 
REMARK   12  A    between atoms: O8_33  and  N6_34 
REMARK   13  A    between atoms: C15_37  and  O9_38 
REMARK   14  A    between atoms: N7_40  and  C16_41 
REMARK   15  A    between atoms: C16_41  and  C17_42 
ROOT
HETATM    1  C9  UNL     1       4.283  15.535  87.174  1.00  0.00     0.074 C 
ENDROOT
BRANCH   1   2
HETATM    2  C8  UNL     1       3.871  15.894  85.846  1.00  0.00     0.043 C 
HETATM    3  C6  UNL     1       4.327  15.832  84.646  1.00  0.00     0.133 C 
HETATM    4  N2  UNL     1       3.440  16.348  83.623  1.00  0.00    -0.292 N 
HETATM    5  C5  UNL     1       2.742  16.521  82.394  1.00  0.00     0.251 C 
HETATM    6  C18 UNL     1       2.676  17.515  84.100  1.00  0.00     0.192 C 
HETATM    7  C4  UNL     1       1.678  17.365  83.018  1.00  0.00     0.211 C 
HETATM    8  O3  UNL     1       2.913  16.133  81.206  1.00  0.00    -0.271 OA
HETATM    9  S2  UNL     1       2.209  16.714  85.687  1.00  0.00    -0.098 SA
BRANCH   3  10
HETATM   10  C7  UNL     1       5.683  15.464  84.220  1.00  0.00     0.228 C 
HETATM   11  O4  UNL     1       6.689  15.919  84.873  1.00  0.00    -0.643 OA
HETATM   12  O5  UNL     1       6.044  14.657  83.181  1.00  0.00    -0.643 OA
ENDBRANCH   3  10
BRANCH   7  13
HETATM   13  N1  UNL     1       1.535  18.583  82.243  1.00  0.00    -0.342 N 
HETATM   14  C3  UNL     1       0.381  19.395  82.292  1.00  0.00     0.259 C 
HETATM   15  O2  UNL     1      -0.570  19.056  83.030  1.00  0.00    -0.270 OA
ATOM     16  H1  UNL     1       2.304  18.866  81.635  1.00  0.00     0.163 HD
BRANCH  14  17
HETATM   17  C2  UNL     1       0.286  20.619  81.492  1.00  0.00     0.178 C 
HETATM   18  C1  UNL     1       1.364  20.578  80.401  1.00  0.00     0.063 C 
BRANCH  17  19
HETATM   19  O1  UNL     1       0.529  21.757  82.239  1.00  0.00    -0.374 OA
ATOM     20  H1  UNL     1       0.195  22.487  81.733  1.00  0.00     0.211 HD
ENDBRANCH  17  19
BRANCH  17  21
HETATM   21  C19 UNL     1      -1.051  20.752  80.796  1.00  0.00     0.077 A 
HETATM   22  C20 UNL     1      -1.145  20.903  79.434  1.00  0.00     0.099 A 
HETATM   23  S3  UNL     1      -2.837  20.993  79.216  1.00  0.00    -0.009 SA
HETATM   24  N8  UNL     1      -3.298  20.836  80.825  1.00  0.00    -0.270 N 
HETATM   25  N9  UNL     1      -2.172  20.724  81.456  1.00  0.00    -0.295 N 
ATOM     26  H8  UNL     1      -4.241  20.831  81.213  1.00  0.00     0.195 HD
ATOM     27  H9  UNL     1      -2.164  20.615  82.470  1.00  0.00     0.187 HD
ENDBRANCH  17  21
ENDBRANCH  14  17
ENDBRANCH   7  13
ENDBRANCH   1   2
BRANCH   1  28
HETATM   28  S1  UNL     1       4.616  16.769  88.381  1.00  0.00    -0.064 SA
BRANCH  28  29
HETATM   29  C10 UNL     1       6.264  17.446  88.235  1.00  0.00     0.153 A 
HETATM   30  N3  UNL     1       7.012  17.460  87.138  1.00  0.00    -0.336 N 
HETATM   31  C11 UNL     1       8.164  18.065  87.431  1.00  0.00     0.071 A 
ATOM     32  H3  UNL     1       6.751  17.076  86.230  1.00  0.00     0.168 HD
HETATM   33  C15 UNL     1       8.132  18.446  88.774  1.00  0.00     0.168 A 
HETATM   34  N7  UNL     1       6.940  18.052  89.257  1.00  0.00    -0.296 N 
BRANCH  31  35
HETATM   35  C12 UNL     1       9.320  18.317  86.543  1.00  0.00     0.166 C 
BRANCH  35  36
HETATM   36  C13 UNL     1      10.206  17.121  86.499  1.00  0.00     0.241 C 
HETATM   37  O6  UNL     1      11.436  17.304  86.732  1.00  0.00    -0.271 OA
HETATM   38  N4  UNL     1       9.685  15.858  86.213  1.00  0.00    -0.265 N 
HETATM   39  N5  UNL     1       9.656  15.331  85.100  1.00  0.00    -0.241 N 
ATOM     40  H4  UNL     1       9.296  15.326  86.991  1.00  0.00     0.190 HD
HETATM   41  C14 UNL     1      10.114  15.823  83.868  1.00  0.00     0.401 C 
ATOM     42  H5  UNL     1       9.237  14.402  85.069  1.00  0.00     0.192 HD
HETATM   43  O7  UNL     1      10.531  15.036  82.954  1.00  0.00    -0.235 OA
BRANCH  41  44
HETATM   44  O8  UNL     1      10.105  17.205  83.658  1.00  0.00    -0.187 OA
BRANCH  44  45
HETATM   45  N6  UNL     1      11.336  17.783  83.415  1.00  0.00    -0.301 N 
ATOM     46  H62 UNL     1      12.128  17.620  84.035  1.00  0.00     0.184 HD
ATOM     47  H61 UNL     1      11.392  18.374  82.585  1.00  0.00     0.184 HD
ENDBRANCH  44  45
ENDBRANCH  41  44
ENDBRANCH  35  36
ENDBRANCH  31  35
BRANCH  33  48
HETATM   48  O9  UNL     1       9.088  19.093  89.507  1.00  0.00    -0.344 OA
ATOM     49  H9  UNL     1       9.381  18.917  90.394  1.00  0.00     0.219 HD
ENDBRANCH  33  48
BRANCH  34  50
HETATM   50  C16 UNL     1       6.416  18.209  90.599  1.00  0.00     0.246 C 
BRANCH  50  51
HETATM   51  C17 UNL     1       5.933  19.599  90.773  1.00  0.00     0.192 C 
HETATM   52  O10 UNL     1       4.713  19.867  90.620  1.00  0.00    -0.647 OA
HETATM   53  O11 UNL     1       6.824  20.628  91.107  1.00  0.00    -0.647 OA
ENDBRANCH  50  51
ENDBRANCH  34  50
ENDBRANCH  28  29
ENDBRANCH   1  28
TORSDOF 15
ENDMDL
MODEL 4
REMARK VINA RESULT: -8.559003308      3.002     11.271
REMARK  15 active torsions:
REMARK  status: ('A' for Active; 'I' for Inactive)
REMARK    1  A    between atoms: C2_2  and  O1_3 
REMARK    2  A    between atoms: C2_2  and  C3_5 
REMARK    3  A    between atoms: C2_2  and  C19_47 
REMARK       I    between atoms: C3_5  and  N1_7 
REMARK    4  A    between atoms: N1_7  and  C4_9 
REMARK    5  A    between atoms: C6_13  and  C7_14 
REMARK    6  A    between atoms: C8_17  and  C9_18 
REMARK    7  A    between atoms: C9_18  and  S1_19 
REMARK    8  A    between atoms: S1_19  and  C10_20 
REMARK    9  A    between atoms: C11_23  and  C12_24 
REMARK   10  A    between atoms: C12_24  and  C13_25 
REMARK       I    between atoms: C13_25  and  N4_27 
REMARK       I    between atoms: N5_29  and  C14_31 
REMARK   11  A    between atoms: C14_31  and  O8_33 
REMARK   12  A    between atoms: O8_33  and  N6_34 
REMARK   13  A    between atoms: C15_37  and  O9_38 
REMARK   14  A    between atoms: N7_40  and  C16_41 
REMARK   15  A    between atoms: C16_41  and  C17_42 
ROOT
HETATM    1  C9  UNL     1       4.707  15.562  86.768  1.00  0.00     0.074 C 
ENDROOT
BRANCH   1   2
HETATM    2  C8  UNL     1       4.182  15.972  85.496  1.00  0.00     0.043 C 
HETATM    3  C6  UNL     1       4.532  15.958  84.259  1.00  0.00     0.133 C 
HETATM    4  N2  UNL     1       3.560  16.513  83.338  1.00  0.00    -0.292 N 
HETATM    5  C5  UNL     1       2.758  16.734  82.183  1.00  0.00     0.251 C 
HETATM    6  C18 UNL     1       2.842  17.659  83.927  1.00  0.00     0.192 C 
HETATM    7  C4  UNL     1       1.753  17.550  82.930  1.00  0.00     0.211 C 
HETATM    8  O3  UNL     1       2.824  16.394  80.970  1.00  0.00    -0.271 OA
HETATM    9  S2  UNL     1       2.514  16.794  85.515  1.00  0.00    -0.098 SA
BRANCH   3  10
HETATM   10  C7  UNL     1       5.845  15.610  83.703  1.00  0.00     0.228 C 
HETATM   11  O4  UNL     1       6.704  16.540  83.498  1.00  0.00    -0.643 OA
HETATM   12  O5  UNL     1       6.309  14.373  83.365  1.00  0.00    -0.643 OA
ENDBRANCH   3  10
BRANCH   7  13
HETATM   13  N1  UNL     1       1.546  18.797  82.220  1.00  0.00    -0.342 N 
HETATM   14  C3  UNL     1       0.333  19.519  82.271  1.00  0.00     0.259 C 
HETATM   15  O2  UNL     1      -0.613  19.070  82.954  1.00  0.00    -0.270 OA
ATOM     16  H1  UNL     1       2.311  19.170  81.657  1.00  0.00     0.163 HD
BRANCH  14  17
HETATM   17  C2  UNL     1       0.173  20.778  81.539  1.00  0.00     0.178 C 
HETATM   18  C1  UNL     1       1.270  20.867  80.469  1.00  0.00     0.063 C 
BRANCH  17  19
HETATM   19  O1  UNL     1       0.330  21.885  82.352  1.00  0.00    -0.374 OA
ATOM     20  H1  UNL     1       0.046  21.624  83.219  1.00  0.00     0.211 HD
ENDBRANCH  17  19
BRANCH  17  21
HETATM   21  C19 UNL     1      -1.157  20.865  80.823  1.00  0.00     0.077 A 
HETATM   22  C20 UNL     1      -1.237  21.058  79.466  1.00  0.00     0.099 A 
HETATM   23  S3  UNL     1      -2.928  21.066  79.220  1.00  0.00    -0.009 SA
HETATM   24  N8  UNL     1      -3.405  20.831  80.814  1.00  0.00    -0.270 N 
HETATM   25  N9  UNL     1      -2.286  20.756  81.461  1.00  0.00    -0.295 N 
ATOM     26  H8  UNL     1      -4.353  20.762  81.185  1.00  0.00     0.195 HD
ATOM     27  H9  UNL     1      -2.289  20.612  82.471  1.00  0.00     0.187 HD
ENDBRANCH  17  21
ENDBRANCH  14  17
ENDBRANCH   7  13
ENDBRANCH   1   2
BRANCH   1  28
HETATM   28  S1  UNL     1       6.001  14.376  86.871  1.00  0.00    -0.064 SA
BRANCH  28  29
HETATM   29  C10 UNL     1       7.623  15.113  86.730  1.00  0.00     0.153 A 
HETATM   30  N3  UNL     1       8.324  15.257  85.612  1.00  0.00    -0.336 N 
HETATM   31  C11 UNL     1       9.471  15.865  85.918  1.00  0.00     0.071 A 
ATOM     32  H3  UNL     1       8.036  14.955  84.681  1.00  0.00     0.168 HD
HETATM   33  C15 UNL     1       9.484  16.112  87.292  1.00  0.00     0.168 A 
HETATM   34  N7  UNL     1       8.323  15.637  87.780  1.00  0.00    -0.296 N 
BRANCH  31  35
HETATM   35  C12 UNL     1      10.582  16.238  85.015  1.00  0.00     0.166 C 
BRANCH  35  36
HETATM   36  C13 UNL     1      10.429  17.650  84.567  1.00  0.00     0.241 C 
HETATM   37  O6  UNL     1      10.917  17.954  83.440  1.00  0.00    -0.271 OA
HETATM   38  N4  UNL     1       9.771  18.585  85.368  1.00  0.00    -0.265 N 
HETATM   39  N5  UNL     1      10.314  19.357  86.159  1.00  0.00    -0.241 N 
ATOM     40  H4  UNL     1       8.756  18.633  85.292  1.00  0.00     0.190 HD
HETATM   41  C14 UNL     1      11.676  19.510  86.464  1.00  0.00     0.401 C 
ATOM     42  H5  UNL     1       9.682  19.975  86.667  1.00  0.00     0.192 HD
HETATM   43  O7  UNL     1      12.149  20.636  86.835  1.00  0.00    -0.235 OA
BRANCH  41  44
HETATM   44  O8  UNL     1      12.512  18.395  86.354  1.00  0.00    -0.187 OA
BRANCH  44  45
HETATM   45  N6  UNL     1      13.103  17.970  87.527  1.00  0.00    -0.301 N 
ATOM     46  H62 UNL     1      14.115  17.868  87.602  1.00  0.00     0.184 HD
ATOM     47  H61 UNL     1      12.466  17.770  88.298  1.00  0.00     0.184 HD
ENDBRANCH  44  45
ENDBRANCH  41  44
ENDBRANCH  35  36
ENDBRANCH  31  35
BRANCH  33  48
HETATM   48  O9  UNL     1      10.452  16.714  88.048  1.00  0.00    -0.344 OA
ATOM     49  H9  UNL     1      10.900  17.538  87.899  1.00  0.00     0.219 HD
ENDBRANCH  33  48
BRANCH  34  50
HETATM   50  C16 UNL     1       7.852  15.647  89.150  1.00  0.00     0.246 C 
BRANCH  50  51
HETATM   51  C17 UNL     1       7.378  17.009  89.492  1.00  0.00     0.192 C 
HETATM   52  O10 UNL     1       8.205  17.901  89.815  1.00  0.00    -0.647 OA
HETATM   53  O11 UNL     1       6.012  17.319  89.459  1.00  0.00    -0.647 OA
ENDBRANCH  50  51
ENDBRANCH  34  50
ENDBRANCH  28  29
ENDBRANCH   1  28
TORSDOF 15
ENDMDL
MODEL 5
REMARK VINA RESULT: -8.525125569      3.125     10.902
REMARK  15 active torsions:
REMARK  status: ('A' for Active; 'I' for Inactive)
REMARK    1  A    between atoms: C2_2  and  O1_3 
REMARK    2  A    between atoms: C2_2  and  C3_5 
REMARK    3  A    between atoms: C2_2  and  C19_47 
REMARK       I    between atoms: C3_5  and  N1_7 
REMARK    4  A    between atoms: N1_7  and  C4_9 
REMARK    5  A    between atoms: C6_13  and  C7_14 
REMARK    6  A    between atoms: C8_17  and  C9_18 
REMARK    7  A    between atoms: C9_18  and  S1_19 
REMARK    8  A    between atoms: S1_19  and  C10_20 
REMARK    9  A    between atoms: C11_23  and  C12_24 
REMARK   10  A    between atoms: C12_24  and  C13_25 
REMARK       I    between atoms: C13_25  and  N4_27 
REMARK       I    between atoms: N5_29  and  C14_31 
REMARK   11  A    between atoms: C14_31  and  O8_33 
REMARK   12  A    between atoms: O8_33  and  N6_34 
REMARK   13  A    between atoms: C15_37  and  O9_38 
REMARK   14  A    between atoms: N7_40  and  C16_41 
REMARK   15  A    between atoms: C16_41  and  C17_42 
ROOT
HETATM    1  C9  UNL     1       4.699  15.644  86.767  1.00  0.00     0.074 C 
ENDROOT
BRANCH   1   2
HETATM    2  C8  UNL     1       4.174  16.036  85.490  1.00  0.00     0.043 C 
HETATM    3  C6  UNL     1       4.523  16.002  84.253  1.00  0.00     0.133 C 
HETATM    4  N2  UNL     1       3.551  16.544  83.324  1.00  0.00    -0.292 N 
HETATM    5  C5  UNL     1       2.750  16.748  82.166  1.00  0.00     0.251 C 
HETATM    6  C18 UNL     1       2.836  17.700  83.895  1.00  0.00     0.192 C 
HETATM    7  C4  UNL     1       1.747  17.578  82.900  1.00  0.00     0.211 C 
HETATM    8  O3  UNL     1       2.814  16.389  80.958  1.00  0.00    -0.271 OA
HETATM    9  S2  UNL     1       2.507  16.862  85.496  1.00  0.00    -0.098 SA
BRANCH   3  10
HETATM   10  C7  UNL     1       5.835  15.642  83.701  1.00  0.00     0.228 C 
HETATM   11  O4  UNL     1       6.666  16.573  83.406  1.00  0.00    -0.643 OA
HETATM   12  O5  UNL     1       6.325  14.393  83.455  1.00  0.00    -0.643 OA
ENDBRANCH   3  10
BRANCH   7  13
HETATM   13  N1  UNL     1       1.542  18.815  82.170  1.00  0.00    -0.342 N 
HETATM   14  C3  UNL     1       0.341  19.555  82.233  1.00  0.00     0.259 C 
HETATM   15  O2  UNL     1      -0.597  19.133  82.944  1.00  0.00    -0.270 OA
ATOM     16  H1  UNL     1       2.300  19.166  81.584  1.00  0.00     0.163 HD
BRANCH  14  17
HETATM   17  C2  UNL     1       0.183  20.802  81.480  1.00  0.00     0.178 C 
HETATM   18  C1  UNL     1       1.259  20.855  80.386  1.00  0.00     0.063 C 
BRANCH  17  19
HETATM   19  O1  UNL     1       0.372  21.922  82.268  1.00  0.00    -0.374 OA
ATOM     20  H1  UNL     1       0.406  22.664  81.676  1.00  0.00     0.211 HD
ENDBRANCH  17  19
BRANCH  17  21
HETATM   21  C19 UNL     1      -1.160  20.894  80.790  1.00  0.00     0.077 A 
HETATM   22  C20 UNL     1      -1.266  21.061  79.431  1.00  0.00     0.099 A 
HETATM   23  S3  UNL     1      -2.961  21.089  79.219  1.00  0.00    -0.009 SA
HETATM   24  N8  UNL     1      -3.409  20.891  80.827  1.00  0.00    -0.270 N 
HETATM   25  N9  UNL     1      -2.277  20.813  81.453  1.00  0.00    -0.295 N 
ATOM     26  H8  UNL     1      -4.350  20.844  81.219  1.00  0.00     0.195 HD
ATOM     27  H9  UNL     1      -2.261  20.689  82.465  1.00  0.00     0.187 HD
ENDBRANCH  17  21
ENDBRANCH  14  17
ENDBRANCH   7  13
ENDBRANCH   1   2
BRANCH   1  28
HETATM   28  S1  UNL     1       4.621  16.731  88.147  1.00  0.00    -0.064 SA
BRANCH  28  29
HETATM   29  C10 UNL     1       6.212  17.433  88.560  1.00  0.00     0.153 A 
HETATM   30  N3  UNL     1       7.380  17.099  88.024  1.00  0.00    -0.336 N 
HETATM   31  C11 UNL     1       8.324  17.858  88.582  1.00  0.00     0.071 A 
ATOM     32  H3  UNL     1       7.529  16.387  87.309  1.00  0.00     0.168 HD
HETATM   33  C15 UNL     1       7.715  18.705  89.510  1.00  0.00     0.168 A 
HETATM   34  N7  UNL     1       6.399  18.426  89.481  1.00  0.00    -0.296 N 
BRANCH  31  35
HETATM   35  C12 UNL     1       9.779  17.853  88.319  1.00  0.00     0.166 C 
BRANCH  35  36
HETATM   36  C13 UNL     1      10.079  18.607  87.071  1.00  0.00     0.241 C 
HETATM   37  O6  UNL     1       9.292  19.547  86.759  1.00  0.00    -0.271 OA
HETATM   38  N4  UNL     1      11.189  18.279  86.289  1.00  0.00    -0.265 N 
HETATM   39  N5  UNL     1      11.179  17.530  85.312  1.00  0.00    -0.241 N 
ATOM     40  H4  UNL     1      12.083  18.694  86.550  1.00  0.00     0.190 HD
HETATM   41  C14 UNL     1      10.108  16.831  84.734  1.00  0.00     0.401 C 
ATOM     42  H5  UNL     1      12.082  17.398  84.856  1.00  0.00     0.192 HD
HETATM   43  O7  UNL     1      10.086  16.565  83.486  1.00  0.00    -0.235 OA
BRANCH  41  44
HETATM   44  O8  UNL     1       9.054  16.427  85.560  1.00  0.00    -0.187 OA
BRANCH  44  45
HETATM   45  N6  UNL     1       8.655  15.112  85.423  1.00  0.00    -0.301 N 
ATOM     46  H62 UNL     1       9.336  14.355  85.376  1.00  0.00     0.184 HD
ATOM     47  H61 UNL     1       7.648  14.957  85.375  1.00  0.00     0.184 HD
ENDBRANCH  44  45
ENDBRANCH  41  44
ENDBRANCH  35  36
ENDBRANCH  31  35
BRANCH  33  48
HETATM   48  O9  UNL     1       8.286  19.651  90.315  1.00  0.00    -0.344 OA
ATOM     49  H9  UNL     1       8.077  19.875  91.215  1.00  0.00     0.219 HD
ENDBRANCH  33  48
BRANCH  34  50
HETATM   50  C16 UNL     1       5.334  19.027  90.257  1.00  0.00     0.246 C 
BRANCH  50  51
HETATM   51  C17 UNL     1       5.020  20.364  89.700  1.00  0.00     0.192 C 
HETATM   52  O10 UNL     1       5.117  21.388  90.425  1.00  0.00    -0.647 OA
HETATM   53  O11 UNL     1       4.614  20.503  88.366  1.00  0.00    -0.647 OA
ENDBRANCH  50  51
ENDBRANCH  34  50
ENDBRANCH  28  29
ENDBRANCH   1  28
TORSDOF 15
ENDMDL
