MODEL 1
REMARK VINA RESULT: -7.064501420      0.000      0.000
REMARK  9 active torsions:
REMARK  status: ('A' for Active; 'I' for Inactive)
REMARK    1  A    between atoms: C2_2  and  C3_3 
REMARK    2  A    between atoms: C3_3  and  C4_4 
REMARK    3  A    between atoms: C5_5  and  C6_6 
REMARK    4  A    between atoms: C6_6  and  C7_7 
REMARK    5  A    between atoms: C7_7  and  C8_13 
REMARK    6  A    between atoms: N1_8  and  N2_10 
REMARK    7  A    between atoms: C9_14  and  O1_15 
REMARK    8  A    between atoms: C10_17  and  O2_18 
REMARK    9  A    between atoms: C11_20  and  C12_21 
ROOT
HETATM    1  C8  UNL     1       1.904  13.081  19.259  1.00  0.00     0.100 A 
HETATM    2  C9  UNL     1       1.120  13.756  18.352  1.00  0.00     0.120 A 
HETATM    3  C10 UNL     1       1.613  14.745  17.501  1.00  0.00     0.134 A 
HETATM    4  C11 UNL     1       2.968  15.039  17.594  1.00  0.00     0.115 A 
HETATM    5  O3  UNL     1       3.718  14.384  18.469  1.00  0.00    -0.272 OA
HETATM    6  C16 UNL     1       3.244  13.463  19.258  1.00  0.00     0.303 A 
HETATM    7  O4  UNL     1       4.000  12.863  20.081  1.00  0.00    -0.259 OA
ENDROOT
BRANCH   1   8
HETATM    8  C7  UNL     1       1.405  12.099  20.191  1.00  0.00     0.047 C 
HETATM    9  N1  UNL     1       0.970  12.602  21.329  1.00  0.00    -0.310 N 
ATOM     10  H1  UNL     1       1.066  13.601  21.510  1.00  0.00     0.186 HD
BRANCH   8  11
HETATM   11  C6  UNL     1       1.248  10.644  19.958  1.00  0.00     0.086 C 
BRANCH  11  12
HETATM   12  C5  UNL     1       2.459   9.849  20.139  1.00  0.00    -0.025 C 
HETATM   13  C4  UNL     1       2.612   8.883  20.989  1.00  0.00    -0.030 C 
BRANCH  13  14
HETATM   14  C3  UNL     1       1.608   8.401  21.937  1.00  0.00     0.026 C 
BRANCH  14  15
HETATM   15  C2  UNL     1       2.050   8.670  23.395  1.00  0.00    -0.001 C 
HETATM   16  C1  UNL     1       3.541   8.694  23.518  1.00  0.00     0.005 C 
ENDBRANCH  14  15
ENDBRANCH  13  14
ENDBRANCH  11  12
ENDBRANCH   8  11
BRANCH   9  17
HETATM   17  N2  UNL     1       0.389  11.792  22.273  1.00  0.00    -0.345 N 
ATOM     18  H22 UNL     1       0.969  11.103  22.753  1.00  0.00     0.176 HD
ATOM     19  H21 UNL     1      -0.605  11.877  22.489  1.00  0.00     0.176 HD
ENDBRANCH   9  17
ENDBRANCH   1   8
BRANCH   2  20
HETATM   20  O1  UNL     1      -0.200  13.464  18.251  1.00  0.00    -0.357 OA
ATOM     21  H1  UNL     1      -0.475  12.641  17.864  1.00  0.00     0.218 HD
ENDBRANCH   2  20
BRANCH   3  22
HETATM   22  O2  UNL     1       0.853  15.442  16.590  1.00  0.00    -0.356 OA
ATOM     23  H2  UNL     1       1.025  15.476  15.656  1.00  0.00     0.218 HD
ENDBRANCH   3  22
BRANCH   4  24
HETATM   24  C12 UNL     1       3.554  16.049  16.736  1.00  0.00     0.042 C 
HETATM   25  C13 UNL     1       3.992  17.184  17.198  1.00  0.00    -0.085 C 
HETATM   26  C14 UNL     1       4.605  18.222  16.295  1.00  0.00     0.043 C 
HETATM   27  C15 UNL     1       3.870  17.558  18.615  1.00  0.00     0.043 C 
ENDBRANCH   4  24
TORSDOF 9
ENDMDL
MODEL 2
REMARK VINA RESULT: -6.556364174      2.314      3.160
REMARK  9 active torsions:
REMARK  status: ('A' for Active; 'I' for Inactive)
REMARK    1  A    between atoms: C2_2  and  C3_3 
REMARK    2  A    between atoms: C3_3  and  C4_4 
REMARK    3  A    between atoms: C5_5  and  C6_6 
REMARK    4  A    between atoms: C6_6  and  C7_7 
REMARK    5  A    between atoms: C7_7  and  C8_13 
REMARK    6  A    between atoms: N1_8  and  N2_10 
REMARK    7  A    between atoms: C9_14  and  O1_15 
REMARK    8  A    between atoms: C10_17  and  O2_18 
REMARK    9  A    between atoms: C11_20  and  C12_21 
ROOT
HETATM    1  C8  UNL     1       3.868  14.307  19.866  1.00  0.00     0.100 A 
HETATM    2  C9  UNL     1       3.766  14.972  18.665  1.00  0.00     0.120 A 
HETATM    3  C10 UNL     1       4.054  16.328  18.514  1.00  0.00     0.134 A 
HETATM    4  C11 UNL     1       4.466  17.016  19.650  1.00  0.00     0.115 A 
HETATM    5  O3  UNL     1       4.563  16.369  20.803  1.00  0.00    -0.272 OA
HETATM    6  C16 UNL     1       4.289  15.102  20.929  1.00  0.00     0.303 A 
HETATM    7  O4  UNL     1       4.396  14.525  22.054  1.00  0.00    -0.259 OA
ENDROOT
BRANCH   1   8
HETATM    8  C7  UNL     1       3.517  12.921  20.058  1.00  0.00     0.047 C 
HETATM    9  N1  UNL     1       4.524  12.150  20.414  1.00  0.00    -0.310 N 
ATOM     10  H1  UNL     1       5.465  12.540  20.468  1.00  0.00     0.186 HD
BRANCH   8  11
HETATM   11  C6  UNL     1       2.161  12.325  19.993  1.00  0.00     0.086 C 
BRANCH  11  12
HETATM   12  C5  UNL     1       1.334  12.525  21.179  1.00  0.00    -0.025 C 
HETATM   13  C4  UNL     1       0.757  11.592  21.868  1.00  0.00    -0.030 C 
BRANCH  13  14
HETATM   14  C3  UNL     1       0.814  10.156  21.593  1.00  0.00     0.026 C 
BRANCH  14  15
HETATM   15  C2  UNL     1       1.645   9.420  22.670  1.00  0.00    -0.001 C 
HETATM   16  C1  UNL     1       1.670   7.944  22.427  1.00  0.00     0.005 C 
ENDBRANCH  14  15
ENDBRANCH  13  14
ENDBRANCH  11  12
ENDBRANCH   8  11
BRANCH   9  17
HETATM   17  N2  UNL     1       4.317  10.826  20.714  1.00  0.00    -0.345 N 
ATOM     18  H22 UNL     1       3.535  10.577  21.320  1.00  0.00     0.176 HD
ATOM     19  H21 UNL     1       4.935  10.107  20.338  1.00  0.00     0.176 HD
ENDBRANCH   9  17
ENDBRANCH   1   8
BRANCH   2  20
HETATM   20  O1  UNL     1       3.376  14.302  17.552  1.00  0.00    -0.357 OA
ATOM     21  H1  UNL     1       2.703  14.668  16.991  1.00  0.00     0.218 HD
ENDBRANCH   2  20
BRANCH   3  22
HETATM   22  O2  UNL     1       3.954  17.022  17.329  1.00  0.00    -0.356 OA
ATOM     23  H2  UNL     1       3.297  17.682  17.145  1.00  0.00     0.218 HD
ENDBRANCH   3  22
BRANCH   4  24
HETATM   24  C12 UNL     1       4.790  18.426  19.570  1.00  0.00     0.042 C 
HETATM   25  C13 UNL     1       5.955  18.891  19.914  1.00  0.00    -0.085 C 
HETATM   26  C14 UNL     1       6.280  20.359  19.819  1.00  0.00     0.043 C 
HETATM   27  C15 UNL     1       7.014  18.036  20.471  1.00  0.00     0.043 C 
ENDBRANCH   4  24
TORSDOF 9
ENDMDL
MODEL 3
REMARK VINA RESULT: -6.411725808      3.346      7.097
REMARK  9 active torsions:
REMARK  status: ('A' for Active; 'I' for Inactive)
REMARK    1  A    between atoms: C2_2  and  C3_3 
REMARK    2  A    between atoms: C3_3  and  C4_4 
REMARK    3  A    between atoms: C5_5  and  C6_6 
REMARK    4  A    between atoms: C6_6  and  C7_7 
REMARK    5  A    between atoms: C7_7  and  C8_13 
REMARK    6  A    between atoms: N1_8  and  N2_10 
REMARK    7  A    between atoms: C9_14  and  O1_15 
REMARK    8  A    between atoms: C10_17  and  O2_18 
REMARK    9  A    between atoms: C11_20  and  C12_21 
ROOT
HETATM    1  C8  UNL     1       3.140  12.203  20.549  1.00  0.00     0.100 A 
HETATM    2  C9  UNL     1       3.872  11.038  20.538  1.00  0.00     0.120 A 
HETATM    3  C10 UNL     1       3.335   9.793  20.865  1.00  0.00     0.134 A 
HETATM    4  C11 UNL     1       1.989   9.758  21.210  1.00  0.00     0.115 A 
HETATM    5  O3  UNL     1       1.289  10.884  21.217  1.00  0.00    -0.272 OA
HETATM    6  C16 UNL     1       1.805  12.039  20.911  1.00  0.00     0.303 A 
HETATM    7  O4  UNL     1       1.095  13.091  20.932  1.00  0.00    -0.259 OA
ENDROOT
BRANCH   1   8
HETATM    8  C7  UNL     1       3.688  13.509  20.275  1.00  0.00     0.047 C 
HETATM    9  N1  UNL     1       3.336  14.012  19.109  1.00  0.00    -0.310 N 
ATOM     10  H1  UNL     1       2.776  13.453  18.465  1.00  0.00     0.186 HD
BRANCH   8  11
HETATM   11  C6  UNL     1       4.499  14.348  21.189  1.00  0.00     0.086 C 
BRANCH  11  12
HETATM   12  C5  UNL     1       3.739  15.104  22.179  1.00  0.00    -0.025 C 
HETATM   13  C4  UNL     1       4.231  15.693  23.224  1.00  0.00    -0.030 C 
BRANCH  13  14
HETATM   14  C3  UNL     1       5.638  15.715  23.620  1.00  0.00     0.026 C 
BRANCH  14  15
HETATM   15  C2  UNL     1       5.844  14.982  24.966  1.00  0.00    -0.001 C 
HETATM   16  C1  UNL     1       6.841  13.873  24.837  1.00  0.00     0.005 C 
ENDBRANCH  14  15
ENDBRANCH  13  14
ENDBRANCH  11  12
ENDBRANCH   8  11
BRANCH   9  17
HETATM   17  N2  UNL     1       3.715  15.283  18.755  1.00  0.00    -0.345 N 
ATOM     18  H22 UNL     1       4.684  15.447  18.479  1.00  0.00     0.176 HD
ATOM     19  H21 UNL     1       3.040  16.048  18.767  1.00  0.00     0.176 HD
ENDBRANCH   9  17
ENDBRANCH   1   8
BRANCH   2  20
HETATM   20  O1  UNL     1       5.182  11.066  20.191  1.00  0.00    -0.357 OA
ATOM     21  H1  UNL     1       5.803  10.503  20.638  1.00  0.00     0.218 HD
ENDBRANCH   2  20
BRANCH   3  22
HETATM   22  O2  UNL     1       4.043   8.613  20.871  1.00  0.00    -0.356 OA
ATOM     23  H2  UNL     1       4.105   8.025  21.615  1.00  0.00     0.218 HD
ENDBRANCH   3  22
BRANCH   4  24
HETATM   24  C12 UNL     1       1.358   8.500  21.554  1.00  0.00     0.042 C 
HETATM   25  C13 UNL     1       1.424   7.994  22.751  1.00  0.00    -0.085 C 
HETATM   26  C14 UNL     1       0.757   6.687  23.096  1.00  0.00     0.043 C 
HETATM   27  C15 UNL     1       2.194   8.625  23.833  1.00  0.00     0.043 C 
ENDBRANCH   4  24
TORSDOF 9
ENDMDL
MODEL 4
REMARK VINA RESULT: -6.362728945      2.576      4.030
REMARK  9 active torsions:
REMARK  status: ('A' for Active; 'I' for Inactive)
REMARK    1  A    between atoms: C2_2  and  C3_3 
REMARK    2  A    between atoms: C3_3  and  C4_4 
REMARK    3  A    between atoms: C5_5  and  C6_6 
REMARK    4  A    between atoms: C6_6  and  C7_7 
REMARK    5  A    between atoms: C7_7  and  C8_13 
REMARK    6  A    between atoms: N1_8  and  N2_10 
REMARK    7  A    between atoms: C9_14  and  O1_15 
REMARK    8  A    between atoms: C10_17  and  O2_18 
REMARK    9  A    between atoms: C11_20  and  C12_21 
ROOT
HETATM    1  C8  UNL     1       2.082  10.278  21.472  1.00  0.00     0.100 A 
HETATM    2  C9  UNL     1       1.223  11.348  21.573  1.00  0.00     0.120 A 
HETATM    3  C10 UNL     1       1.315  12.482  20.766  1.00  0.00     0.134 A 
HETATM    4  C11 UNL     1       2.334  12.502  19.820  1.00  0.00     0.115 A 
HETATM    5  O3  UNL     1       3.157  11.466  19.727  1.00  0.00    -0.272 OA
HETATM    6  C16 UNL     1       3.059  10.415  20.489  1.00  0.00     0.303 A 
HETATM    7  O4  UNL     1       3.870   9.448  20.364  1.00  0.00    -0.259 OA
ENDROOT
BRANCH   1   8
HETATM    8  C7  UNL     1       2.044   9.123  22.336  1.00  0.00     0.047 C 
HETATM    9  N1  UNL     1       1.246   8.160  21.920  1.00  0.00    -0.310 N 
ATOM     10  H1  UNL     1       0.675   8.301  21.087  1.00  0.00     0.186 HD
BRANCH   8  11
HETATM   11  C6  UNL     1       2.863   8.885  23.548  1.00  0.00     0.086 C 
BRANCH  11  12
HETATM   12  C5  UNL     1       4.197   8.345  23.303  1.00  0.00    -0.025 C 
HETATM   13  C4  UNL     1       5.307   9.011  23.367  1.00  0.00    -0.030 C 
BRANCH  13  14
HETATM   14  C3  UNL     1       5.446  10.430  23.691  1.00  0.00     0.026 C 
BRANCH  14  15
HETATM   15  C2  UNL     1       6.507  10.644  24.795  1.00  0.00    -0.001 C 
HETATM   16  C1  UNL     1       6.887  12.086  24.917  1.00  0.00     0.005 C 
ENDBRANCH  14  15
ENDBRANCH  13  14
ENDBRANCH  11  12
ENDBRANCH   8  11
BRANCH   9  17
HETATM   17  N2  UNL     1       1.177   6.969  22.599  1.00  0.00    -0.345 N 
ATOM     18  H22 UNL     1       0.605   6.217  22.214  1.00  0.00     0.176 HD
ATOM     19  H21 UNL     1       1.690   6.839  23.472  1.00  0.00     0.176 HD
ENDBRANCH   9  17
ENDBRANCH   1   8
BRANCH   2  20
HETATM   20  O1  UNL     1       0.222  11.328  22.487  1.00  0.00    -0.357 OA
ATOM     21  H1  UNL     1       0.346  10.880  23.315  1.00  0.00     0.218 HD
ENDBRANCH   2  20
BRANCH   3  22
HETATM   22  O2  UNL     1       0.477  13.571  20.848  1.00  0.00    -0.356 OA
ATOM     23  H2  UNL     1      -0.149  13.718  21.547  1.00  0.00     0.218 HD
ENDBRANCH   3  22
BRANCH   4  24
HETATM   24  C12 UNL     1       2.488  13.643  18.940  1.00  0.00     0.042 C 
HETATM   25  C13 UNL     1       3.426  14.528  19.109  1.00  0.00    -0.085 C 
HETATM   26  C14 UNL     1       3.578  15.706  18.181  1.00  0.00     0.043 C 
HETATM   27  C15 UNL     1       4.364  14.478  20.239  1.00  0.00     0.043 C 
ENDBRANCH   4  24
TORSDOF 9
ENDMDL
MODEL 5
REMARK VINA RESULT: -6.319583228      2.149      3.391
REMARK  9 active torsions:
REMARK  status: ('A' for Active; 'I' for Inactive)
REMARK    1  A    between atoms: C2_2  and  C3_3 
REMARK    2  A    between atoms: C3_3  and  C4_4 
REMARK    3  A    between atoms: C5_5  and  C6_6 
REMARK    4  A    between atoms: C6_6  and  C7_7 
REMARK    5  A    between atoms: C7_7  and  C8_13 
REMARK    6  A    between atoms: N1_8  and  N2_10 
REMARK    7  A    between atoms: C9_14  and  O1_15 
REMARK    8  A    between atoms: C10_17  and  O2_18 
REMARK    9  A    between atoms: C11_20  and  C12_21 
ROOT
HETATM    1  C8  UNL     1       3.742  14.449  19.597  1.00  0.00     0.100 A 
HETATM    2  C9  UNL     1       4.331  15.307  20.499  1.00  0.00     0.120 A 
HETATM    3  C10 UNL     1       4.677  16.622  20.190  1.00  0.00     0.134 A 
HETATM    4  C11 UNL     1       4.396  17.062  18.901  1.00  0.00     0.115 A 
HETATM    5  O3  UNL     1       3.828  16.231  18.039  1.00  0.00    -0.272 OA
HETATM    6  C16 UNL     1       3.512  15.005  18.341  1.00  0.00     0.303 A 
HETATM    7  O4  UNL     1       2.969  14.246  17.482  1.00  0.00    -0.259 OA
ENDROOT
BRANCH   1   8
HETATM    8  C7  UNL     1       3.433  13.068  19.875  1.00  0.00     0.047 C 
HETATM    9  N1  UNL     1       4.471  12.340  20.233  1.00  0.00    -0.310 N 
ATOM     10  H1  UNL     1       5.403  12.753  20.230  1.00  0.00     0.186 HD
BRANCH   8  11
HETATM   11  C6  UNL     1       2.091  12.439  19.893  1.00  0.00     0.086 C 
BRANCH  11  12
HETATM   12  C5  UNL     1       1.337  12.613  21.131  1.00  0.00    -0.025 C 
HETATM   13  C4  UNL     1       0.804  11.664  21.834  1.00  0.00    -0.030 C 
BRANCH  13  14
HETATM   14  C3  UNL     1       0.847  10.235  21.529  1.00  0.00     0.026 C 
BRANCH  14  15
HETATM   15  C2  UNL     1       1.622   9.459  22.619  1.00  0.00    -0.001 C 
HETATM   16  C1  UNL     1       1.621   7.988  22.349  1.00  0.00     0.005 C 
ENDBRANCH  14  15
ENDBRANCH  13  14
ENDBRANCH  11  12
ENDBRANCH   8  11
BRANCH   9  17
HETATM   17  N2  UNL     1       4.308  11.030  20.609  1.00  0.00    -0.345 N 
ATOM     18  H22 UNL     1       4.564  10.756  21.558  1.00  0.00     0.176 HD
ATOM     19  H21 UNL     1       3.937  10.343  19.951  1.00  0.00     0.176 HD
ENDBRANCH   9  17
ENDBRANCH   1   8
BRANCH   2  20
HETATM   20  O1  UNL     1       4.596  14.885  21.760  1.00  0.00    -0.357 OA
ATOM     21  H1  UNL     1       4.690  15.519  22.461  1.00  0.00     0.218 HD
ENDBRANCH   2  20
BRANCH   3  22
HETATM   22  O2  UNL     1       5.274  17.500  21.066  1.00  0.00    -0.356 OA
ATOM     23  H2  UNL     1       5.114  18.437  21.084  1.00  0.00     0.218 HD
ENDBRANCH   3  22
BRANCH   4  24
HETATM   24  C12 UNL     1       4.719  18.419  18.509  1.00  0.00     0.042 C 
HETATM   25  C13 UNL     1       3.816  19.352  18.426  1.00  0.00    -0.085 C 
HETATM   26  C14 UNL     1       4.169  20.761  18.023  1.00  0.00     0.043 C 
HETATM   27  C15 UNL     1       2.389  19.091  18.662  1.00  0.00     0.043 C 
ENDBRANCH   4  24
TORSDOF 9
ENDMDL
