MODEL 1
REMARK VINA RESULT: -8.438220576      0.000      0.000
REMARK  4 active torsions:
REMARK  status: ('A' for Active; 'I' for Inactive)
REMARK    1  A    between atoms: N1_2  and  O1_3 
REMARK       I    between atoms: N1_2  and  C2_5 
REMARK       I    between atoms: C2_5  and  N2_7 
REMARK    2  A    between atoms: C5_10  and  C6_11 
REMARK    3  A    between atoms: N3_12  and  N4_14 
REMARK       I    between atoms: C7_16  and  N6_18 
REMARK    4  A    between atoms: N6_18  and  N7_20 
REMARK       I    between atoms: N7_20  and  C8_22 
ROOT
HETATM    1  C6  UNL     1       7.975   3.411  93.394  1.00  0.00     0.085 C 
HETATM    2  N3  UNL     1       8.062   2.124  93.366  1.00  0.00    -0.313 N 
ATOM      3  H3  UNL     1       8.152   1.582  94.224  1.00  0.00     0.185 HD
ENDROOT
BRANCH   1   4
HETATM    4  C5  UNL     1       7.845   4.226  92.188  1.00  0.00     0.029 C 
HETATM    5  C4  UNL     1       9.146   4.813  91.758  1.00  0.00     0.030 C 
HETATM    6  C3  UNL     1       9.659   5.928  92.605  1.00  0.00     0.128 C 
HETATM    7  N2  UNL     1       8.673   6.661  93.338  1.00  0.00    -0.332 N 
HETATM    8  C2  UNL     1       9.067   7.746  94.155  1.00  0.00     0.343 C 
HETATM    9  C10 UNL     1       7.243   6.374  93.313  1.00  0.00     0.128 C 
HETATM   10  N1  UNL     1      10.378   8.194  94.336  1.00  0.00    -0.215 N 
HETATM   11  O2  UNL     1       8.165   8.395  94.803  1.00  0.00    -0.245 OA
HETATM   12  C1  UNL     1      10.659   9.340  95.215  1.00  0.00     0.190 C 
HETATM   13  C9  UNL     1       6.838   5.354  92.309  1.00  0.00     0.030 C 
BRANCH  10  14
HETATM   14  O1  UNL     1      11.421   7.611  93.730  1.00  0.00    -0.284 OA
ATOM     15  H1  UNL     1      11.275   7.242  92.866  1.00  0.00     0.245 HD
ENDBRANCH  10  14
ENDBRANCH   1   4
BRANCH   2  16
HETATM   16  N4  UNL     1       8.027   1.502  92.121  1.00  0.00    -0.273 N 
HETATM   17  C7  UNL     1       9.043   1.221  91.391  1.00  0.00     0.222 C 
HETATM   18  N5  UNL     1      10.389   1.498  91.727  1.00  0.00    -0.061 NA
HETATM   19  N6  UNL     1       8.799   0.581  90.148  1.00  0.00    -0.269 N 
ATOM     20  H6  UNL     1       9.030  -0.409  90.063  1.00  0.00     0.190 HD
ATOM     21  H4  UNL     1       7.109   1.246  91.756  1.00  0.00     0.189 HD
BRANCH  19  22
HETATM   22  N7  UNL     1       8.261   1.226  89.043  1.00  0.00    -0.252 N 
HETATM   23  C8  UNL     1       6.888   1.177  88.776  1.00  0.00     0.347 C 
HETATM   24  N8  UNL     1       6.351   1.837  87.650  1.00  0.00    -0.038 NA
HETATM   25  O3  UNL     1       6.120   0.547  89.534  1.00  0.00    -0.249 OA
ATOM     26  H7  UNL     1       8.877   1.744  88.416  1.00  0.00     0.191 HD
ENDBRANCH  19  22
ENDBRANCH   2  16
TORSDOF 4
ENDMDL
MODEL 2
REMARK VINA RESULT: -8.146257628      3.355      3.935
REMARK  4 active torsions:
REMARK  status: ('A' for Active; 'I' for Inactive)
REMARK    1  A    between atoms: N1_2  and  O1_3 
REMARK       I    between atoms: N1_2  and  C2_5 
REMARK       I    between atoms: C2_5  and  N2_7 
REMARK    2  A    between atoms: C5_10  and  C6_11 
REMARK    3  A    between atoms: N3_12  and  N4_14 
REMARK       I    between atoms: C7_16  and  N6_18 
REMARK    4  A    between atoms: N6_18  and  N7_20 
REMARK       I    between atoms: N7_20  and  C8_22 
ROOT
HETATM    1  C6  UNL     1       7.399   3.669  93.620  1.00  0.00     0.085 C 
HETATM    2  N3  UNL     1       6.426   2.971  94.102  1.00  0.00    -0.313 N 
ATOM      3  H3  UNL     1       6.545   2.417  94.950  1.00  0.00     0.185 HD
ENDROOT
BRANCH   1   4
HETATM    4  C5  UNL     1       7.272   4.476  92.408  1.00  0.00     0.029 C 
HETATM    5  C4  UNL     1       8.593   4.769  91.783  1.00  0.00     0.030 C 
HETATM    6  C3  UNL     1       9.441   5.762  92.505  1.00  0.00     0.128 C 
HETATM    7  N2  UNL     1       8.740   6.697  93.330  1.00  0.00    -0.332 N 
HETATM    8  C2  UNL     1       9.461   7.685  94.041  1.00  0.00     0.343 C 
HETATM    9  C10 UNL     1       7.293   6.719  93.510  1.00  0.00     0.128 C 
HETATM   10  N1  UNL     1      10.849   7.849  94.024  1.00  0.00    -0.215 N 
HETATM   11  O2  UNL     1       8.813   8.520  94.775  1.00  0.00    -0.245 OA
HETATM   12  C1  UNL     1      11.481   8.922  94.808  1.00  0.00     0.190 C 
HETATM   13  C9  UNL     1       6.548   5.793  92.613  1.00  0.00     0.030 C 
BRANCH  10  14
HETATM   14  O1  UNL     1      11.653   7.051  93.310  1.00  0.00    -0.284 OA
ATOM     15  H1  UNL     1      11.526   7.031  92.368  1.00  0.00     0.245 HD
ENDBRANCH  10  14
ENDBRANCH   1   4
BRANCH   2  16
HETATM   16  N4  UNL     1       5.211   3.000  93.424  1.00  0.00    -0.273 N 
HETATM   17  C7  UNL     1       4.060   2.754  93.931  1.00  0.00     0.222 C 
HETATM   18  N5  UNL     1       3.822   2.405  95.281  1.00  0.00    -0.061 NA
HETATM   19  N6  UNL     1       2.935   2.839  93.071  1.00  0.00    -0.269 N 
ATOM     20  H6  UNL     1       2.309   3.637  93.173  1.00  0.00     0.190 HD
ATOM     21  H4  UNL     1       5.240   3.239  92.432  1.00  0.00     0.189 HD
BRANCH  19  22
HETATM   22  N7  UNL     1       2.639   1.895  92.097  1.00  0.00    -0.252 N 
HETATM   23  C8  UNL     1       1.515   1.067  92.212  1.00  0.00     0.347 C 
HETATM   24  N8  UNL     1       1.222   0.111  91.216  1.00  0.00    -0.038 NA
HETATM   25  O3  UNL     1       0.757   1.167  93.200  1.00  0.00    -0.249 OA
ATOM     26  H7  UNL     1       3.249   1.803  91.285  1.00  0.00     0.191 HD
ENDBRANCH  19  22
ENDBRANCH   2  16
TORSDOF 4
ENDMDL
MODEL 3
REMARK VINA RESULT: -7.866673381      5.370      8.883
REMARK  4 active torsions:
REMARK  status: ('A' for Active; 'I' for Inactive)
REMARK    1  A    between atoms: N1_2  and  O1_3 
REMARK       I    between atoms: N1_2  and  C2_5 
REMARK       I    between atoms: C2_5  and  N2_7 
REMARK    2  A    between atoms: C5_10  and  C6_11 
REMARK    3  A    between atoms: N3_12  and  N4_14 
REMARK       I    between atoms: C7_16  and  N6_18 
REMARK    4  A    between atoms: N6_18  and  N7_20 
REMARK       I    between atoms: N7_20  and  C8_22 
ROOT
HETATM    1  C6  UNL     1       4.839   1.795  94.048  1.00  0.00     0.085 C 
HETATM    2  N3  UNL     1       5.891   2.391  93.596  1.00  0.00    -0.313 N 
ATOM      3  H3  UNL     1       6.724   1.864  93.334  1.00  0.00     0.185 HD
ENDROOT
BRANCH   1   4
HETATM    4  C5  UNL     1       3.625   2.510  94.434  1.00  0.00     0.029 C 
HETATM    5  C4  UNL     1       3.011   1.955  95.674  1.00  0.00     0.030 C 
HETATM    6  C3  UNL     1       2.334   0.635  95.521  1.00  0.00     0.128 C 
HETATM    7  N2  UNL     1       1.862   0.324  94.207  1.00  0.00    -0.332 N 
HETATM    8  C2  UNL     1       1.194  -0.900  93.972  1.00  0.00     0.343 C 
HETATM    9  C10 UNL     1       2.018   1.192  93.046  1.00  0.00     0.128 C 
HETATM   10  N1  UNL     1       0.937  -1.885  94.930  1.00  0.00    -0.215 N 
HETATM   11  O2  UNL     1       0.773  -1.161  92.784  1.00  0.00    -0.245 OA
HETATM   12  C1  UNL     1       0.227  -3.119  94.559  1.00  0.00     0.190 C 
HETATM   13  C9  UNL     1       2.557   2.544  93.357  1.00  0.00     0.030 C 
BRANCH  10  14
HETATM   14  O1  UNL     1       1.321  -1.754  96.207  1.00  0.00    -0.284 OA
ATOM     15  H1  UNL     1       1.521  -0.878  96.517  1.00  0.00     0.245 HD
ENDBRANCH  10  14
ENDBRANCH   1   4
BRANCH   2  16
HETATM   16  N4  UNL     1       5.847   3.777  93.477  1.00  0.00    -0.273 N 
HETATM   17  C7  UNL     1       6.538   4.485  92.662  1.00  0.00     0.222 C 
HETATM   18  N5  UNL     1       7.475   3.975  91.732  1.00  0.00    -0.061 NA
HETATM   19  N6  UNL     1       6.347   5.890  92.693  1.00  0.00    -0.269 N 
ATOM     20  H6  UNL     1       5.832   6.324  91.926  1.00  0.00     0.190 HD
ATOM     21  H4  UNL     1       5.206   4.275  94.095  1.00  0.00     0.189 HD
BRANCH  19  22
HETATM   22  N7  UNL     1       6.822   6.709  93.708  1.00  0.00    -0.252 N 
HETATM   23  C8  UNL     1       8.094   7.290  93.632  1.00  0.00     0.347 C 
HETATM   24  N8  UNL     1       8.567   8.121  94.669  1.00  0.00    -0.038 NA
HETATM   25  O3  UNL     1       8.824   7.079  92.641  1.00  0.00    -0.249 OA
ATOM     26  H7  UNL     1       6.235   6.889  94.524  1.00  0.00     0.191 HD
ENDBRANCH  19  22
ENDBRANCH   2  16
TORSDOF 4
ENDMDL
MODEL 4
REMARK VINA RESULT: -7.693609883      1.793      2.099
REMARK  4 active torsions:
REMARK  status: ('A' for Active; 'I' for Inactive)
REMARK    1  A    between atoms: N1_2  and  O1_3 
REMARK       I    between atoms: N1_2  and  C2_5 
REMARK       I    between atoms: C2_5  and  N2_7 
REMARK    2  A    between atoms: C5_10  and  C6_11 
REMARK    3  A    between atoms: N3_12  and  N4_14 
REMARK       I    between atoms: C7_16  and  N6_18 
REMARK    4  A    between atoms: N6_18  and  N7_20 
REMARK       I    between atoms: N7_20  and  C8_22 
ROOT
HETATM    1  C6  UNL     1       8.469   2.501  93.553  1.00  0.00     0.085 C 
HETATM    2  N3  UNL     1       9.275   1.629  93.048  1.00  0.00    -0.313 N 
ATOM      3  H3  UNL     1      10.160   1.403  93.503  1.00  0.00     0.185 HD
ENDROOT
BRANCH   1   4
HETATM    4  C5  UNL     1       7.192   2.854  92.935  1.00  0.00     0.029 C 
HETATM    5  C4  UNL     1       7.304   4.046  92.047  1.00  0.00     0.030 C 
HETATM    6  C3  UNL     1       7.470   5.354  92.744  1.00  0.00     0.128 C 
HETATM    7  N2  UNL     1       6.964   5.418  94.081  1.00  0.00    -0.332 N 
HETATM    8  C2  UNL     1       7.064   6.624  94.813  1.00  0.00     0.343 C 
HETATM    9  C10 UNL     1       6.331   4.305  94.779  1.00  0.00     0.128 C 
HETATM   10  N1  UNL     1       7.635   7.812  94.350  1.00  0.00    -0.215 N 
HETATM   11  O2  UNL     1       6.599   6.663  96.012  1.00  0.00    -0.245 OA
HETATM   12  C1  UNL     1       7.676   9.004  95.212  1.00  0.00     0.190 C 
HETATM   13  C9  UNL     1       6.074   3.112  93.927  1.00  0.00     0.030 C 
BRANCH  10  14
HETATM   14  O1  UNL     1       8.164   7.919  93.124  1.00  0.00    -0.284 OA
ATOM     15  H1  UNL     1       7.579   8.157  92.414  1.00  0.00     0.245 HD
ENDBRANCH  10  14
ENDBRANCH   1   4
BRANCH   2  16
HETATM   16  N4  UNL     1       8.895   1.008  91.862  1.00  0.00    -0.273 N 
HETATM   17  C7  UNL     1       9.032   1.491  90.682  1.00  0.00     0.222 C 
HETATM   18  N5  UNL     1       9.599   2.751  90.378  1.00  0.00    -0.061 NA
HETATM   19  N6  UNL     1       8.581   0.698  89.595  1.00  0.00    -0.269 N 
ATOM     20  H6  UNL     1       9.280   0.249  89.004  1.00  0.00     0.190 HD
ATOM     21  H4  UNL     1       8.468   0.085  91.938  1.00  0.00     0.189 HD
BRANCH  19  22
HETATM   22  N7  UNL     1       7.242   0.501  89.291  1.00  0.00    -0.252 N 
HETATM   23  C8  UNL     1       6.427   1.568  88.893  1.00  0.00     0.347 C 
HETATM   24  N8  UNL     1       5.066   1.356  88.585  1.00  0.00    -0.038 NA
HETATM   25  O3  UNL     1       6.898   2.722  88.804  1.00  0.00    -0.249 OA
ATOM     26  H7  UNL     1       6.844  -0.437  89.359  1.00  0.00     0.191 HD
ENDBRANCH  19  22
ENDBRANCH   2  16
TORSDOF 4
ENDMDL
MODEL 5
REMARK VINA RESULT: -7.578242327      2.498      3.881
REMARK  4 active torsions:
REMARK  status: ('A' for Active; 'I' for Inactive)
REMARK    1  A    between atoms: N1_2  and  O1_3 
REMARK       I    between atoms: N1_2  and  C2_5 
REMARK       I    between atoms: C2_5  and  N2_7 
REMARK    2  A    between atoms: C5_10  and  C6_11 
REMARK    3  A    between atoms: N3_12  and  N4_14 
REMARK       I    between atoms: C7_16  and  N6_18 
REMARK    4  A    between atoms: N6_18  and  N7_20 
REMARK       I    between atoms: N7_20  and  C8_22 
ROOT
HETATM    1  C6  UNL     1       7.765   3.131  90.020  1.00  0.00     0.085 C 
HETATM    2  N3  UNL     1       7.020   2.739  89.041  1.00  0.00    -0.313 N 
ATOM      3  H3  UNL     1       7.078   3.181  88.124  1.00  0.00     0.185 HD
ENDROOT
BRANCH   1   4
HETATM    4  C5  UNL     1       7.713   2.525  91.349  1.00  0.00     0.029 C 
HETATM    5  C4  UNL     1       6.703   3.178  92.229  1.00  0.00     0.030 C 
HETATM    6  C3  UNL     1       7.066   4.537  92.726  1.00  0.00     0.128 C 
HETATM    7  N2  UNL     1       8.466   4.825  92.792  1.00  0.00    -0.332 N 
HETATM    8  C2  UNL     1       8.902   6.084  93.267  1.00  0.00     0.343 C 
HETATM    9  C10 UNL     1       9.519   3.897  92.398  1.00  0.00     0.128 C 
HETATM   10  N1  UNL     1       8.074   7.126  93.691  1.00  0.00    -0.215 N 
HETATM   11  O2  UNL     1      10.166   6.322  93.323  1.00  0.00    -0.245 OA
HETATM   12  C1  UNL     1       8.653   8.391  94.167  1.00  0.00     0.190 C 
HETATM   13  C9  UNL     1       9.042   2.524  92.080  1.00  0.00     0.030 C 
BRANCH  10  14
HETATM   14  O1  UNL     1       6.738   7.023  93.684  1.00  0.00    -0.284 OA
ATOM     15  H1  UNL     1       6.330   6.567  94.411  1.00  0.00     0.245 HD
ENDBRANCH  10  14
ENDBRANCH   1   4
BRANCH   2  16
HETATM   16  N4  UNL     1       6.134   1.693  89.282  1.00  0.00    -0.273 N 
HETATM   17  C7  UNL     1       5.693   0.864  88.409  1.00  0.00     0.222 C 
HETATM   18  N5  UNL     1       6.032   0.869  87.036  1.00  0.00    -0.061 NA
HETATM   19  N6  UNL     1       4.795  -0.140  88.856  1.00  0.00    -0.269 N 
ATOM     20  H6  UNL     1       5.140  -1.097  88.930  1.00  0.00     0.190 HD
ATOM     21  H4  UNL     1       5.806   1.574  90.241  1.00  0.00     0.189 HD
BRANCH  19  22
HETATM   22  N7  UNL     1       3.473   0.108  89.197  1.00  0.00    -0.252 N 
HETATM   23  C8  UNL     1       2.461   0.083  88.229  1.00  0.00     0.347 C 
HETATM   24  N8  UNL     1       1.119   0.336  88.587  1.00  0.00    -0.038 NA
HETATM   25  O3  UNL     1       2.735  -0.166  87.036  1.00  0.00    -0.249 OA
ATOM     26  H7  UNL     1       3.234   0.313  90.168  1.00  0.00     0.191 HD
ENDBRANCH  19  22
ENDBRANCH   2  16
TORSDOF 4
ENDMDL
