MODEL 1
REMARK VINA RESULT: -8.073656364      0.000      0.000
REMARK  2 active torsions:
REMARK  status: ('A' for Active; 'I' for Inactive)
REMARK    1  A    between atoms: C14_17  and  O1_18 
REMARK    2  A    between atoms: C16_21  and  O2_22 
ROOT
HETATM    1  C1  UNL     1      38.562  10.542  37.198  1.00  0.00     0.044 C 
HETATM    2  C2  UNL     1      38.811   9.133  36.863  1.00  0.00    -0.076 C 
HETATM    3  C3  UNL     1      38.397   8.677  35.681  1.00  0.00    -0.043 C 
HETATM    4  C4  UNL     1      37.719   9.586  34.772  1.00  0.00     0.038 C 
HETATM    5  C5  UNL     1      36.743   8.746  33.943  1.00  0.00     0.011 C 
HETATM    6  C6  UNL     1      37.599   7.797  33.149  1.00  0.00     0.011 C 
HETATM    7  C7  UNL     1      36.726   7.007  32.212  1.00  0.00    -0.038 C 
HETATM    8  C8  UNL     1      37.018   7.476  30.807  1.00  0.00     0.015 C 
HETATM    9  C9  UNL     1      35.261   7.159  32.506  1.00  0.00     0.015 C 
HETATM   10  C10 UNL     1      37.110   5.576  32.441  1.00  0.00     0.062 C 
HETATM   11  C11 UNL     1      37.525   5.591  33.870  1.00  0.00    -0.007 C 
HETATM   12  N1  UNL     1      37.196   4.710  34.713  1.00  0.00    -0.405 N 
ATOM     13  H11 UNL     1      37.481   4.721  35.692  1.00  0.00     0.155 HD
ATOM     14  H12 UNL     1      36.627   3.868  34.625  1.00  0.00     0.155 HD
HETATM   15  C12 UNL     1      38.357   6.821  33.997  1.00  0.00     0.034 C 
HETATM   16  C13 UNL     1      39.646   6.495  33.220  1.00  0.00     0.025 C 
HETATM   17  C14 UNL     1      38.660   7.254  35.367  1.00  0.00     0.097 C 
HETATM   18  C15 UNL     1      40.134   7.027  35.746  1.00  0.00     0.075 C 
HETATM   19  C16 UNL     1      40.272   7.133  37.242  1.00  0.00     0.125 C 
HETATM   20  C17 UNL     1      39.513   8.262  37.851  1.00  0.00     0.065 C 
ENDROOT
BRANCH  17  21
HETATM   21  O1  UNL     1      37.938   6.469  36.272  1.00  0.00    -0.384 OA
ATOM     22  H1  UNL     1      38.440   5.681  36.446  1.00  0.00     0.211 HD
ENDBRANCH  17  21
BRANCH  19  23
HETATM   23  O2  UNL     1      39.959   5.934  37.879  1.00  0.00    -0.395 OA
ATOM     24  H2  UNL     1      40.072   5.992  38.821  1.00  0.00     0.210 HD
ENDBRANCH  19  23
TORSDOF 2
ENDMDL
MODEL 2
REMARK VINA RESULT: -7.340946526      1.178      1.385
REMARK  2 active torsions:
REMARK  status: ('A' for Active; 'I' for Inactive)
REMARK    1  A    between atoms: C14_17  and  O1_18 
REMARK    2  A    between atoms: C16_21  and  O2_22 
ROOT
HETATM    1  C1  UNL     1      37.755   9.799  36.412  1.00  0.00     0.044 C 
HETATM    2  C2  UNL     1      38.143   8.478  35.899  1.00  0.00    -0.076 C 
HETATM    3  C3  UNL     1      37.741   8.125  34.678  1.00  0.00    -0.043 C 
HETATM    4  C4  UNL     1      36.937   9.057  33.904  1.00  0.00     0.038 C 
HETATM    5  C5  UNL     1      36.030   8.221  32.997  1.00  0.00     0.011 C 
HETATM    6  C6  UNL     1      36.956   7.476  32.073  1.00  0.00     0.011 C 
HETATM    7  C7  UNL     1      36.141   6.713  31.063  1.00  0.00    -0.038 C 
HETATM    8  C8  UNL     1      36.333   7.379  29.722  1.00  0.00     0.015 C 
HETATM    9  C9  UNL     1      34.679   6.665  31.404  1.00  0.00     0.015 C 
HETATM   10  C10 UNL     1      36.684   5.316  31.105  1.00  0.00     0.062 C 
HETATM   11  C11 UNL     1      37.144   5.204  32.515  1.00  0.00    -0.007 C 
HETATM   12  N1  UNL     1      36.941   4.196  33.249  1.00  0.00    -0.405 N 
ATOM     13  H11 UNL     1      37.256   4.119  34.215  1.00  0.00     0.155 HD
ATOM     14  H12 UNL     1      36.463   3.313  33.069  1.00  0.00     0.155 HD
HETATM   15  C12 UNL     1      37.843   6.495  32.777  1.00  0.00     0.034 C 
HETATM   16  C13 UNL     1      39.132   6.410  31.939  1.00  0.00     0.025 C 
HETATM   17  C14 UNL     1      38.144   6.789  34.184  1.00  0.00     0.097 C 
HETATM   18  C15 UNL     1      39.646   6.683  34.502  1.00  0.00     0.075 C 
HETATM   19  C16 UNL     1      39.823   6.621  35.996  1.00  0.00     0.125 C 
HETATM   20  C17 UNL     1      38.968   7.577  36.756  1.00  0.00     0.065 C 
ENDROOT
BRANCH  17  21
HETATM   21  O1  UNL     1      37.542   5.824  34.999  1.00  0.00    -0.384 OA
ATOM     22  H1  UNL     1      38.194   5.163  35.205  1.00  0.00     0.211 HD
ENDBRANCH  17  21
BRANCH  19  23
HETATM   23  O2  UNL     1      39.663   5.326  36.485  1.00  0.00    -0.395 OA
ATOM     24  H2  UNL     1      38.748   5.077  36.537  1.00  0.00     0.210 HD
ENDBRANCH  19  23
TORSDOF 2
ENDMDL
MODEL 3
REMARK VINA RESULT: -7.307961237      1.633      2.250
REMARK  2 active torsions:
REMARK  status: ('A' for Active; 'I' for Inactive)
REMARK    1  A    between atoms: C14_17  and  O1_18 
REMARK    2  A    between atoms: C16_21  and  O2_22 
ROOT
HETATM    1  C1  UNL     1      40.199   7.273  37.625  1.00  0.00     0.044 C 
HETATM    2  C2  UNL     1      39.937   6.322  36.537  1.00  0.00    -0.076 C 
HETATM    3  C3  UNL     1      39.162   6.711  35.524  1.00  0.00    -0.043 C 
HETATM    4  C4  UNL     1      38.608   8.055  35.536  1.00  0.00     0.038 C 
HETATM    5  C5  UNL     1      37.271   7.996  34.791  1.00  0.00     0.011 C 
HETATM    6  C6  UNL     1      37.612   7.612  33.377  1.00  0.00     0.011 C 
HETATM    7  C7  UNL     1      36.362   7.644  32.538  1.00  0.00    -0.038 C 
HETATM    8  C8  UNL     1      36.473   8.818  31.595  1.00  0.00     0.015 C 
HETATM    9  C9  UNL     1      35.109   7.764  33.358  1.00  0.00     0.015 C 
HETATM   10  C10 UNL     1      36.340   6.324  31.828  1.00  0.00     0.062 C 
HETATM   11  C11 UNL     1      37.037   5.437  32.798  1.00  0.00    -0.007 C 
HETATM   12  N1  UNL     1      36.649   4.275  33.102  1.00  0.00    -0.405 N 
ATOM     13  H11 UNL     1      37.127   3.667  33.767  1.00  0.00     0.155 HD
ATOM     14  H12 UNL     1      35.849   3.725  32.789  1.00  0.00     0.155 HD
HETATM   15  C12 UNL     1      38.207   6.241  33.255  1.00  0.00     0.034 C 
HETATM   16  C13 UNL     1      39.140   6.291  32.031  1.00  0.00     0.025 C 
HETATM   17  C14 UNL     1      38.912   5.735  34.439  1.00  0.00     0.097 C 
HETATM   18  C15 UNL     1      40.296   5.154  34.099  1.00  0.00     0.075 C 
HETATM   19  C16 UNL     1      40.777   4.333  35.266  1.00  0.00     0.125 C 
HETATM   20  C17 UNL     1      40.541   4.959  36.598  1.00  0.00     0.065 C 
ENDROOT
BRANCH  17  21
HETATM   21  O1  UNL     1      38.200   4.658  34.978  1.00  0.00    -0.384 OA
ATOM     22  H1  UNL     1      38.743   4.248  35.642  1.00  0.00     0.211 HD
ENDBRANCH  17  21
BRANCH  19  23
HETATM   23  O2  UNL     1      40.264   3.037  35.237  1.00  0.00    -0.395 OA
ATOM     24  H2  UNL     1      40.915   2.405  34.957  1.00  0.00     0.210 HD
ENDBRANCH  19  23
TORSDOF 2
ENDMDL
MODEL 4
REMARK VINA RESULT: -7.226812526      3.348      4.654
REMARK  2 active torsions:
REMARK  status: ('A' for Active; 'I' for Inactive)
REMARK    1  A    between atoms: C14_17  and  O1_18 
REMARK    2  A    between atoms: C16_21  and  O2_22 
ROOT
HETATM    1  C1  UNL     1      40.631   4.312  34.770  1.00  0.00     0.044 C 
HETATM    2  C2  UNL     1      39.503   3.838  33.959  1.00  0.00    -0.076 C 
HETATM    3  C3  UNL     1      38.926   4.688  33.110  1.00  0.00    -0.043 C 
HETATM    4  C4  UNL     1      39.433   6.048  33.021  1.00  0.00     0.038 C 
HETATM    5  C5  UNL     1      38.251   6.944  32.640  1.00  0.00     0.011 C 
HETATM    6  C6  UNL     1      37.818   6.484  31.274  1.00  0.00     0.011 C 
HETATM    7  C7  UNL     1      36.729   7.392  30.768  1.00  0.00    -0.038 C 
HETATM    8  C8  UNL     1      37.303   8.211  29.637  1.00  0.00     0.015 C 
HETATM    9  C9  UNL     1      36.182   8.302  31.830  1.00  0.00     0.015 C 
HETATM   10  C10 UNL     1      35.634   6.469  30.323  1.00  0.00     0.062 C 
HETATM   11  C11 UNL     1      35.816   5.308  31.237  1.00  0.00    -0.007 C 
HETATM   12  N1  UNL     1      34.869   4.711  31.821  1.00  0.00    -0.405 N 
ATOM     13  H11 UNL     1      34.995   3.916  32.448  1.00  0.00     0.155 HD
ATOM     14  H12 UNL     1      33.861   4.866  31.810  1.00  0.00     0.155 HD
HETATM   15  C12 UNL     1      37.289   5.082  31.253  1.00  0.00     0.034 C 
HETATM   16  C13 UNL     1      37.609   4.529  29.851  1.00  0.00     0.025 C 
HETATM   17  C14 UNL     1      37.791   4.186  32.303  1.00  0.00     0.097 C 
HETATM   18  C15 UNL     1      38.265   2.832  31.747  1.00  0.00     0.075 C 
HETATM   19  C16 UNL     1      38.399   1.859  32.889  1.00  0.00     0.125 C 
HETATM   20  C17 UNL     1      39.039   2.427  34.109  1.00  0.00     0.065 C 
ENDROOT
BRANCH  17  21
HETATM   21  O1  UNL     1      36.746   3.863  33.175  1.00  0.00    -0.384 OA
ATOM     22  H1  UNL     1      36.247   3.153  32.789  1.00  0.00     0.211 HD
ENDBRANCH  17  21
BRANCH  19  23
HETATM   23  O2  UNL     1      37.181   1.262  33.208  1.00  0.00    -0.395 OA
ATOM     24  H2  UNL     1      37.182   0.901  34.087  1.00  0.00     0.210 HD
ENDBRANCH  19  23
TORSDOF 2
ENDMDL
MODEL 5
REMARK VINA RESULT: -7.059750222      2.697      4.698
REMARK  2 active torsions:
REMARK  status: ('A' for Active; 'I' for Inactive)
REMARK    1  A    between atoms: C14_17  and  O1_18 
REMARK    2  A    between atoms: C16_21  and  O2_22 
ROOT
HETATM    1  C1  UNL     1      38.189   7.639  35.871  1.00  0.00     0.044 C 
HETATM    2  C2  UNL     1      37.573   7.637  34.537  1.00  0.00    -0.076 C 
HETATM    3  C3  UNL     1      37.489   6.482  33.876  1.00  0.00    -0.043 C 
HETATM    4  C4  UNL     1      38.009   5.275  34.497  1.00  0.00     0.038 C 
HETATM    5  C5  UNL     1      38.483   4.358  33.366  1.00  0.00     0.011 C 
HETATM    6  C6  UNL     1      37.249   4.017  32.576  1.00  0.00     0.011 C 
HETATM    7  C7  UNL     1      37.604   3.019  31.506  1.00  0.00    -0.038 C 
HETATM    8  C8  UNL     1      36.979   1.698  31.886  1.00  0.00     0.015 C 
HETATM    9  C9  UNL     1      39.086   2.850  31.330  1.00  0.00     0.015 C 
HETATM   10  C10 UNL     1      37.037   3.591  30.241  1.00  0.00     0.062 C 
HETATM   11  C11 UNL     1      37.110   5.054  30.502  1.00  0.00    -0.007 C 
HETATM   12  N1  UNL     1      37.508   5.905  29.659  1.00  0.00    -0.405 N 
ATOM     13  H11 UNL     1      37.558   6.908  29.838  1.00  0.00     0.155 HD
ATOM     14  H12 UNL     1      37.841   5.804  28.700  1.00  0.00     0.155 HD
HETATM   15  C12 UNL     1      36.623   5.202  31.903  1.00  0.00     0.034 C 
HETATM   16  C13 UNL     1      35.116   4.895  31.820  1.00  0.00     0.025 C 
HETATM   17  C14 UNL     1      36.864   6.506  32.534  1.00  0.00     0.097 C 
HETATM   18  C15 UNL     1      35.573   7.324  32.710  1.00  0.00     0.075 C 
HETATM   19  C16 UNL     1      35.942   8.756  32.998  1.00  0.00     0.125 C 
HETATM   20  C17 UNL     1      37.063   8.919  33.967  1.00  0.00     0.065 C 
ENDROOT
BRANCH  17  21
HETATM   21  O1  UNL     1      37.665   7.286  31.694  1.00  0.00    -0.384 OA
ATOM     22  H1  UNL     1      37.301   7.246  30.817  1.00  0.00     0.211 HD
ENDBRANCH  17  21
BRANCH  19  23
HETATM   23  O2  UNL     1      36.197   9.472  31.831  1.00  0.00    -0.395 OA
ATOM     24  H2  UNL     1      36.862  10.137  31.961  1.00  0.00     0.210 HD
ENDBRANCH  19  23
TORSDOF 2
ENDMDL
