MODEL 1
REMARK VINA RESULT: -8.693844403      0.000      0.000
REMARK  8 active torsions:
REMARK  status: ('A' for Active; 'I' for Inactive)
REMARK    1  A    between atoms: N6_16  and  C6_17 
REMARK    2  A    between atoms: C9_24  and  C10_25 
REMARK    3  A    between atoms: C10_25  and  N8_26 
REMARK    4  A    between atoms: N8_26  and  C11_28 
REMARK    5  A    between atoms: C11_28  and  C12_29 
REMARK    6  A    between atoms: C12_29  and  C13_30 
REMARK    7  A    between atoms: C13_30  and  C14_31 
REMARK    8  A    between atoms: C14_31  and  N9_32 
ROOT
HETATM    1  C6  UNL     1      10.929   7.169  13.151  1.00  0.00     0.257 C 
HETATM    2  C7  UNL     1       9.543   7.584  13.421  1.00  0.00     0.289 C 
HETATM    3  N7  UNL     1       9.314   8.913  13.875  1.00  0.00    -0.037 N 
ATOM      4  H71 UNL     1       8.756   8.906  14.728  1.00  0.00     0.280 HD
ATOM      5  H72 UNL     1       8.670   9.397  13.249  1.00  0.00     0.280 HD
HETATM    6  C8  UNL     1      10.511   9.691  14.063  1.00  0.00     0.401 C 
HETATM    7  F1  UNL     1      10.825  10.122  12.731  1.00  0.00    -0.216 F 
HETATM    8  C9  UNL     1      11.686   8.905  14.481  1.00  0.00     0.223 C 
HETATM    9  O1  UNL     1      11.937   8.065  13.340  1.00  0.00    -0.349 OA
ENDROOT
BRANCH   1  10
HETATM   10  N6  UNL     1      11.058   6.692  11.768  1.00  0.00    -0.298 N 
HETATM   11  C3  UNL     1      10.823   5.409  11.381  1.00  0.00     0.144 A 
HETATM   12  N4  UNL     1      10.451   4.292  11.999  1.00  0.00    -0.314 N 
HETATM   13  C4  UNL     1      11.048   5.341  10.003  1.00  0.00     0.122 A 
HETATM   14  C2  UNL     1      10.280   3.110  11.390  1.00  0.00     0.195 A 
ATOM     15  H4  UNL     1      10.286   4.338  13.004  1.00  0.00     0.170 HD
HETATM   16  N2  UNL     1      10.495   3.037  10.066  1.00  0.00    -0.315 N 
HETATM   17  N3  UNL     1       9.877   1.946  12.138  1.00  0.00    -0.063 NA
HETATM   18  C1  UNL     1      10.873   4.123   9.371  1.00  0.00     0.132 A 
ATOM     19  H2  UNL     1      10.371   2.147   9.582  1.00  0.00     0.170 HD
HETATM   20  N1  UNL     1      11.086   4.097   8.106  1.00  0.00    -0.383 N 
ATOM     21  H12 UNL     1      10.957   3.199   7.640  1.00  0.00     0.157 HD
ATOM     22  H11 UNL     1      11.373   4.922   7.578  1.00  0.00     0.157 HD
HETATM   23  N5  UNL     1      11.404   6.571   9.627  1.00  0.00    -0.346 N 
HETATM   24  C5  UNL     1      11.414   7.400  10.690  1.00  0.00     0.188 A 
ATOM     25  H5  UNL     1      11.636   6.844   8.672  1.00  0.00     0.167 HD
ENDBRANCH   1  10
BRANCH   8  26
HETATM   26  C10 UNL     1      11.671   8.096  15.707  1.00  0.00     0.092 C 
BRANCH  26  27
HETATM   27  N8  UNL     1      12.853   7.712  16.356  1.00  0.00    -0.400 N 
ATOM     28  H8  UNL     1      13.728   8.211  16.195  1.00  0.00     0.158 HD
BRANCH  27  29
HETATM   29  C11 UNL     1      12.794   6.627  17.228  1.00  0.00     0.119 C 
BRANCH  29  30
HETATM   30  C12 UNL     1      13.183   5.303  16.562  1.00  0.00     0.021 C 
BRANCH  30  31
HETATM   31  C13 UNL     1      13.873   4.401  17.563  1.00  0.00     0.029 C 
BRANCH  31  32
HETATM   32  C14 UNL     1      14.717   3.340  16.902  1.00  0.00     0.229 C 
BRANCH  32  33
HETATM   33  N9  UNL     1      14.919   2.211  17.793  1.00  0.00    -0.079 N 
ATOM     34  H93 UNL     1      15.357   1.424  17.313  1.00  0.00     0.274 HD
ATOM     35  H92 UNL     1      15.650   2.397  18.480  1.00  0.00     0.274 HD
ATOM     36  H91 UNL     1      14.043   1.940  18.240  1.00  0.00     0.274 HD
ENDBRANCH  32  33
ENDBRANCH  31  32
ENDBRANCH  30  31
ENDBRANCH  29  30
ENDBRANCH  27  29
ENDBRANCH  26  27
ENDBRANCH   8  26
TORSDOF 8
ENDMDL
MODEL 2
REMARK VINA RESULT: -7.631774572      1.245      2.419
REMARK  8 active torsions:
REMARK  status: ('A' for Active; 'I' for Inactive)
REMARK    1  A    between atoms: N6_16  and  C6_17 
REMARK    2  A    between atoms: C9_24  and  C10_25 
REMARK    3  A    between atoms: C10_25  and  N8_26 
REMARK    4  A    between atoms: N8_26  and  C11_28 
REMARK    5  A    between atoms: C11_28  and  C12_29 
REMARK    6  A    between atoms: C12_29  and  C13_30 
REMARK    7  A    between atoms: C13_30  and  C14_31 
REMARK    8  A    between atoms: C14_31  and  N9_32 
ROOT
HETATM    1  C6  UNL     1      10.773   7.438  13.554  1.00  0.00     0.257 C 
HETATM    2  C7  UNL     1       9.661   8.320  13.165  1.00  0.00     0.289 C 
HETATM    3  N7  UNL     1       9.972   9.617  12.673  1.00  0.00    -0.037 N 
ATOM      4  H71 UNL     1       9.454  10.328  13.190  1.00  0.00     0.280 HD
ATOM      5  H72 UNL     1       9.571   9.751  11.744  1.00  0.00     0.280 HD
HETATM    6  C8  UNL     1      11.378   9.928  12.662  1.00  0.00     0.401 C 
HETATM    7  F1  UNL     1      11.838   9.283  11.465  1.00  0.00    -0.216 F 
HETATM    8  C9  UNL     1      12.148   9.288  13.743  1.00  0.00     0.223 C 
HETATM    9  O1  UNL     1      12.051   7.888  13.426  1.00  0.00    -0.349 OA
ENDROOT
BRANCH   1  10
HETATM   10  N6  UNL     1      10.705   6.175  12.806  1.00  0.00    -0.298 N 
HETATM   11  C3  UNL     1      10.922   6.071  11.467  1.00  0.00     0.144 A 
HETATM   12  N4  UNL     1      11.227   6.923  10.494  1.00  0.00    -0.314 N 
HETATM   13  C4  UNL     1      10.770   4.725  11.123  1.00  0.00     0.122 A 
HETATM   14  C2  UNL     1      11.395   6.578   9.209  1.00  0.00     0.195 A 
ATOM     15  H4  UNL     1      11.339   7.906  10.741  1.00  0.00     0.170 HD
HETATM   16  N2  UNL     1      11.250   5.286   8.871  1.00  0.00    -0.315 N 
HETATM   17  N3  UNL     1      11.723   7.570   8.215  1.00  0.00    -0.063 NA
HETATM   18  C1  UNL     1      10.943   4.365   9.798  1.00  0.00     0.132 A 
ATOM     19  H2  UNL     1      11.373   5.002   7.899  1.00  0.00     0.170 HD
HETATM   20  N1  UNL     1      10.797   3.121   9.519  1.00  0.00    -0.383 N 
ATOM     21  H12 UNL     1      10.924   2.855   8.542  1.00  0.00     0.157 HD
ATOM     22  H11 UNL     1      10.563   2.421  10.223  1.00  0.00     0.157 HD
HETATM   23  N5  UNL     1      10.471   4.087  12.256  1.00  0.00    -0.346 N 
HETATM   24  C5  UNL     1      10.428   4.956  13.285  1.00  0.00     0.188 A 
ATOM     25  H5  UNL     1      10.299   3.084  12.333  1.00  0.00     0.167 HD
ENDBRANCH   1  10
BRANCH   8  26
HETATM   26  C10 UNL     1      11.815   9.508  15.156  1.00  0.00     0.092 C 
BRANCH  26  27
HETATM   27  N8  UNL     1      12.693   9.153  16.189  1.00  0.00    -0.400 N 
ATOM     28  H8  UNL     1      13.531   9.702  16.380  1.00  0.00     0.158 HD
BRANCH  27  29
HETATM   29  C11 UNL     1      12.386   8.024  16.946  1.00  0.00     0.119 C 
BRANCH  29  30
HETATM   30  C12 UNL     1      13.118   6.765  16.467  1.00  0.00     0.021 C 
BRANCH  30  31
HETATM   31  C13 UNL     1      13.066   5.696  17.539  1.00  0.00     0.029 C 
BRANCH  31  32
HETATM   32  C14 UNL     1      13.575   4.362  17.051  1.00  0.00     0.229 C 
BRANCH  32  33
HETATM   33  N9  UNL     1      14.431   3.741  18.046  1.00  0.00    -0.079 N 
ATOM     34  H93 UNL     1      15.182   3.202  17.614  1.00  0.00     0.274 HD
ATOM     35  H92 UNL     1      15.000   4.430  18.539  1.00  0.00     0.274 HD
ATOM     36  H91 UNL     1      13.883   3.173  18.693  1.00  0.00     0.274 HD
ENDBRANCH  32  33
ENDBRANCH  31  32
ENDBRANCH  30  31
ENDBRANCH  29  30
ENDBRANCH  27  29
ENDBRANCH  26  27
ENDBRANCH   8  26
TORSDOF 8
ENDMDL
MODEL 3
REMARK VINA RESULT: -7.563778792      3.092      7.346
REMARK  8 active torsions:
REMARK  status: ('A' for Active; 'I' for Inactive)
REMARK    1  A    between atoms: N6_16  and  C6_17 
REMARK    2  A    between atoms: C9_24  and  C10_25 
REMARK    3  A    between atoms: C10_25  and  N8_26 
REMARK    4  A    between atoms: N8_26  and  C11_28 
REMARK    5  A    between atoms: C11_28  and  C12_29 
REMARK    6  A    between atoms: C12_29  and  C13_30 
REMARK    7  A    between atoms: C13_30  and  C14_31 
REMARK    8  A    between atoms: C14_31  and  N9_32 
ROOT
HETATM    1  C6  UNL     1       9.620   6.298  11.981  1.00  0.00     0.257 C 
HETATM    2  C7  UNL     1       9.077   4.938  12.126  1.00  0.00     0.289 C 
HETATM    3  N7  UNL     1       9.988   3.846  12.121  1.00  0.00    -0.037 N 
ATOM      4  H71 UNL     1       9.704   3.149  11.431  1.00  0.00     0.280 HD
ATOM      5  H72 UNL     1       9.889   3.296  12.974  1.00  0.00     0.280 HD
HETATM    6  C8  UNL     1      11.364   4.220  11.920  1.00  0.00     0.401 C 
HETATM    7  F1  UNL     1      11.772   4.649  13.228  1.00  0.00    -0.216 F 
HETATM    8  C9  UNL     1      11.551   5.408  11.070  1.00  0.00     0.223 C 
HETATM    9  O1  UNL     1      10.965   6.464  11.853  1.00  0.00    -0.349 OA
ENDROOT
BRANCH   1  10
HETATM   10  N6  UNL     1       9.210   7.133  13.119  1.00  0.00    -0.298 N 
HETATM   11  C3  UNL     1      10.073   7.868  13.872  1.00  0.00     0.144 A 
HETATM   12  N4  UNL     1      11.385   8.076  13.868  1.00  0.00    -0.314 N 
HETATM   13  C4  UNL     1       9.318   8.521  14.852  1.00  0.00     0.122 A 
HETATM   14  C2  UNL     1      12.031   8.867  14.738  1.00  0.00     0.195 A 
ATOM     15  H4  UNL     1      11.939   7.602  13.155  1.00  0.00     0.170 HD
HETATM   16  N2  UNL     1      11.312   9.496  15.682  1.00  0.00    -0.315 N 
HETATM   17  N3  UNL     1      13.461   9.034  14.663  1.00  0.00    -0.063 NA
HETATM   18  C1  UNL     1       9.981   9.337  15.752  1.00  0.00     0.132 A 
ATOM     19  H2  UNL     1      11.783  10.102  16.355  1.00  0.00     0.170 HD
HETATM   20  N1  UNL     1       9.257   9.921  16.636  1.00  0.00    -0.383 N 
ATOM     21  H12 UNL     1       9.745  10.523  17.299  1.00  0.00     0.157 HD
ATOM     22  H11 UNL     1       8.245   9.800  16.688  1.00  0.00     0.157 HD
HETATM   23  N5  UNL     1       8.052   8.153  14.647  1.00  0.00    -0.346 N 
HETATM   24  C5  UNL     1       7.974   7.311  13.597  1.00  0.00     0.188 A 
ATOM     25  H5  UNL     1       7.256   8.466  15.204  1.00  0.00     0.167 HD
ENDBRANCH   1  10
BRANCH   8  26
HETATM   26  C10 UNL     1      11.036   5.457   9.695  1.00  0.00     0.092 C 
BRANCH  26  27
HETATM   27  N8  UNL     1      11.317   6.527   8.835  1.00  0.00    -0.400 N 
ATOM     28  H8  UNL     1      11.026   7.477   9.064  1.00  0.00     0.158 HD
BRANCH  27  29
HETATM   29  C11 UNL     1      12.009   6.252   7.657  1.00  0.00     0.119 C 
BRANCH  29  30
HETATM   30  C12 UNL     1      12.952   5.050   7.785  1.00  0.00     0.021 C 
BRANCH  30  31
HETATM   31  C13 UNL     1      12.690   4.063   6.667  1.00  0.00     0.029 C 
BRANCH  31  32
HETATM   32  C14 UNL     1      11.258   4.093   6.192  1.00  0.00     0.229 C 
BRANCH  32  33
HETATM   33  N9  UNL     1      11.193   4.329   4.761  1.00  0.00    -0.079 N 
ATOM     34  H93 UNL     1      11.561   5.248   4.513  1.00  0.00     0.274 HD
ATOM     35  H92 UNL     1      11.863   3.753   4.252  1.00  0.00     0.274 HD
ATOM     36  H91 UNL     1      10.243   4.197   4.414  1.00  0.00     0.274 HD
ENDBRANCH  32  33
ENDBRANCH  31  32
ENDBRANCH  30  31
ENDBRANCH  29  30
ENDBRANCH  27  29
ENDBRANCH  26  27
ENDBRANCH   8  26
TORSDOF 8
ENDMDL
MODEL 4
REMARK VINA RESULT: -7.493954144      2.383      3.017
REMARK  8 active torsions:
REMARK  status: ('A' for Active; 'I' for Inactive)
REMARK    1  A    between atoms: N6_16  and  C6_17 
REMARK    2  A    between atoms: C9_24  and  C10_25 
REMARK    3  A    between atoms: C10_25  and  N8_26 
REMARK    4  A    between atoms: N8_26  and  C11_28 
REMARK    5  A    between atoms: C11_28  and  C12_29 
REMARK    6  A    between atoms: C12_29  and  C13_30 
REMARK    7  A    between atoms: C13_30  and  C14_31 
REMARK    8  A    between atoms: C14_31  and  N9_32 
ROOT
HETATM    1  C6  UNL     1      10.493   6.991  13.287  1.00  0.00     0.257 C 
HETATM    2  C7  UNL     1       9.044   6.980  13.547  1.00  0.00     0.289 C 
HETATM    3  N7  UNL     1       8.421   8.197  13.937  1.00  0.00    -0.037 N 
ATOM      4  H71 UNL     1       7.885   8.063  14.795  1.00  0.00     0.280 HD
ATOM      5  H72 UNL     1       7.665   8.432  13.294  1.00  0.00     0.280 HD
HETATM    6  C8  UNL     1       9.325   9.309  14.078  1.00  0.00     0.401 C 
HETATM    7  F1  UNL     1       9.503   9.749  12.723  1.00  0.00    -0.216 F 
HETATM    8  C9  UNL     1      10.679   8.937  14.524  1.00  0.00     0.223 C 
HETATM    9  O1  UNL     1      11.181   8.158  13.423  1.00  0.00    -0.349 OA
ENDROOT
BRANCH   1  10
HETATM   10  N6  UNL     1      10.769   6.508  11.927  1.00  0.00    -0.298 N 
HETATM   11  C3  UNL     1      10.601   5.217  11.530  1.00  0.00     0.144 A 
HETATM   12  N4  UNL     1      10.194   4.097  12.117  1.00  0.00    -0.314 N 
HETATM   13  C4  UNL     1      10.965   5.145  10.182  1.00  0.00     0.122 A 
HETATM   14  C2  UNL     1      10.109   2.907  11.504  1.00  0.00     0.195 A 
ATOM     15  H4  UNL     1       9.927   4.145  13.100  1.00  0.00     0.170 HD
HETATM   16  N2  UNL     1      10.458   2.830  10.209  1.00  0.00    -0.315 N 
HETATM   17  N3  UNL     1       9.657   1.739  12.218  1.00  0.00    -0.063 NA
HETATM   18  C1  UNL     1      10.880   3.919   9.546  1.00  0.00     0.132 A 
ATOM     19  H2  UNL     1      10.402   1.935   9.724  1.00  0.00     0.170 HD
HETATM   20  N1  UNL     1      11.220   3.890   8.309  1.00  0.00    -0.383 N 
ATOM     21  H12 UNL     1      11.157   2.986   7.840  1.00  0.00     0.157 HD
ATOM     22  H11 UNL     1      11.540   4.718   7.806  1.00  0.00     0.157 HD
HETATM   23  N5  UNL     1      11.331   6.380   9.833  1.00  0.00    -0.346 N 
HETATM   24  C5  UNL     1      11.217   7.216  10.884  1.00  0.00     0.188 A 
ATOM     25  H5  UNL     1      11.652   6.652   8.903  1.00  0.00     0.167 HD
ENDBRANCH   1  10
BRANCH   8  26
HETATM   26  C10 UNL     1      10.901   8.223  15.788  1.00  0.00     0.092 C 
BRANCH  26  27
HETATM   27  N8  UNL     1      12.029   8.461  16.585  1.00  0.00    -0.400 N 
ATOM     28  H8  UNL     1      12.225   7.887  17.405  1.00  0.00     0.158 HD
BRANCH  27  29
HETATM   29  C11 UNL     1      12.875   9.507  16.222  1.00  0.00     0.119 C 
BRANCH  29  30
HETATM   30  C12 UNL     1      14.102   9.037  15.432  1.00  0.00     0.021 C 
BRANCH  30  31
HETATM   31  C13 UNL     1      14.541  10.116  14.464  1.00  0.00     0.029 C 
BRANCH  31  32
HETATM   32  C14 UNL     1      13.466  10.470  13.466  1.00  0.00     0.229 C 
BRANCH  32  33
HETATM   33  N9  UNL     1      13.447   9.518  12.369  1.00  0.00    -0.079 N 
ATOM     34  H93 UNL     1      13.941   9.875  11.551  1.00  0.00     0.274 HD
ATOM     35  H92 UNL     1      14.034   8.707  12.562  1.00  0.00     0.274 HD
ATOM     36  H91 UNL     1      12.490   9.245  12.143  1.00  0.00     0.274 HD
ENDBRANCH  32  33
ENDBRANCH  31  32
ENDBRANCH  30  31
ENDBRANCH  29  30
ENDBRANCH  27  29
ENDBRANCH  26  27
ENDBRANCH   8  26
TORSDOF 8
ENDMDL
MODEL 5
REMARK VINA RESULT: -7.491887640      0.882      1.183
REMARK  8 active torsions:
REMARK  status: ('A' for Active; 'I' for Inactive)
REMARK    1  A    between atoms: N6_16  and  C6_17 
REMARK    2  A    between atoms: C9_24  and  C10_25 
REMARK    3  A    between atoms: C10_25  and  N8_26 
REMARK    4  A    between atoms: N8_26  and  C11_28 
REMARK    5  A    between atoms: C11_28  and  C12_29 
REMARK    6  A    between atoms: C12_29  and  C13_30 
REMARK    7  A    between atoms: C13_30  and  C14_31 
REMARK    8  A    between atoms: C14_31  and  N9_32 
ROOT
HETATM    1  C6  UNL     1      11.105   7.194  12.803  1.00  0.00     0.257 C 
HETATM    2  C7  UNL     1       9.737   7.631  13.126  1.00  0.00     0.289 C 
HETATM    3  N7  UNL     1       9.539   8.982  13.523  1.00  0.00    -0.037 N 
ATOM      4  H71 UNL     1       9.027   9.023  14.404  1.00  0.00     0.280 HD
ATOM      5  H72 UNL     1       8.864   9.439  12.909  1.00  0.00     0.280 HD
HETATM    6  C8  UNL     1      10.747   9.761  13.607  1.00  0.00     0.401 C 
HETATM    7  F1  UNL     1      10.991  10.122  12.239  1.00  0.00    -0.216 F 
HETATM    8  C9  UNL     1      11.940   8.989  14.000  1.00  0.00     0.223 C 
HETATM    9  O1  UNL     1      12.125   8.091  12.891  1.00  0.00    -0.349 OA
ENDROOT
BRANCH   1  10
HETATM   10  N6  UNL     1      11.156   6.646  11.441  1.00  0.00    -0.298 N 
HETATM   11  C3  UNL     1      10.882   5.350  11.132  1.00  0.00     0.144 A 
HETATM   12  N4  UNL     1      10.525   4.272  11.822  1.00  0.00    -0.314 N 
HETATM   13  C4  UNL     1      11.037   5.209   9.749  1.00  0.00     0.122 A 
HETATM   14  C2  UNL     1      10.305   3.064  11.283  1.00  0.00     0.195 A 
ATOM     15  H4  UNL     1      10.411   4.370  12.831  1.00  0.00     0.170 HD
HETATM   16  N2  UNL     1      10.453   2.922   9.955  1.00  0.00    -0.315 N 
HETATM   17  N3  UNL     1       9.922   1.946  12.108  1.00  0.00    -0.063 NA
HETATM   18  C1  UNL     1      10.811   3.965   9.189  1.00  0.00     0.132 A 
ATOM     19  H2  UNL     1      10.291   2.012   9.524  1.00  0.00     0.170 HD
HETATM   20  N1  UNL     1      10.961   3.873   7.917  1.00  0.00    -0.383 N 
ATOM     21  H12 UNL     1      10.794   2.955   7.504  1.00  0.00     0.157 HD
ATOM     22  H11 UNL     1      11.233   4.665   7.335  1.00  0.00     0.157 HD
HETATM   23  N5  UNL     1      11.393   6.413   9.294  1.00  0.00    -0.346 N 
HETATM   24  C5  UNL     1      11.469   7.293  10.312  1.00  0.00     0.188 A 
ATOM     25  H5  UNL     1      11.581   6.634   8.316  1.00  0.00     0.167 HD
ENDBRANCH   1  10
BRANCH   8  26
HETATM   26  C10 UNL     1      11.988   8.243  15.265  1.00  0.00     0.092 C 
BRANCH  26  27
HETATM   27  N8  UNL     1      12.556   8.788  16.425  1.00  0.00    -0.400 N 
ATOM     28  H8  UNL     1      13.443   9.289  16.391  1.00  0.00     0.158 HD
BRANCH  27  29
HETATM   29  C11 UNL     1      11.869   8.622  17.626  1.00  0.00     0.119 C 
BRANCH  29  30
HETATM   30  C12 UNL     1      11.524   7.157  17.919  1.00  0.00     0.021 C 
BRANCH  30  31
HETATM   31  C13 UNL     1      12.762   6.414  18.376  1.00  0.00     0.029 C 
BRANCH  31  32
HETATM   32  C14 UNL     1      13.172   5.326  17.414  1.00  0.00     0.229 C 
BRANCH  32  33
HETATM   33  N9  UNL     1      14.059   4.373  18.059  1.00  0.00    -0.079 N 
ATOM     34  H93 UNL     1      15.006   4.740  18.147  1.00  0.00     0.274 HD
ATOM     35  H92 UNL     1      13.842   4.267  19.051  1.00  0.00     0.274 HD
ATOM     36  H91 UNL     1      14.044   3.477  17.573  1.00  0.00     0.274 HD
ENDBRANCH  32  33
ENDBRANCH  31  32
ENDBRANCH  30  31
ENDBRANCH  29  30
ENDBRANCH  27  29
ENDBRANCH  26  27
ENDBRANCH   8  26
TORSDOF 8
ENDMDL
