MODEL 1
REMARK VINA RESULT: -7.122518671      0.000      0.000
REMARK  6 active torsions:
REMARK  status: ('A' for Active; 'I' for Inactive)
REMARK    1  A    between atoms: O1_2  and  C2_3 
REMARK    2  A    between atoms: C2_3  and  C3_4 
REMARK    3  A    between atoms: C2_3  and  C10_14 
REMARK       I    between atoms: C3_4  and  N1_6 
REMARK    4  A    between atoms: N1_6  and  C4_8 
REMARK    5  A    between atoms: C11_16  and  C12_17 
REMARK    6  A    between atoms: N2_21  and  O6_22 
ROOT
HETATM    1  C2  UNL     1      14.436  17.154  16.305  1.00  0.00     0.257 C 
ENDROOT
BRANCH   1   2
HETATM    2  O1  UNL     1      15.424  16.942  15.351  1.00  0.00    -0.377 OA
HETATM    3  C1  UNL     1      14.905  17.043  14.071  1.00  0.00     0.202 C 
ENDBRANCH   1   2
BRANCH   1   4
HETATM    4  C3  UNL     1      15.058  17.675  17.527  1.00  0.00     0.251 C 
HETATM    5  O2  UNL     1      14.560  18.674  18.102  1.00  0.00    -0.271 OA
HETATM    6  N1  UNL     1      16.222  17.102  18.115  1.00  0.00    -0.354 N 
ATOM      7  H1  UNL     1      16.649  16.290  17.670  1.00  0.00     0.162 HD
BRANCH   6   8
HETATM    8  C4  UNL     1      16.820  17.633  19.322  1.00  0.00     0.084 C 
HETATM    9  C5  UNL     1      16.406  16.747  20.465  1.00  0.00     0.025 C 
HETATM   10  C6  UNL     1      17.079  17.272  21.717  1.00  0.00     0.002 C 
HETATM   11  C7  UNL     1      18.571  17.038  21.526  1.00  0.00     0.000 C 
HETATM   12  C8  UNL     1      19.090  17.853  20.375  1.00  0.00     0.002 C 
HETATM   13  C9  UNL     1      18.304  17.689  19.117  1.00  0.00     0.025 C 
ENDBRANCH   6   8
ENDBRANCH   1   4
BRANCH   1  14
HETATM   14  C10 UNL     1      13.707  15.848  16.534  1.00  0.00     0.260 C 
HETATM   15  O3  UNL     1      12.349  15.941  16.244  1.00  0.00    -0.349 OA
HETATM   16  C11 UNL     1      11.718  15.049  17.136  1.00  0.00     0.239 C 
HETATM   17  C13 UNL     1      12.477  15.353  18.415  1.00  0.00     0.167 C 
HETATM   18  N2  UNL     1      13.832  15.492  17.913  1.00  0.00    -0.164 NA
BRANCH  16  19
HETATM   19  C12 UNL     1      10.275  15.365  17.263  1.00  0.00     0.204 C 
HETATM   20  O4  UNL     1       9.702  15.832  16.249  1.00  0.00    -0.646 OA
HETATM   21  O5  UNL     1       9.538  15.178  18.407  1.00  0.00    -0.646 OA
ENDBRANCH  16  19
BRANCH  18  22
HETATM   22  O6  UNL     1      14.458  14.310  18.104  1.00  0.00    -0.310 OA
ATOM     23  H6  UNL     1      15.100  14.334  18.804  1.00  0.00     0.237 HD
ENDBRANCH  18  22
ENDBRANCH   1  14
TORSDOF 6
ENDMDL
MODEL 2
REMARK VINA RESULT: -6.893337602      1.331      2.066
REMARK  6 active torsions:
REMARK  status: ('A' for Active; 'I' for Inactive)
REMARK    1  A    between atoms: O1_2  and  C2_3 
REMARK    2  A    between atoms: C2_3  and  C3_4 
REMARK    3  A    between atoms: C2_3  and  C10_14 
REMARK       I    between atoms: C3_4  and  N1_6 
REMARK    4  A    between atoms: N1_6  and  C4_8 
REMARK    5  A    between atoms: C11_16  and  C12_17 
REMARK    6  A    between atoms: N2_21  and  O6_22 
ROOT
HETATM    1  C2  UNL     1      14.419  17.132  17.716  1.00  0.00     0.257 C 
ENDROOT
BRANCH   1   2
HETATM    2  O1  UNL     1      15.019  17.743  16.622  1.00  0.00    -0.377 OA
HETATM    3  C1  UNL     1      14.968  19.122  16.737  1.00  0.00     0.202 C 
ENDBRANCH   1   2
BRANCH   1   4
HETATM    4  C3  UNL     1      15.455  16.784  18.694  1.00  0.00     0.251 C 
HETATM    5  O2  UNL     1      16.523  16.249  18.307  1.00  0.00    -0.271 OA
HETATM    6  N1  UNL     1      15.319  17.022  20.092  1.00  0.00    -0.354 N 
ATOM      7  H1  UNL     1      14.463  17.456  20.437  1.00  0.00     0.162 HD
BRANCH   6   8
HETATM    8  C4  UNL     1      16.355  16.670  21.041  1.00  0.00     0.084 C 
HETATM    9  C5  UNL     1      17.591  17.446  20.678  1.00  0.00     0.025 C 
HETATM   10  C6  UNL     1      18.655  17.119  21.705  1.00  0.00     0.002 C 
HETATM   11  C7  UNL     1      18.166  17.704  23.023  1.00  0.00     0.000 C 
HETATM   12  C8  UNL     1      16.902  17.022  23.467  1.00  0.00     0.002 C 
HETATM   13  C9  UNL     1      15.843  16.972  22.417  1.00  0.00     0.025 C 
ENDBRANCH   6   8
ENDBRANCH   1   4
BRANCH   1  14
HETATM   14  C10 UNL     1      13.653  15.923  17.225  1.00  0.00     0.260 C 
HETATM   15  O3  UNL     1      12.398  16.257  16.725  1.00  0.00    -0.349 OA
HETATM   16  C11 UNL     1      11.576  15.148  17.014  1.00  0.00     0.239 C 
HETATM   17  C13 UNL     1      12.023  14.834  18.430  1.00  0.00     0.167 C 
HETATM   18  N2  UNL     1      13.457  15.030  18.325  1.00  0.00    -0.164 NA
BRANCH  16  19
HETATM   19  C12 UNL     1      10.144  15.525  16.958  1.00  0.00     0.204 C 
HETATM   20  O4  UNL     1       9.435  15.219  17.947  1.00  0.00    -0.646 OA
HETATM   21  O5  UNL     1       9.554  16.180  15.904  1.00  0.00    -0.646 OA
ENDBRANCH  16  19
BRANCH  18  22
HETATM   22  O6  UNL     1      14.019  13.817  18.133  1.00  0.00    -0.310 OA
ATOM     23  H6  UNL     1      14.101  13.581  17.217  1.00  0.00     0.237 HD
ENDBRANCH  18  22
ENDBRANCH   1  14
TORSDOF 6
ENDMDL
MODEL 3
REMARK VINA RESULT: -6.670276146      2.793      6.768
REMARK  6 active torsions:
REMARK  status: ('A' for Active; 'I' for Inactive)
REMARK    1  A    between atoms: O1_2  and  C2_3 
REMARK    2  A    between atoms: C2_3  and  C3_4 
REMARK    3  A    between atoms: C2_3  and  C10_14 
REMARK       I    between atoms: C3_4  and  N1_6 
REMARK    4  A    between atoms: N1_6  and  C4_8 
REMARK    5  A    between atoms: C11_16  and  C12_17 
REMARK    6  A    between atoms: N2_21  and  O6_22 
ROOT
HETATM    1  C2  UNL     1      16.642  17.297  18.324  1.00  0.00     0.257 C 
ENDROOT
BRANCH   1   2
HETATM    2  O1  UNL     1      16.092  18.461  18.844  1.00  0.00    -0.377 OA
HETATM    3  C1  UNL     1      16.147  19.490  17.918  1.00  0.00     0.202 C 
ENDBRANCH   1   2
BRANCH   1   4
HETATM    4  C3  UNL     1      15.568  16.325  18.092  1.00  0.00     0.251 C 
HETATM    5  O2  UNL     1      15.751  15.115  18.373  1.00  0.00    -0.271 OA
HETATM    6  N1  UNL     1      14.298  16.680  17.552  1.00  0.00    -0.354 N 
ATOM      7  H1  UNL     1      14.120  17.655  17.314  1.00  0.00     0.162 HD
BRANCH   6   8
HETATM    8  C4  UNL     1      13.252  15.704  17.331  1.00  0.00     0.084 C 
HETATM    9  C5  UNL     1      12.086  16.076  18.205  1.00  0.00     0.025 C 
HETATM   10  C6  UNL     1      10.973  15.086  17.929  1.00  0.00     0.002 C 
HETATM   11  C7  UNL     1      10.522  15.344  16.498  1.00  0.00     0.000 C 
HETATM   12  C8  UNL     1      11.631  15.038  15.531  1.00  0.00     0.002 C 
HETATM   13  C9  UNL     1      12.925  15.701  15.868  1.00  0.00     0.025 C 
ENDBRANCH   6   8
ENDBRANCH   1   4
BRANCH   1  14
HETATM   14  C10 UNL     1      17.687  16.789  19.295  1.00  0.00     0.260 C 
HETATM   15  O3  UNL     1      17.216  16.741  20.603  1.00  0.00    -0.349 OA
HETATM   16  C11 UNL     1      18.343  17.000  21.411  1.00  0.00     0.239 C 
HETATM   17  C13 UNL     1      18.986  18.134  20.634  1.00  0.00     0.167 C 
HETATM   18  N2  UNL     1      18.804  17.680  19.268  1.00  0.00    -0.164 NA
BRANCH  16  19
HETATM   19  C12 UNL     1      17.929  17.426  22.770  1.00  0.00     0.204 C 
HETATM   20  O4  UNL     1      18.810  17.947  23.496  1.00  0.00    -0.646 OA
HETATM   21  O5  UNL     1      16.659  17.288  23.274  1.00  0.00    -0.646 OA
ENDBRANCH  16  19
BRANCH  18  22
HETATM   22  O6  UNL     1      19.954  17.083  18.884  1.00  0.00    -0.310 OA
ATOM     23  H6  UNL     1      20.335  16.533  19.558  1.00  0.00     0.237 HD
ENDBRANCH  18  22
ENDBRANCH   1  14
TORSDOF 6
ENDMDL
MODEL 4
REMARK VINA RESULT: -6.517513364      1.980      4.639
REMARK  6 active torsions:
REMARK  status: ('A' for Active; 'I' for Inactive)
REMARK    1  A    between atoms: O1_2  and  C2_3 
REMARK    2  A    between atoms: C2_3  and  C3_4 
REMARK    3  A    between atoms: C2_3  and  C10_14 
REMARK       I    between atoms: C3_4  and  N1_6 
REMARK    4  A    between atoms: N1_6  and  C4_8 
REMARK    5  A    between atoms: C11_16  and  C12_17 
REMARK    6  A    between atoms: N2_21  and  O6_22 
ROOT
HETATM    1  C2  UNL     1      13.787  16.282  17.688  1.00  0.00     0.257 C 
ENDROOT
BRANCH   1   2
HETATM    2  O1  UNL     1      12.589  16.508  18.354  1.00  0.00    -0.377 OA
HETATM    3  C1  UNL     1      11.784  15.382  18.317  1.00  0.00     0.202 C 
ENDBRANCH   1   2
BRANCH   1   4
HETATM    4  C3  UNL     1      14.831  15.980  18.673  1.00  0.00     0.251 C 
HETATM    5  O2  UNL     1      15.428  14.877  18.629  1.00  0.00    -0.271 OA
HETATM    6  N1  UNL     1      15.217  16.885  19.703  1.00  0.00    -0.354 N 
ATOM      7  H1  UNL     1      14.749  17.790  19.764  1.00  0.00     0.162 HD
BRANCH   6   8
HETATM    8  C4  UNL     1      16.250  16.566  20.666  1.00  0.00     0.084 C 
HETATM    9  C5  UNL     1      17.500  17.295  20.255  1.00  0.00     0.025 C 
HETATM   10  C6  UNL     1      18.562  17.005  21.295  1.00  0.00     0.002 C 
HETATM   11  C7  UNL     1      18.091  17.672  22.580  1.00  0.00     0.000 C 
HETATM   12  C8  UNL     1      16.816  17.043  23.067  1.00  0.00     0.002 C 
HETATM   13  C9  UNL     1      15.751  16.955  22.025  1.00  0.00     0.025 C 
ENDBRANCH   6   8
ENDBRANCH   1   4
BRANCH   1  14
HETATM   14  C10 UNL     1      14.108  17.506  16.857  1.00  0.00     0.260 C 
HETATM   15  O3  UNL     1      15.460  17.830  16.890  1.00  0.00    -0.349 OA
HETATM   16  C11 UNL     1      15.508  19.235  16.776  1.00  0.00     0.239 C 
HETATM   17  C13 UNL     1      14.376  19.627  17.708  1.00  0.00     0.167 C 
HETATM   18  N2  UNL     1      13.382  18.618  17.386  1.00  0.00    -0.164 NA
BRANCH  16  19
HETATM   19  C12 UNL     1      16.813  19.758  17.244  1.00  0.00     0.204 C 
HETATM   20  O4  UNL     1      16.823  20.915  17.732  1.00  0.00    -0.646 OA
HETATM   21  O5  UNL     1      17.997  19.064  17.178  1.00  0.00    -0.646 OA
ENDBRANCH  16  19
BRANCH  18  22
HETATM   22  O6  UNL     1      12.523  19.166  16.499  1.00  0.00    -0.310 OA
ATOM     23  H6  UNL     1      12.938  19.777  15.902  1.00  0.00     0.237 HD
ENDBRANCH  18  22
ENDBRANCH   1  14
TORSDOF 6
ENDMDL
MODEL 5
REMARK VINA RESULT: -6.413881742      1.697      4.113
REMARK  6 active torsions:
REMARK  status: ('A' for Active; 'I' for Inactive)
REMARK    1  A    between atoms: O1_2  and  C2_3 
REMARK    2  A    between atoms: C2_3  and  C3_4 
REMARK    3  A    between atoms: C2_3  and  C10_14 
REMARK       I    between atoms: C3_4  and  N1_6 
REMARK    4  A    between atoms: N1_6  and  C4_8 
REMARK    5  A    between atoms: C11_16  and  C12_17 
REMARK    6  A    between atoms: N2_21  and  O6_22 
ROOT
HETATM    1  C2  UNL     1      13.726  16.229  17.729  1.00  0.00     0.257 C 
ENDROOT
BRANCH   1   2
HETATM    2  O1  UNL     1      12.575  16.524  18.449  1.00  0.00    -0.377 OA
HETATM    3  C1  UNL     1      11.686  15.463  18.418  1.00  0.00     0.202 C 
ENDBRANCH   1   2
BRANCH   1   4
HETATM    4  C3  UNL     1      14.820  15.959  18.669  1.00  0.00     0.251 C 
HETATM    5  O2  UNL     1      15.510  14.919  18.539  1.00  0.00    -0.271 OA
HETATM    6  N1  UNL     1      15.154  16.829  19.747  1.00  0.00    -0.354 N 
ATOM      7  H1  UNL     1      14.611  17.682  19.877  1.00  0.00     0.162 HD
BRANCH   6   8
HETATM    8  C4  UNL     1      16.238  16.543  20.663  1.00  0.00     0.084 C 
HETATM    9  C5  UNL     1      17.454  17.282  20.177  1.00  0.00     0.025 C 
HETATM   10  C6  UNL     1      18.571  17.027  21.168  1.00  0.00     0.002 C 
HETATM   11  C7  UNL     1      18.154  17.713  22.462  1.00  0.00     0.000 C 
HETATM   12  C8  UNL     1      16.915  17.074  23.023  1.00  0.00     0.002 C 
HETATM   13  C9  UNL     1      15.801  16.951  22.037  1.00  0.00     0.025 C 
ENDBRANCH   6   8
ENDBRANCH   1   4
BRANCH   1  14
HETATM   14  C10 UNL     1      14.023  17.392  16.808  1.00  0.00     0.260 C 
HETATM   15  O3  UNL     1      13.905  17.048  15.465  1.00  0.00    -0.349 OA
HETATM   16  C11 UNL     1      14.855  17.846  14.793  1.00  0.00     0.239 C 
HETATM   17  C13 UNL     1      16.033  17.731  15.742  1.00  0.00     0.167 C 
HETATM   18  N2  UNL     1      15.370  17.817  17.030  1.00  0.00    -0.164 NA
BRANCH  16  19
HETATM   19  C12 UNL     1      15.165  17.284  13.457  1.00  0.00     0.204 C 
HETATM   20  O4  UNL     1      15.644  18.071  12.605  1.00  0.00    -0.646 OA
HETATM   21  O5  UNL     1      14.963  15.973  13.101  1.00  0.00    -0.646 OA
ENDBRANCH  16  19
BRANCH  18  22
HETATM   22  O6  UNL     1      15.463  19.097  17.450  1.00  0.00    -0.310 OA
ATOM     23  H6  UNL     1      15.207  19.729  16.788  1.00  0.00     0.237 HD
ENDBRANCH  18  22
ENDBRANCH   1  14
TORSDOF 6
ENDMDL
