MODEL 1
REMARK VINA RESULT: -6.954817895      0.000      0.000
REMARK  3 active torsions:
REMARK  status: ('A' for Active; 'I' for Inactive)
REMARK    1  A    between atoms: C2_2  and  N1_3 
REMARK       I    between atoms: N2_10  and  C9_11 
REMARK    2  A    between atoms: C9_11  and  C10_13 
REMARK    3  A    between atoms: C10_13  and  N3_14 
ROOT
HETATM    1  N1  UNL     1      20.978  -4.320  21.249  1.00  0.00     0.088 N 
HETATM    2  C3  UNL     1      20.353  -4.742  22.483  1.00  0.00     0.273 C 
HETATM    3  C4  UNL     1      20.171  -3.624  23.444  1.00  0.00     0.041 C 
HETATM    4  C5  UNL     1      21.041  -2.416  23.122  1.00  0.00    -0.021 C 
HETATM    5  C6  UNL     1      20.522  -1.293  24.006  1.00  0.00     0.013 C 
HETATM    6  C7  UNL     1      21.410  -0.099  23.780  1.00  0.00     0.021 C 
HETATM    7  C8  UNL     1      22.772  -0.433  24.333  1.00  0.00     0.126 C 
HETATM    8  N2  UNL     1      23.281  -1.687  23.873  1.00  0.00    -0.350 N 
HETATM    9  C9  UNL     1      24.685  -1.902  23.895  1.00  0.00     0.237 C 
HETATM   10  O1  UNL     1      25.406  -0.967  24.323  1.00  0.00    -0.272 OA
HETATM   11  C15 UNL     1      22.460  -2.771  23.376  1.00  0.00     0.135 C 
HETATM   12  C16 UNL     1      20.836  -1.949  21.687  1.00  0.00     0.041 C 
HETATM   13  C17 UNL     1      20.465  -3.085  20.758  1.00  0.00     0.273 C 
ENDROOT
BRANCH   9  14
HETATM   14  C10 UNL     1      25.300  -3.170  23.436  1.00  0.00     0.220 C 
BRANCH  14  15
HETATM   15  N3  UNL     1      26.658  -3.357  23.807  1.00  0.00    -0.401 N 
HETATM   16  C11 UNL     1      27.500  -3.812  22.745  1.00  0.00     0.144 C 
HETATM   17  C12 UNL     1      28.933  -3.684  23.241  1.00  0.00     0.251 C 
HETATM   18  N4  UNL     1      29.120  -4.685  24.258  1.00  0.00    -0.072 N 
HETATM   19  C13 UNL     1      27.896  -5.142  24.824  1.00  0.00     0.251 C 
ATOM     20  H42 UNL     1      29.669  -5.467  23.902  1.00  0.00     0.277 HD
ATOM     21  H41 UNL     1      29.754  -4.351  24.984  1.00  0.00     0.277 HD
HETATM   22  C14 UNL     1      26.916  -4.014  25.037  1.00  0.00     0.144 C 
ENDBRANCH  14  15
ENDBRANCH   9  14
BRANCH   1  23
HETATM   23  C2  UNL     1      21.016  -5.357  20.263  1.00  0.00     0.268 C 
HETATM   24  C1  UNL     1      21.408  -4.894  18.898  1.00  0.00     0.037 C 
ENDBRANCH   1  23
TORSDOF 3
ENDMDL
MODEL 2
REMARK VINA RESULT: -6.708810234      3.698      5.932
REMARK  3 active torsions:
REMARK  status: ('A' for Active; 'I' for Inactive)
REMARK    1  A    between atoms: C2_2  and  N1_3 
REMARK       I    between atoms: N2_10  and  C9_11 
REMARK    2  A    between atoms: C9_11  and  C10_13 
REMARK    3  A    between atoms: C10_13  and  N3_14 
ROOT
HETATM    1  N1  UNL     1      22.992  -3.238  24.689  1.00  0.00     0.088 N 
HETATM    2  C3  UNL     1      23.605  -2.014  25.154  1.00  0.00     0.273 C 
HETATM    3  C4  UNL     1      24.987  -1.833  24.638  1.00  0.00     0.041 C 
HETATM    4  C5  UNL     1      25.599  -3.126  24.113  1.00  0.00    -0.021 C 
HETATM    5  C6  UNL     1      26.860  -2.709  23.375  1.00  0.00     0.013 C 
HETATM    6  C7  UNL     1      27.543  -3.967  22.911  1.00  0.00     0.021 C 
HETATM    7  C8  UNL     1      28.031  -4.700  24.135  1.00  0.00     0.126 C 
HETATM    8  N2  UNL     1      27.025  -4.867  25.136  1.00  0.00    -0.350 N 
HETATM    9  C9  UNL     1      27.171  -5.918  26.080  1.00  0.00     0.237 C 
HETATM   10  O1  UNL     1      28.188  -6.649  25.979  1.00  0.00    -0.272 OA
HETATM   11  C15 UNL     1      25.848  -4.033  25.262  1.00  0.00     0.135 C 
HETATM   12  C16 UNL     1      24.702  -3.784  23.073  1.00  0.00     0.041 C 
HETATM   13  C17 UNL     1      23.235  -3.494  23.309  1.00  0.00     0.273 C 
ENDROOT
BRANCH   9  14
HETATM   14  C10 UNL     1      26.177  -6.167  27.151  1.00  0.00     0.220 C 
BRANCH  14  15
HETATM   15  N3  UNL     1      26.322  -7.398  27.844  1.00  0.00    -0.401 N 
HETATM   16  C11 UNL     1      25.344  -8.383  27.503  1.00  0.00     0.144 C 
HETATM   17  C12 UNL     1      25.818  -9.694  28.113  1.00  0.00     0.251 C 
HETATM   18  N4  UNL     1      25.676  -9.572  29.541  1.00  0.00    -0.072 N 
HETATM   19  C13 UNL     1      25.615  -8.220  29.983  1.00  0.00     0.251 C 
ATOM     20  H42 UNL     1      24.868 -10.099  29.872  1.00  0.00     0.277 HD
ATOM     21  H41 UNL     1      26.417 -10.080  30.024  1.00  0.00     0.277 HD
HETATM   22  C14 UNL     1      26.584  -7.337  29.236  1.00  0.00     0.144 C 
ENDBRANCH  14  15
ENDBRANCH   9  14
BRANCH   1  23
HETATM   23  C2  UNL     1      21.612  -3.342  25.056  1.00  0.00     0.268 C 
HETATM   24  C1  UNL     1      21.172  -2.347  26.080  1.00  0.00     0.037 C 
ENDBRANCH   1  23
TORSDOF 3
ENDMDL
MODEL 3
REMARK VINA RESULT: -6.692878556      1.669      1.983
REMARK  3 active torsions:
REMARK  status: ('A' for Active; 'I' for Inactive)
REMARK    1  A    between atoms: C2_2  and  N1_3 
REMARK       I    between atoms: N2_10  and  C9_11 
REMARK    2  A    between atoms: C9_11  and  C10_13 
REMARK    3  A    between atoms: C10_13  and  N3_14 
ROOT
HETATM    1  N1  UNL     1      20.664  -4.997  24.286  1.00  0.00     0.088 N 
HETATM    2  C3  UNL     1      20.419  -4.576  25.647  1.00  0.00     0.273 C 
HETATM    3  C4  UNL     1      20.460  -3.099  25.806  1.00  0.00     0.041 C 
HETATM    4  C5  UNL     1      21.157  -2.396  24.649  1.00  0.00    -0.021 C 
HETATM    5  C6  UNL     1      20.853  -0.918  24.827  1.00  0.00     0.013 C 
HETATM    6  C7  UNL     1      21.595  -0.175  23.748  1.00  0.00     0.021 C 
HETATM    7  C8  UNL     1      23.070  -0.308  24.035  1.00  0.00     0.126 C 
HETATM    8  N2  UNL     1      23.485  -1.655  24.265  1.00  0.00    -0.350 N 
HETATM    9  C9  UNL     1      24.849  -1.993  24.058  1.00  0.00     0.237 C 
HETATM   10  O1  UNL     1      25.620  -1.077  23.680  1.00  0.00    -0.272 OA
HETATM   11  C15 UNL     1      22.606  -2.721  24.699  1.00  0.00     0.135 C 
HETATM   12  C16 UNL     1      20.548  -2.791  23.309  1.00  0.00     0.041 C 
HETATM   13  C17 UNL     1      19.986  -4.196  23.323  1.00  0.00     0.273 C 
ENDROOT
BRANCH   9  14
HETATM   14  C10 UNL     1      25.368  -3.365  24.272  1.00  0.00     0.220 C 
BRANCH  14  15
HETATM   15  N3  UNL     1      26.781  -3.494  24.235  1.00  0.00    -0.401 N 
HETATM   16  C11 UNL     1      27.318  -3.706  22.927  1.00  0.00     0.144 C 
HETATM   17  C12 UNL     1      28.826  -3.538  23.045  1.00  0.00     0.251 C 
HETATM   18  N4  UNL     1      29.321  -4.667  23.788  1.00  0.00    -0.072 N 
HETATM   19  C13 UNL     1      28.316  -5.307  24.568  1.00  0.00     0.251 C 
ATOM     20  H42 UNL     1      29.782  -5.336  23.171  1.00  0.00     0.277 HD
ATOM     21  H41 UNL     1      30.116  -4.400  24.369  1.00  0.00     0.277 HD
HETATM   22  C14 UNL     1      27.389  -4.312  25.221  1.00  0.00     0.144 C 
ENDBRANCH  14  15
ENDBRANCH   9  14
BRANCH   1  23
HETATM   23  C2  UNL     1      20.474  -6.404  24.098  1.00  0.00     0.268 C 
HETATM   24  C1  UNL     1      19.413  -6.753  23.107  1.00  0.00     0.037 C 
ENDBRANCH   1  23
TORSDOF 3
ENDMDL
MODEL 4
REMARK VINA RESULT: -6.665040544      3.526      5.877
REMARK  3 active torsions:
REMARK  status: ('A' for Active; 'I' for Inactive)
REMARK    1  A    between atoms: C2_2  and  N1_3 
REMARK       I    between atoms: N2_10  and  C9_11 
REMARK    2  A    between atoms: C9_11  and  C10_13 
REMARK    3  A    between atoms: C10_13  and  N3_14 
ROOT
HETATM    1  N1  UNL     1      23.199  -3.170  24.642  1.00  0.00     0.088 N 
HETATM    2  C3  UNL     1      23.848  -1.968  25.114  1.00  0.00     0.273 C 
HETATM    3  C4  UNL     1      25.232  -1.821  24.593  1.00  0.00     0.041 C 
HETATM    4  C5  UNL     1      25.806  -3.126  24.056  1.00  0.00    -0.021 C 
HETATM    5  C6  UNL     1      27.075  -2.738  23.315  1.00  0.00     0.013 C 
HETATM    6  C7  UNL     1      27.721  -4.011  22.838  1.00  0.00     0.021 C 
HETATM    7  C8  UNL     1      28.194  -4.766  24.055  1.00  0.00     0.126 C 
HETATM    8  N2  UNL     1      27.188  -4.914  25.058  1.00  0.00    -0.350 N 
HETATM    9  C9  UNL     1      27.308  -5.977  25.993  1.00  0.00     0.237 C 
HETATM   10  O1  UNL     1      28.305  -6.734  25.882  1.00  0.00    -0.272 OA
HETATM   11  C15 UNL     1      26.035  -4.049  25.196  1.00  0.00     0.135 C 
HETATM   12  C16 UNL     1      24.887  -3.751  23.014  1.00  0.00     0.041 C 
HETATM   13  C17 UNL     1      23.430  -3.422  23.259  1.00  0.00     0.273 C 
ENDROOT
BRANCH   9  14
HETATM   14  C10 UNL     1      26.312  -6.206  27.067  1.00  0.00     0.220 C 
BRANCH  14  15
HETATM   15  N3  UNL     1      25.400  -7.269  26.834  1.00  0.00    -0.401 N 
HETATM   16  C11 UNL     1      24.093  -6.845  26.438  1.00  0.00     0.144 C 
HETATM   17  C12 UNL     1      23.356  -8.091  25.969  1.00  0.00     0.251 C 
HETATM   18  N4  UNL     1      23.100  -8.896  27.134  1.00  0.00    -0.072 N 
HETATM   19  C13 UNL     1      23.959  -8.586  28.227  1.00  0.00     0.251 C 
ATOM     20  H42 UNL     1      22.121  -8.831  27.413  1.00  0.00     0.277 HD
ATOM     21  H41 UNL     1      23.145  -9.889  26.907  1.00  0.00     0.277 HD
HETATM   22  C14 UNL     1      25.376  -8.328  27.776  1.00  0.00     0.144 C 
ENDBRANCH  14  15
ENDBRANCH   9  14
BRANCH   1  23
HETATM   23  C2  UNL     1      21.819  -3.239  25.014  1.00  0.00     0.268 C 
HETATM   24  C1  UNL     1      21.428  -2.293  26.102  1.00  0.00     0.037 C 
ENDBRANCH   1  23
TORSDOF 3
ENDMDL
MODEL 5
REMARK VINA RESULT: -6.403309179      2.071      2.602
REMARK  3 active torsions:
REMARK  status: ('A' for Active; 'I' for Inactive)
REMARK    1  A    between atoms: C2_2  and  N1_3 
REMARK       I    between atoms: N2_10  and  C9_11 
REMARK    2  A    between atoms: C9_11  and  C10_13 
REMARK    3  A    between atoms: C10_13  and  N3_14 
ROOT
HETATM    1  N1  UNL     1      20.818  -4.596  23.705  1.00  0.00     0.088 N 
HETATM    2  C3  UNL     1      20.860  -4.471  25.145  1.00  0.00     0.273 C 
HETATM    3  C4  UNL     1      21.459  -3.186  25.590  1.00  0.00     0.041 C 
HETATM    4  C5  UNL     1      22.269  -2.498  24.499  1.00  0.00    -0.021 C 
HETATM    5  C6  UNL     1      22.551  -1.099  25.022  1.00  0.00     0.013 C 
HETATM    6  C7  UNL     1      23.424  -0.410  24.008  1.00  0.00     0.021 C 
HETATM    7  C8  UNL     1      24.762  -1.105  24.010  1.00  0.00     0.126 C 
HETATM    8  N2  UNL     1      24.665  -2.526  23.890  1.00  0.00    -0.350 N 
HETATM    9  C9  UNL     1      25.784  -3.246  23.393  1.00  0.00     0.237 C 
HETATM   10  O1  UNL     1      26.807  -2.584  23.085  1.00  0.00    -0.272 OA
HETATM   11  C15 UNL     1      23.492  -3.300  24.240  1.00  0.00     0.135 C 
HETATM   12  C16 UNL     1      21.449  -2.313  23.229  1.00  0.00     0.041 C 
HETATM   13  C17 UNL     1      20.408  -3.398  23.052  1.00  0.00     0.273 C 
ENDROOT
BRANCH   9  14
HETATM   14  C10 UNL     1      25.773  -4.720  23.234  1.00  0.00     0.220 C 
BRANCH  14  15
HETATM   15  N3  UNL     1      27.046  -5.322  23.053  1.00  0.00    -0.401 N 
HETATM   16  C11 UNL     1      27.297  -5.776  21.721  1.00  0.00     0.144 C 
HETATM   17  C12 UNL     1      28.777  -6.124  21.653  1.00  0.00     0.251 C 
HETATM   18  N4  UNL     1      28.970  -7.311  22.445  1.00  0.00    -0.072 N 
HETATM   19  C13 UNL     1      27.927  -7.527  23.390  1.00  0.00     0.251 C 
ATOM     20  H42 UNL     1      29.095  -8.129  21.849  1.00  0.00     0.277 HD
ATOM     21  H41 UNL     1      29.880  -7.298  22.905  1.00  0.00     0.277 HD
HETATM   22  C14 UNL     1      27.479  -6.242  24.042  1.00  0.00     0.144 C 
ENDBRANCH  14  15
ENDBRANCH   9  14
BRANCH   1  23
HETATM   23  C2  UNL     1      20.105  -5.759  23.270  1.00  0.00     0.268 C 
HETATM   24  C1  UNL     1      20.104  -6.884  24.253  1.00  0.00     0.037 C 
ENDBRANCH   1  23
TORSDOF 3
ENDMDL
