MODEL 1
REMARK VINA RESULT: -8.368179014      0.000      0.000
REMARK  6 active torsions:
REMARK  status: ('A' for Active; 'I' for Inactive)
REMARK    1  A    between atoms: C8_8  and  O1_10 
REMARK    2  A    between atoms: O1_10  and  C10_11 
REMARK    3  A    between atoms: C10_11  and  C11_13 
REMARK    4  A    between atoms: C12_14  and  C13_15 
REMARK    5  A    between atoms: C14_16  and  C15_17 
REMARK    6  A    between atoms: C18_20  and  C19_21 
ROOT
HETATM    1  C1  UNL     1       4.311  21.769  -3.780  1.00  0.00     0.011 C 
HETATM    2  C2  UNL     1       5.763  22.101  -3.876  1.00  0.00     0.007 C 
HETATM    3  C3  UNL     1       6.629  21.043  -4.465  1.00  0.00     0.020 C 
HETATM    4  C4  UNL     1       5.837  19.826  -4.826  1.00  0.00    -0.025 C 
HETATM    5  C5  UNL     1       5.360  19.922  -6.059  1.00  0.00    -0.030 C 
HETATM    6  C6  UNL     1       5.797  21.239  -6.654  1.00  0.00     0.035 C 
HETATM    7  C7  UNL     1       6.994  21.569  -5.814  1.00  0.00     0.033 C 
HETATM    8  C8  UNL     1       7.158  23.088  -5.581  1.00  0.00     0.085 C 
HETATM    9  C9  UNL     1       7.023  23.730  -6.947  1.00  0.00     0.048 C 
HETATM   10  C18 UNL     1       6.003  23.363  -4.710  1.00  0.00     0.126 C 
ENDROOT
BRANCH   8  11
HETATM   11  O1  UNL     1       8.420  23.200  -5.040  1.00  0.00    -0.306 OA
BRANCH  11  12
HETATM   12  C10 UNL     1       9.385  24.145  -5.195  1.00  0.00     0.283 C 
HETATM   13  O2  UNL     1       9.240  25.208  -4.535  1.00  0.00    -0.260 OA
BRANCH  12  14
HETATM   14  C11 UNL     1      10.546  24.007  -6.055  1.00  0.00     0.082 C 
HETATM   15  C12 UNL     1      10.572  23.044  -6.953  1.00  0.00     0.006 C 
BRANCH  15  16
HETATM   16  C13 UNL     1      11.703  22.840  -7.853  1.00  0.00    -0.003 C 
HETATM   17  C14 UNL     1      12.499  23.834  -8.188  1.00  0.00    -0.022 C 
BRANCH  17  18
HETATM   18  C15 UNL     1      13.660  23.732  -9.083  1.00  0.00     0.008 A 
HETATM   19  C16 UNL     1      14.719  22.719  -8.787  1.00  0.00     0.009 A 
HETATM   20  C17 UNL     1      15.026  24.192  -8.657  1.00  0.00     0.009 A 
ENDBRANCH  17  18
ENDBRANCH  15  16
ENDBRANCH  12  14
ENDBRANCH  11  12
ENDBRANCH   8  11
BRANCH  10  21
HETATM   21  C19 UNL     1       6.049  24.487  -3.776  1.00  0.00     0.180 C 
HETATM   22  O3  UNL     1       6.056  25.666  -4.207  1.00  0.00    -0.648 OA
HETATM   23  O4  UNL     1       6.087  24.356  -2.373  1.00  0.00    -0.648 OA
ENDBRANCH  10  21
TORSDOF 6
ENDMDL
MODEL 2
REMARK VINA RESULT: -8.056968901      1.096      1.342
REMARK  6 active torsions:
REMARK  status: ('A' for Active; 'I' for Inactive)
REMARK    1  A    between atoms: C8_8  and  O1_10 
REMARK    2  A    between atoms: O1_10  and  C10_11 
REMARK    3  A    between atoms: C10_11  and  C11_13 
REMARK    4  A    between atoms: C12_14  and  C13_15 
REMARK    5  A    between atoms: C14_16  and  C15_17 
REMARK    6  A    between atoms: C18_20  and  C19_21 
ROOT
HETATM    1  C1  UNL     1       4.185  21.898  -3.840  1.00  0.00     0.011 C 
HETATM    2  C2  UNL     1       5.658  22.137  -3.792  1.00  0.00     0.007 C 
HETATM    3  C3  UNL     1       6.509  21.024  -4.297  1.00  0.00     0.020 C 
HETATM    4  C4  UNL     1       5.679  19.859  -4.738  1.00  0.00    -0.025 C 
HETATM    5  C5  UNL     1       5.333  19.981  -6.011  1.00  0.00    -0.030 C 
HETATM    6  C6  UNL     1       5.909  21.266  -6.556  1.00  0.00     0.035 C 
HETATM    7  C7  UNL     1       7.037  21.521  -5.601  1.00  0.00     0.033 C 
HETATM    8  C8  UNL     1       7.274  23.027  -5.348  1.00  0.00     0.085 C 
HETATM    9  C9  UNL     1       7.315  23.672  -6.719  1.00  0.00     0.048 C 
HETATM   10  C18 UNL     1       6.059  23.379  -4.594  1.00  0.00     0.126 C 
ENDROOT
BRANCH   8  11
HETATM   11  O1  UNL     1       8.482  23.060  -4.685  1.00  0.00    -0.306 OA
BRANCH  11  12
HETATM   12  C10 UNL     1       9.739  22.742  -5.091  1.00  0.00     0.283 C 
HETATM   13  O2  UNL     1      10.267  21.736  -4.549  1.00  0.00    -0.260 OA
BRANCH  12  14
HETATM   14  C11 UNL     1      10.494  23.476  -6.092  1.00  0.00     0.082 C 
HETATM   15  C12 UNL     1      10.873  22.860  -7.192  1.00  0.00     0.006 C 
BRANCH  15  16
HETATM   16  C13 UNL     1      11.634  23.528  -8.243  1.00  0.00    -0.003 C 
HETATM   17  C14 UNL     1      12.091  24.753  -8.085  1.00  0.00    -0.022 C 
BRANCH  17  18
HETATM   18  C15 UNL     1      12.865  25.510  -9.079  1.00  0.00     0.008 A 
HETATM   19  C16 UNL     1      14.318  25.761  -8.829  1.00  0.00     0.009 A 
HETATM   20  C17 UNL     1      13.338  26.910  -8.808  1.00  0.00     0.009 A 
ENDBRANCH  17  18
ENDBRANCH  15  16
ENDBRANCH  12  14
ENDBRANCH  11  12
ENDBRANCH   8  11
BRANCH  10  21
HETATM   21  C19 UNL     1       6.084  24.500  -3.657  1.00  0.00     0.180 C 
HETATM   22  O3  UNL     1       6.125  25.679  -4.084  1.00  0.00    -0.648 OA
HETATM   23  O4  UNL     1       6.067  24.366  -2.254  1.00  0.00    -0.648 OA
ENDBRANCH  10  21
TORSDOF 6
ENDMDL
MODEL 3
REMARK VINA RESULT: -7.658529464      2.062      2.495
REMARK  6 active torsions:
REMARK  status: ('A' for Active; 'I' for Inactive)
REMARK    1  A    between atoms: C8_8  and  O1_10 
REMARK    2  A    between atoms: O1_10  and  C10_11 
REMARK    3  A    between atoms: C10_11  and  C11_13 
REMARK    4  A    between atoms: C12_14  and  C13_15 
REMARK    5  A    between atoms: C14_16  and  C15_17 
REMARK    6  A    between atoms: C18_20  and  C19_21 
ROOT
HETATM    1  C1  UNL     1       5.308  22.979  -3.057  1.00  0.00     0.011 C 
HETATM    2  C2  UNL     1       6.452  22.643  -3.957  1.00  0.00     0.007 C 
HETATM    3  C3  UNL     1       6.441  21.267  -4.527  1.00  0.00     0.020 C 
HETATM    4  C4  UNL     1       5.260  20.484  -4.044  1.00  0.00    -0.025 C 
HETATM    5  C5  UNL     1       4.215  20.668  -4.837  1.00  0.00    -0.030 C 
HETATM    6  C6  UNL     1       4.604  21.610  -5.952  1.00  0.00     0.035 C 
HETATM    7  C7  UNL     1       6.096  21.464  -5.966  1.00  0.00     0.033 C 
HETATM    8  C8  UNL     1       6.820  22.778  -6.338  1.00  0.00     0.085 C 
HETATM    9  C9  UNL     1       6.123  23.292  -7.581  1.00  0.00     0.048 C 
HETATM   10  C18 UNL     1       6.536  23.600  -5.150  1.00  0.00     0.126 C 
ENDROOT
BRANCH   8  11
HETATM   11  O1  UNL     1       8.121  22.381  -6.558  1.00  0.00    -0.306 OA
BRANCH  11  12
HETATM   12  C10 UNL     1       9.026  22.751  -7.502  1.00  0.00     0.283 C 
HETATM   13  O2  UNL     1       8.926  22.192  -8.626  1.00  0.00    -0.260 OA
BRANCH  12  14
HETATM   14  C11 UNL     1      10.079  23.731  -7.298  1.00  0.00     0.082 C 
HETATM   15  C12 UNL     1      10.031  24.873  -7.952  1.00  0.00     0.006 C 
BRANCH  15  16
HETATM   16  C13 UNL     1      11.050  25.907  -7.802  1.00  0.00    -0.003 C 
HETATM   17  C14 UNL     1      12.196  25.838  -8.446  1.00  0.00    -0.022 C 
BRANCH  17  18
HETATM   18  C15 UNL     1      13.282  26.824  -8.363  1.00  0.00     0.008 A 
HETATM   19  C16 UNL     1      13.660  27.376  -7.026  1.00  0.00     0.009 A 
HETATM   20  C17 UNL     1      13.010  28.270  -8.055  1.00  0.00     0.009 A 
ENDBRANCH  17  18
ENDBRANCH  15  16
ENDBRANCH  12  14
ENDBRANCH  11  12
ENDBRANCH   8  11
BRANCH  10  21
HETATM   21  C19 UNL     1       7.455  24.670  -4.770  1.00  0.00     0.180 C 
HETATM   22  O3  UNL     1       7.157  25.868  -4.998  1.00  0.00    -0.648 OA
HETATM   23  O4  UNL     1       8.702  24.467  -4.145  1.00  0.00    -0.648 OA
ENDBRANCH  10  21
TORSDOF 6
ENDMDL
MODEL 4
REMARK VINA RESULT: -7.569788482      2.107      2.593
REMARK  6 active torsions:
REMARK  status: ('A' for Active; 'I' for Inactive)
REMARK    1  A    between atoms: C8_8  and  O1_10 
REMARK    2  A    between atoms: O1_10  and  C10_11 
REMARK    3  A    between atoms: C10_11  and  C11_13 
REMARK    4  A    between atoms: C12_14  and  C13_15 
REMARK    5  A    between atoms: C14_16  and  C15_17 
REMARK    6  A    between atoms: C18_20  and  C19_21 
ROOT
HETATM    1  C1  UNL     1       5.336  22.619  -3.475  1.00  0.00     0.011 C 
HETATM    2  C2  UNL     1       6.646  22.513  -4.185  1.00  0.00     0.007 C 
HETATM    3  C3  UNL     1       6.913  21.210  -4.854  1.00  0.00     0.020 C 
HETATM    4  C4  UNL     1       5.786  20.248  -4.647  1.00  0.00    -0.025 C 
HETATM    5  C5  UNL     1       4.869  20.384  -5.594  1.00  0.00    -0.030 C 
HETATM    6  C6  UNL     1       5.304  21.472  -6.546  1.00  0.00     0.035 C 
HETATM    7  C7  UNL     1       6.785  21.507  -6.311  1.00  0.00     0.033 C 
HETATM    8  C8  UNL     1       7.377  22.928  -6.447  1.00  0.00     0.085 C 
HETATM    9  C9  UNL     1       6.829  23.478  -7.749  1.00  0.00     0.048 C 
HETATM   10  C18 UNL     1       6.795  23.588  -5.266  1.00  0.00     0.126 C 
ENDROOT
BRANCH   8  11
HETATM   11  O1  UNL     1       8.737  22.714  -6.467  1.00  0.00    -0.306 OA
BRANCH  11  12
HETATM   12  C10 UNL     1       9.707  23.168  -7.304  1.00  0.00     0.283 C 
HETATM   13  O2  UNL     1       9.900  22.500  -8.353  1.00  0.00    -0.260 OA
BRANCH  12  14
HETATM   14  C11 UNL     1      10.516  24.351  -7.067  1.00  0.00     0.082 C 
HETATM   15  C12 UNL     1      10.723  25.197  -8.054  1.00  0.00     0.006 C 
BRANCH  15  16
HETATM   16  C13 UNL     1      11.524  26.407  -7.895  1.00  0.00    -0.003 C 
HETATM   17  C14 UNL     1      12.721  26.369  -7.349  1.00  0.00    -0.022 C 
BRANCH  17  18
HETATM   18  C15 UNL     1      13.603  27.527  -7.146  1.00  0.00     0.008 A 
HETATM   19  C16 UNL     1      13.486  28.699  -8.067  1.00  0.00     0.009 A 
HETATM   20  C17 UNL     1      14.726  27.837  -8.095  1.00  0.00     0.009 A 
ENDBRANCH  17  18
ENDBRANCH  15  16
ENDBRANCH  12  14
ENDBRANCH  11  12
ENDBRANCH   8  11
BRANCH  10  21
HETATM   21  C19 UNL     1       7.487  24.717  -4.650  1.00  0.00     0.180 C 
HETATM   22  O3  UNL     1       8.398  24.517  -3.810  1.00  0.00    -0.648 OA
HETATM   23  O4  UNL     1       7.209  26.070  -4.928  1.00  0.00    -0.648 OA
ENDBRANCH  10  21
TORSDOF 6
ENDMDL
MODEL 5
REMARK VINA RESULT: -7.561785843      1.942      6.719
REMARK  6 active torsions:
REMARK  status: ('A' for Active; 'I' for Inactive)
REMARK    1  A    between atoms: C8_8  and  O1_10 
REMARK    2  A    between atoms: O1_10  and  C10_11 
REMARK    3  A    between atoms: C10_11  and  C11_13 
REMARK    4  A    between atoms: C12_14  and  C13_15 
REMARK    5  A    between atoms: C14_16  and  C15_17 
REMARK    6  A    between atoms: C18_20  and  C19_21 
ROOT
HETATM    1  C1  UNL     1      10.562  26.141  -7.458  1.00  0.00     0.011 C 
HETATM    2  C2  UNL     1       9.399  25.240  -7.203  1.00  0.00     0.007 C 
HETATM    3  C3  UNL     1       9.262  24.085  -8.134  1.00  0.00     0.020 C 
HETATM    4  C4  UNL     1      10.341  24.089  -9.172  1.00  0.00    -0.025 C 
HETATM    5  C5  UNL     1      11.410  23.433  -8.743  1.00  0.00    -0.030 C 
HETATM    6  C6  UNL     1      11.143  22.917  -7.349  1.00  0.00     0.035 C 
HETATM    7  C7  UNL     1       9.645  22.898  -7.314  1.00  0.00     0.033 C 
HETATM    8  C8  UNL     1       9.078  23.225  -5.913  1.00  0.00     0.085 C 
HETATM    9  C9  UNL     1       9.844  22.346  -4.945  1.00  0.00     0.048 C 
HETATM   10  C18 UNL     1       9.437  24.648  -5.791  1.00  0.00     0.126 C 
ENDROOT
BRANCH   8  11
HETATM   11  O1  UNL     1       7.743  22.900  -6.019  1.00  0.00    -0.306 OA
BRANCH  11  12
HETATM   12  C10 UNL     1       6.926  22.183  -5.203  1.00  0.00     0.283 C 
HETATM   13  O2  UNL     1       6.564  22.746  -4.136  1.00  0.00    -0.260 OA
BRANCH  12  14
HETATM   14  C11 UNL     1       6.453  20.838  -5.481  1.00  0.00     0.082 C 
HETATM   15  C12 UNL     1       6.123  20.051  -4.478  1.00  0.00     0.006 C 
BRANCH  15  16
HETATM   16  C13 UNL     1       5.641  18.688  -4.676  1.00  0.00    -0.003 C 
HETATM   17  C14 UNL     1       5.286  18.253  -5.867  1.00  0.00    -0.022 C 
BRANCH  17  18
HETATM   18  C15 UNL     1       4.790  16.903  -6.169  1.00  0.00     0.008 A 
HETATM   19  C16 UNL     1       5.488  16.090  -7.211  1.00  0.00     0.009 A 
HETATM   20  C17 UNL     1       4.086  16.594  -7.460  1.00  0.00     0.009 A 
ENDBRANCH  17  18
ENDBRANCH  15  16
ENDBRANCH  12  14
ENDBRANCH  11  12
ENDBRANCH   8  11
BRANCH  10  21
HETATM   21  C19 UNL     1       8.640  25.529  -4.940  1.00  0.00     0.180 C 
HETATM   22  O3  UNL     1       9.150  26.052  -3.920  1.00  0.00    -0.648 OA
HETATM   23  O4  UNL     1       7.289  25.855  -5.176  1.00  0.00    -0.648 OA
ENDBRANCH  10  21
TORSDOF 6
ENDMDL
