MODEL 1
REMARK VINA RESULT: -7.647623109      0.000      0.000
REMARK  4 active torsions:
REMARK  status: ('A' for Active; 'I' for Inactive)
REMARK       I    between atoms: C2_2  and  N1_4 
REMARK    1  A    between atoms: N1_4  and  C3_6 
REMARK    2  A    between atoms: C5_10  and  C6_11 
REMARK    3  A    between atoms: C7_12  and  C8_13 
REMARK    4  A    between atoms: C8_13  and  C9_14 
ROOT
HETATM    1  C3  UNL     1       8.430   9.182   2.226  1.00  0.00     0.114 A 
HETATM    2  N2  UNL     1       8.666   9.282   0.876  1.00  0.00    -0.351 N 
ATOM      3  H2  UNL     1       7.936   8.991   0.226  1.00  0.00     0.166 HD
HETATM    4  C4  UNL     1       9.826   9.749   0.383  1.00  0.00     0.101 A 
HETATM    5  C5  UNL     1      10.862  10.163   1.183  1.00  0.00    -0.015 A 
HETATM    6  C10 UNL     1      10.661  10.079   2.546  1.00  0.00    -0.041 A 
HETATM    7  C11 UNL     1      11.721  10.543   3.481  1.00  0.00     0.050 C 
HETATM    8  C12 UNL     1       9.441   9.586   3.034  1.00  0.00    -0.011 A 
HETATM    9  C13 UNL     1       9.307   9.489   4.491  1.00  0.00     0.052 C 
ENDROOT
BRANCH   5  10
HETATM   10  C6  UNL     1      12.084  10.641   0.561  1.00  0.00     0.010 C 
HETATM   11  C7  UNL     1      12.290  11.875   0.156  1.00  0.00    -0.015 C 
BRANCH  11  12
HETATM   12  C8  UNL     1      13.612  12.209  -0.470  1.00  0.00     0.140 C 
BRANCH  12  13
HETATM   13  C9  UNL     1      13.741  13.675  -0.560  1.00  0.00     0.176 C 
HETATM   14  O2  UNL     1      12.794  14.401  -0.195  1.00  0.00    -0.648 OA
HETATM   15  O3  UNL     1      14.905  14.231  -1.046  1.00  0.00    -0.648 OA
ENDBRANCH  12  13
ENDBRANCH  11  12
ENDBRANCH   5  10
BRANCH   1  16
HETATM   16  N1  UNL     1       7.333   8.753   2.564  1.00  0.00    -0.313 N 
HETATM   17  C2  UNL     1       6.023   9.081   2.646  1.00  0.00     0.219 C 
HETATM   18  C1  UNL     1       5.345   9.267   3.963  1.00  0.00     0.117 C 
HETATM   19  O1  UNL     1       5.313   9.244   1.621  1.00  0.00    -0.274 OA
ATOM     20  H1  UNL     1       7.451   7.801   2.911  1.00  0.00     0.170 HD
ENDBRANCH   1  16
TORSDOF 4
ENDMDL
MODEL 2
REMARK VINA RESULT: -7.565736922      4.175      7.373
REMARK  4 active torsions:
REMARK  status: ('A' for Active; 'I' for Inactive)
REMARK       I    between atoms: C2_2  and  N1_4 
REMARK    1  A    between atoms: N1_4  and  C3_6 
REMARK    2  A    between atoms: C5_10  and  C6_11 
REMARK    3  A    between atoms: C7_12  and  C8_13 
REMARK    4  A    between atoms: C8_13  and  C9_14 
ROOT
HETATM    1  C3  UNL     1      10.609   7.716   3.299  1.00  0.00     0.114 A 
HETATM    2  N2  UNL     1       9.805   7.600   4.407  1.00  0.00    -0.351 N 
ATOM      3  H2  UNL     1      10.139   7.055   5.202  1.00  0.00     0.166 HD
HETATM    4  C4  UNL     1       8.595   8.179   4.480  1.00  0.00     0.101 A 
HETATM    5  C5  UNL     1       8.067   8.930   3.458  1.00  0.00    -0.015 A 
HETATM    6  C10 UNL     1       8.846   9.071   2.328  1.00  0.00    -0.041 A 
HETATM    7  C11 UNL     1       8.362   9.900   1.193  1.00  0.00     0.050 C 
HETATM    8  C12 UNL     1      10.105   8.454   2.278  1.00  0.00    -0.011 A 
HETATM    9  C13 UNL     1      10.867   8.612   1.035  1.00  0.00     0.052 C 
ENDROOT
BRANCH   5  10
HETATM   10  C6  UNL     1       6.744   9.508   3.621  1.00  0.00     0.010 C 
HETATM   11  C7  UNL     1       6.191   9.811   4.775  1.00  0.00    -0.015 C 
BRANCH  11  12
HETATM   12  C8  UNL     1       4.813  10.403   4.771  1.00  0.00     0.140 C 
BRANCH  12  13
HETATM   13  C9  UNL     1       3.929   9.551   3.954  1.00  0.00     0.176 C 
HETATM   14  O2  UNL     1       3.388   8.551   4.470  1.00  0.00    -0.648 OA
HETATM   15  O3  UNL     1       3.708   9.865   2.630  1.00  0.00    -0.648 OA
ENDBRANCH  12  13
ENDBRANCH  11  12
ENDBRANCH   5  10
BRANCH   1  16
HETATM   16  N1  UNL     1      11.698   7.155   3.345  1.00  0.00    -0.313 N 
HETATM   17  C2  UNL     1      12.906   7.192   3.952  1.00  0.00     0.219 C 
HETATM   18  C1  UNL     1      14.145   7.557   3.203  1.00  0.00     0.117 C 
HETATM   19  O1  UNL     1      13.047   6.920   5.171  1.00  0.00    -0.274 OA
ATOM     20  H1  UNL     1      11.689   6.377   2.685  1.00  0.00     0.170 HD
ENDBRANCH   1  16
TORSDOF 4
ENDMDL
MODEL 3
REMARK VINA RESULT: -7.430689034      3.977      7.401
REMARK  4 active torsions:
REMARK  status: ('A' for Active; 'I' for Inactive)
REMARK       I    between atoms: C2_2  and  N1_4 
REMARK    1  A    between atoms: N1_4  and  C3_6 
REMARK    2  A    between atoms: C5_10  and  C6_11 
REMARK    3  A    between atoms: C7_12  and  C8_13 
REMARK    4  A    between atoms: C8_13  and  C9_14 
ROOT
HETATM    1  C3  UNL     1      11.357   9.161   3.663  1.00  0.00     0.114 A 
HETATM    2  N2  UNL     1      10.914   9.539   4.907  1.00  0.00    -0.351 N 
ATOM      3  H2  UNL     1      11.575   9.548   5.683  1.00  0.00     0.166 HD
HETATM    4  C4  UNL     1       9.639   9.899   5.135  1.00  0.00     0.101 A 
HETATM    5  C5  UNL     1       8.683   9.917   4.150  1.00  0.00    -0.015 A 
HETATM    6  C10 UNL     1       9.091   9.545   2.886  1.00  0.00    -0.041 A 
HETATM    7  C11 UNL     1       8.125   9.575   1.756  1.00  0.00     0.050 C 
HETATM    8  C12 UNL     1      10.428   9.173   2.675  1.00  0.00    -0.011 A 
HETATM    9  C13 UNL     1      10.787   8.753   1.317  1.00  0.00     0.052 C 
ENDROOT
BRANCH   5  10
HETATM   10  C6  UNL     1       7.327  10.307   4.493  1.00  0.00     0.010 C 
HETATM   11  C7  UNL     1       6.422   9.508   5.015  1.00  0.00    -0.015 C 
BRANCH  11  12
HETATM   12  C8  UNL     1       5.063  10.067   5.312  1.00  0.00     0.140 C 
BRANCH  12  13
HETATM   13  C9  UNL     1       4.120   9.610   4.273  1.00  0.00     0.176 C 
HETATM   14  O2  UNL     1       2.913   9.918   4.358  1.00  0.00    -0.648 OA
HETATM   15  O3  UNL     1       4.578   8.847   3.221  1.00  0.00    -0.648 OA
ENDBRANCH  12  13
ENDBRANCH  11  12
ENDBRANCH   5  10
BRANCH   1  16
HETATM   16  N1  UNL     1      12.542   8.864   3.566  1.00  0.00    -0.313 N 
HETATM   17  C2  UNL     1      13.436   7.884   3.834  1.00  0.00     0.219 C 
HETATM   18  C1  UNL     1      14.500   8.060   4.866  1.00  0.00     0.117 C 
HETATM   19  O1  UNL     1      13.415   6.781   3.231  1.00  0.00    -0.274 OA
ATOM     20  H1  UNL     1      13.035   9.638   3.120  1.00  0.00     0.170 HD
ENDBRANCH   1  16
TORSDOF 4
ENDMDL
MODEL 4
REMARK VINA RESULT: -7.423421901      1.264      1.629
REMARK  4 active torsions:
REMARK  status: ('A' for Active; 'I' for Inactive)
REMARK       I    between atoms: C2_2  and  N1_4 
REMARK    1  A    between atoms: N1_4  and  C3_6 
REMARK    2  A    between atoms: C5_10  and  C6_11 
REMARK    3  A    between atoms: C7_12  and  C8_13 
REMARK    4  A    between atoms: C8_13  and  C9_14 
ROOT
HETATM    1  C3  UNL     1       7.116   9.083   2.694  1.00  0.00     0.114 A 
HETATM    2  N2  UNL     1       7.478   9.190   1.373  1.00  0.00    -0.351 N 
ATOM      3  H2  UNL     1       6.774   9.026   0.654  1.00  0.00     0.166 HD
HETATM    4  C4  UNL     1       8.729   9.505   0.996  1.00  0.00     0.101 A 
HETATM    5  C5  UNL     1       9.740   9.743   1.894  1.00  0.00    -0.015 A 
HETATM    6  C10 UNL     1       9.414   9.647   3.231  1.00  0.00    -0.041 A 
HETATM    7  C11 UNL     1      10.442   9.927   4.268  1.00  0.00     0.050 C 
HETATM    8  C12 UNL     1       8.100   9.315   3.598  1.00  0.00    -0.011 A 
HETATM    9  C13 UNL     1       7.828   9.193   5.033  1.00  0.00     0.052 C 
ENDROOT
BRANCH   5  10
HETATM   10  C6  UNL     1      11.065  10.064   1.394  1.00  0.00     0.010 C 
HETATM   11  C7  UNL     1      11.318  10.902   0.412  1.00  0.00    -0.015 C 
BRANCH  11  12
HETATM   12  C8  UNL     1      12.747  11.124   0.014  1.00  0.00     0.140 C 
BRANCH  12  13
HETATM   13  C9  UNL     1      13.103  12.531   0.274  1.00  0.00     0.176 C 
HETATM   14  O2  UNL     1      13.683  13.193  -0.611  1.00  0.00    -0.648 OA
HETATM   15  O3  UNL     1      12.793  13.103   1.489  1.00  0.00    -0.648 OA
ENDBRANCH  12  13
ENDBRANCH  11  12
ENDBRANCH   5  10
BRANCH   1  16
HETATM   16  N1  UNL     1       5.945   8.802   2.924  1.00  0.00    -0.313 N 
HETATM   17  C2  UNL     1       4.695   9.319   2.949  1.00  0.00     0.219 C 
HETATM   18  C1  UNL     1       3.954   9.507   4.231  1.00  0.00     0.117 C 
HETATM   19  O1  UNL     1       4.097   9.665   1.899  1.00  0.00    -0.274 OA
ATOM     20  H1  UNL     1       5.895   7.820   3.195  1.00  0.00     0.170 HD
ENDBRANCH   1  16
TORSDOF 4
ENDMDL
MODEL 5
REMARK VINA RESULT: -7.409459978      2.299      7.382
REMARK  4 active torsions:
REMARK  status: ('A' for Active; 'I' for Inactive)
REMARK       I    between atoms: C2_2  and  N1_4 
REMARK    1  A    between atoms: N1_4  and  C3_6 
REMARK    2  A    between atoms: C5_10  and  C6_11 
REMARK    3  A    between atoms: C7_12  and  C8_13 
REMARK    4  A    between atoms: C8_13  and  C9_14 
ROOT
HETATM    1  C3  UNL     1      10.514   9.799   1.251  1.00  0.00     0.114 A 
HETATM    2  N2  UNL     1      10.647   9.618   2.606  1.00  0.00    -0.351 N 
ATOM      3  H2  UNL     1      11.582   9.619   3.014  1.00  0.00     0.166 HD
HETATM    4  C4  UNL     1       9.588   9.438   3.413  1.00  0.00     0.101 A 
HETATM    5  C5  UNL     1       8.295   9.422   2.952  1.00  0.00    -0.015 A 
HETATM    6  C10 UNL     1       8.121   9.603   1.595  1.00  0.00    -0.041 A 
HETATM    7  C11 UNL     1       6.749   9.636   1.021  1.00  0.00     0.050 C 
HETATM    8  C12 UNL     1       9.244   9.787   0.775  1.00  0.00    -0.011 A 
HETATM    9  C13 UNL     1       8.993   9.937  -0.662  1.00  0.00     0.052 C 
ENDROOT
BRANCH   5  10
HETATM   10  C6  UNL     1       7.213   9.208   3.897  1.00  0.00     0.010 C 
HETATM   11  C7  UNL     1       6.361  10.131   4.288  1.00  0.00    -0.015 C 
BRANCH  11  12
HETATM   12  C8  UNL     1       5.298   9.747   5.274  1.00  0.00     0.140 C 
BRANCH  12  13
HETATM   13  C9  UNL     1       4.021   9.571   4.555  1.00  0.00     0.176 C 
HETATM   14  O2  UNL     1       3.008  10.192   4.939  1.00  0.00    -0.648 OA
HETATM   15  O3  UNL     1       3.957   8.725   3.470  1.00  0.00    -0.648 OA
ENDBRANCH  12  13
ENDBRANCH  11  12
ENDBRANCH   5  10
BRANCH   1  16
HETATM   16  N1  UNL     1      11.547   9.965   0.612  1.00  0.00    -0.313 N 
HETATM   17  C2  UNL     1      12.798  10.473   0.694  1.00  0.00     0.219 C 
HETATM   18  C1  UNL     1      13.200  11.686  -0.078  1.00  0.00     0.117 C 
HETATM   19  O1  UNL     1      13.682   9.952   1.421  1.00  0.00    -0.274 OA
ATOM     20  H1  UNL     1      11.415   9.578  -0.323  1.00  0.00     0.170 HD
ENDBRANCH   1  16
TORSDOF 4
ENDMDL
