MODEL 1
REMARK VINA RESULT: -6.406764794      0.000      0.000
REMARK  5 active torsions:
REMARK  status: ('A' for Active; 'I' for Inactive)
REMARK    1  A    between atoms: C2_2  and  C3_3 
REMARK    2  A    between atoms: C3_3  and  N1_4 
REMARK    3  A    between atoms: N2_7  and  C6_8 
REMARK    4  A    between atoms: N3_10  and  C7_12 
REMARK    5  A    between atoms: C7_12  and  N4_14 
ROOT
HETATM    1  C6  UNL     1       9.801   9.930   0.190  1.00  0.00     0.176 C 
HETATM    2  S1  UNL     1       8.755   9.977  -1.213  1.00  0.00    -0.041 SA
HETATM    3  N3  UNL     1      11.028  10.432  -0.064  1.00  0.00    -0.310 N 
ATOM      4  H3  UNL     1      11.062  10.734  -1.038  1.00  0.00     0.170 HD
ENDROOT
BRANCH   1   5
HETATM    5  N2  UNL     1       9.141   9.384   1.275  1.00  0.00    -0.355 N 
HETATM    6  C5  UNL     1       9.599   8.387   2.210  1.00  0.00     0.145 C 
HETATM    7  C4  UNL     1       8.477   8.128   3.245  1.00  0.00     0.141 C 
HETATM    8  N1  UNL     1       8.075   9.316   3.889  1.00  0.00    -0.390 N 
HETATM    9  C13 UNL     1       7.682  10.371   2.997  1.00  0.00     0.141 C 
HETATM   10  C12 UNL     1       7.750   9.823   1.593  1.00  0.00     0.145 C 
BRANCH   8  11
HETATM   11  C3  UNL     1       7.416   9.191   5.108  1.00  0.00     0.058 C 
BRANCH  11  12
HETATM   12  C2  UNL     1       6.654  10.337   5.657  1.00  0.00     0.040 C 
HETATM   13  C1  UNL     1       5.165  10.207   5.670  1.00  0.00     0.010 C 
ENDBRANCH  11  12
ENDBRANCH   8  11
ENDBRANCH   1   5
BRANCH   3  14
HETATM   14  C7  UNL     1      12.256  10.685   0.522  1.00  0.00     0.177 C 
HETATM   15  S2  UNL     1      13.535  11.329  -0.231  1.00  0.00    -0.041 SA
BRANCH  14  16
HETATM   16  N4  UNL     1      12.467  10.373   1.937  1.00  0.00    -0.331 N 
HETATM   17  C8  UNL     1      12.010  11.140   3.038  1.00  0.00     0.157 C 
HETATM   18  C9  UNL     1      12.232  10.261   4.239  1.00  0.00     0.294 C 
HETATM   19  N5  UNL     1      13.350   9.431   3.838  1.00  0.00     0.103 N 
HETATM   20  C10 UNL     1      13.343   8.143   4.482  1.00  0.00     0.312 C 
HETATM   21  C11 UNL     1      13.189   9.225   2.402  1.00  0.00     0.399 C 
ENDBRANCH  14  16
ENDBRANCH   3  14
TORSDOF 5
ENDMDL
MODEL 2
REMARK VINA RESULT: -6.328854134      3.132      4.022
REMARK  5 active torsions:
REMARK  status: ('A' for Active; 'I' for Inactive)
REMARK    1  A    between atoms: C2_2  and  C3_3 
REMARK    2  A    between atoms: C3_3  and  N1_4 
REMARK    3  A    between atoms: N2_7  and  C6_8 
REMARK    4  A    between atoms: N3_10  and  C7_12 
REMARK    5  A    between atoms: C7_12  and  N4_14 
ROOT
HETATM    1  C6  UNL     1      11.469   7.974   2.726  1.00  0.00     0.176 C 
HETATM    2  S1  UNL     1      10.479   7.869   1.285  1.00  0.00    -0.041 SA
HETATM    3  N3  UNL     1      12.732   7.548   2.516  1.00  0.00    -0.310 N 
ATOM      4  H3  UNL     1      12.822   7.259   1.542  1.00  0.00     0.170 HD
ENDROOT
BRANCH   1   5
HETATM    5  N2  UNL     1      10.740   8.480   3.785  1.00  0.00    -0.355 N 
HETATM    6  C5  UNL     1      10.981   9.664   4.572  1.00  0.00     0.145 C 
HETATM    7  C4  UNL     1       9.864   9.786   5.637  1.00  0.00     0.141 C 
HETATM    8  N1  UNL     1       8.582   9.791   5.051  1.00  0.00    -0.390 N 
HETATM    9  C13 UNL     1       8.317   8.669   4.193  1.00  0.00     0.141 C 
HETATM   10  C12 UNL     1       9.520   7.760   4.257  1.00  0.00     0.145 C 
BRANCH   8  11
HETATM   11  C3  UNL     1       7.537  10.317   5.803  1.00  0.00     0.058 C 
BRANCH  11  12
HETATM   12  C2  UNL     1       6.282  10.735   5.135  1.00  0.00     0.040 C 
HETATM   13  C1  UNL     1       5.008  10.219   5.721  1.00  0.00     0.010 C 
ENDBRANCH  11  12
ENDBRANCH   8  11
ENDBRANCH   1   5
BRANCH   3  14
HETATM   14  C7  UNL     1      13.950   7.362   3.147  1.00  0.00     0.177 C 
HETATM   15  S2  UNL     1      14.145   6.983   4.708  1.00  0.00    -0.041 SA
BRANCH  14  16
HETATM   16  N4  UNL     1      15.194   7.498   2.387  1.00  0.00    -0.331 N 
HETATM   17  C8  UNL     1      16.496   7.628   2.933  1.00  0.00     0.157 C 
HETATM   18  C9  UNL     1      17.425   7.447   1.764  1.00  0.00     0.294 C 
HETATM   19  N5  UNL     1      16.631   7.898   0.639  1.00  0.00     0.103 N 
HETATM   20  C10 UNL     1      17.001   7.254  -0.595  1.00  0.00     0.312 C 
HETATM   21  C11 UNL     1      15.256   7.523   0.956  1.00  0.00     0.399 C 
ENDBRANCH  14  16
ENDBRANCH   3  14
TORSDOF 5
ENDMDL
MODEL 3
REMARK VINA RESULT: -6.328366285      2.493      4.003
REMARK  5 active torsions:
REMARK  status: ('A' for Active; 'I' for Inactive)
REMARK    1  A    between atoms: C2_2  and  C3_3 
REMARK    2  A    between atoms: C3_3  and  N1_4 
REMARK    3  A    between atoms: N2_7  and  C6_8 
REMARK    4  A    between atoms: N3_10  and  C7_12 
REMARK    5  A    between atoms: C7_12  and  N4_14 
ROOT
HETATM    1  C6  UNL     1      11.511  10.195   3.525  1.00  0.00     0.176 C 
HETATM    2  S1  UNL     1      12.625   9.852   4.832  1.00  0.00    -0.041 SA
HETATM    3  N3  UNL     1      12.145  10.474   2.367  1.00  0.00    -0.310 N 
ATOM      4  H3  UNL     1      13.152  10.416   2.523  1.00  0.00     0.170 HD
ENDROOT
BRANCH   1   5
HETATM    5  N2  UNL     1      10.203  10.103   3.960  1.00  0.00    -0.355 N 
HETATM    6  C5  UNL     1       9.476  10.977   4.848  1.00  0.00     0.145 C 
HETATM    7  C4  UNL     1       8.036  10.432   5.008  1.00  0.00     0.141 C 
HETATM    8  N1  UNL     1       7.391  10.284   3.764  1.00  0.00    -0.390 N 
HETATM    9  C13 UNL     1       8.112   9.484   2.813  1.00  0.00     0.141 C 
HETATM   10  C12 UNL     1       9.348   8.966   3.506  1.00  0.00     0.145 C 
BRANCH   8  11
HETATM   11  C3  UNL     1       6.001  10.227   3.767  1.00  0.00     0.058 C 
BRANCH  11  12
HETATM   12  C2  UNL     1       5.249  10.602   4.988  1.00  0.00     0.040 C 
HETATM   13  C1  UNL     1       3.984   9.852   5.250  1.00  0.00     0.010 C 
ENDBRANCH  11  12
ENDBRANCH   8  11
ENDBRANCH   1   5
BRANCH   3  14
HETATM   14  C7  UNL     1      11.921  10.810   1.044  1.00  0.00     0.177 C 
HETATM   15  S2  UNL     1      10.651  10.335   0.161  1.00  0.00    -0.041 SA
BRANCH  14  16
HETATM   16  N4  UNL     1      12.872  11.670   0.337  1.00  0.00    -0.331 N 
HETATM   17  C8  UNL     1      14.038  11.242  -0.345  1.00  0.00     0.157 C 
HETATM   18  C9  UNL     1      14.495  12.446  -1.123  1.00  0.00     0.294 C 
HETATM   19  N5  UNL     1      14.004  13.556  -0.331  1.00  0.00     0.103 N 
HETATM   20  C10 UNL     1      13.733  14.727  -1.124  1.00  0.00     0.312 C 
HETATM   21  C11 UNL     1      12.746  13.095   0.248  1.00  0.00     0.399 C 
ENDBRANCH  14  16
ENDBRANCH   3  14
TORSDOF 5
ENDMDL
MODEL 4
REMARK VINA RESULT: -6.292537933      2.561      3.914
REMARK  5 active torsions:
REMARK  status: ('A' for Active; 'I' for Inactive)
REMARK    1  A    between atoms: C2_2  and  C3_3 
REMARK    2  A    between atoms: C3_3  and  N1_4 
REMARK    3  A    between atoms: N2_7  and  C6_8 
REMARK    4  A    between atoms: N3_10  and  C7_12 
REMARK    5  A    between atoms: C7_12  and  N4_14 
ROOT
HETATM    1  C6  UNL     1      12.724   9.579   4.283  1.00  0.00     0.176 C 
HETATM    2  S1  UNL     1      13.189   9.739   5.963  1.00  0.00    -0.041 SA
HETATM    3  N3  UNL     1      13.776   9.684   3.445  1.00  0.00    -0.310 N 
ATOM      4  H3  UNL     1      14.621   9.834   3.997  1.00  0.00     0.170 HD
ENDROOT
BRANCH   1   5
HETATM    5  N2  UNL     1      11.363   9.371   4.169  1.00  0.00    -0.355 N 
HETATM    6  C5  UNL     1      10.643   8.134   3.993  1.00  0.00     0.145 C 
HETATM    7  C4  UNL     1       9.128   8.449   3.928  1.00  0.00     0.141 C 
HETATM    8  N1  UNL     1       8.692   9.159   5.065  1.00  0.00    -0.390 N 
HETATM    9  C13 UNL     1       9.430  10.364   5.331  1.00  0.00     0.141 C 
HETATM   10  C12 UNL     1      10.429  10.535   4.214  1.00  0.00     0.145 C 
BRANCH   8  11
HETATM   11  C3  UNL     1       7.332   9.132   5.353  1.00  0.00     0.058 C 
BRANCH  11  12
HETATM   12  C2  UNL     1       6.614  10.394   5.650  1.00  0.00     0.040 C 
HETATM   13  C1  UNL     1       5.122  10.318   5.704  1.00  0.00     0.010 C 
ENDBRANCH  11  12
ENDBRANCH   8  11
ENDBRANCH   1   5
BRANCH   3  14
HETATM   14  C7  UNL     1      14.122   9.663   2.105  1.00  0.00     0.177 C 
HETATM   15  S2  UNL     1      14.782   8.405   1.330  1.00  0.00    -0.041 SA
BRANCH  14  16
HETATM   16  N4  UNL     1      13.885  10.843   1.270  1.00  0.00    -0.331 N 
HETATM   17  C8  UNL     1      12.858  11.802   1.453  1.00  0.00     0.157 C 
HETATM   18  C9  UNL     1      13.219  12.935   0.533  1.00  0.00     0.294 C 
HETATM   19  N5  UNL     1      13.964  12.278  -0.523  1.00  0.00     0.103 N 
HETATM   20  C10 UNL     1      14.933  13.146  -1.142  1.00  0.00     0.312 C 
HETATM   21  C11 UNL     1      14.680  11.184   0.128  1.00  0.00     0.399 C 
ENDBRANCH  14  16
ENDBRANCH   3  14
TORSDOF 5
ENDMDL
MODEL 5
REMARK VINA RESULT: -6.268139254      1.634      2.173
REMARK  5 active torsions:
REMARK  status: ('A' for Active; 'I' for Inactive)
REMARK    1  A    between atoms: C2_2  and  C3_3 
REMARK    2  A    between atoms: C3_3  and  N1_4 
REMARK    3  A    between atoms: N2_7  and  C6_8 
REMARK    4  A    between atoms: N3_10  and  C7_12 
REMARK    5  A    between atoms: C7_12  and  N4_14 
ROOT
HETATM    1  C6  UNL     1      10.555   9.545   1.122  1.00  0.00     0.176 C 
HETATM    2  S1  UNL     1       9.391   9.439  -0.182  1.00  0.00    -0.041 SA
HETATM    3  N3  UNL     1      11.829   9.543   0.676  1.00  0.00    -0.310 N 
ATOM      4  H3  UNL     1      11.819   9.482  -0.342  1.00  0.00     0.170 HD
ENDROOT
BRANCH   1   5
HETATM    5  N2  UNL     1       9.915   9.611   2.345  1.00  0.00    -0.355 N 
HETATM    6  C5  UNL     1      10.250  10.402   3.504  1.00  0.00     0.145 C 
HETATM    7  C4  UNL     1       9.211  10.115   4.615  1.00  0.00     0.141 C 
HETATM    8  N1  UNL     1       7.894  10.354   4.172  1.00  0.00    -0.390 N 
HETATM    9  C13 UNL     1       7.533   9.648   2.973  1.00  0.00     0.141 C 
HETATM   10  C12 UNL     1       8.704   8.775   2.596  1.00  0.00     0.145 C 
BRANCH   8  11
HETATM   11  C3  UNL     1       6.920  10.559   5.144  1.00  0.00     0.058 C 
BRANCH  11  12
HETATM   12  C2  UNL     1       5.509  10.774   4.744  1.00  0.00     0.040 C 
HETATM   13  C1  UNL     1       4.467  10.123   5.594  1.00  0.00     0.010 C 
ENDBRANCH  11  12
ENDBRANCH   8  11
ENDBRANCH   1   5
BRANCH   3  14
HETATM   14  C7  UNL     1      13.143   9.594   1.105  1.00  0.00     0.177 C 
HETATM   15  S2  UNL     1      14.172  10.811   0.821  1.00  0.00    -0.041 SA
BRANCH  14  16
HETATM   16  N4  UNL     1      13.699   8.490   1.890  1.00  0.00    -0.331 N 
HETATM   17  C8  UNL     1      14.697   7.580   1.460  1.00  0.00     0.157 C 
HETATM   18  C9  UNL     1      15.110   6.844   2.706  1.00  0.00     0.294 C 
HETATM   19  N5  UNL     1      13.919   6.895   3.529  1.00  0.00     0.103 N 
HETATM   20  C10 UNL     1      14.217   6.860   4.939  1.00  0.00     0.312 C 
HETATM   21  C11 UNL     1      13.290   8.177   3.228  1.00  0.00     0.399 C 
ENDBRANCH  14  16
ENDBRANCH   3  14
TORSDOF 5
ENDMDL
