MODEL 1
REMARK VINA RESULT: -7.333843447      0.000      0.000
REMARK  10 active torsions:
REMARK  status: ('A' for Active; 'I' for Inactive)
REMARK    1  A    between atoms: C3_4  and  S1_5 
REMARK    2  A    between atoms: S1_5  and  C4_6 
REMARK    3  A    between atoms: C4_6  and  C5_7 
REMARK    4  A    between atoms: C5_7  and  C6_8 
REMARK    5  A    between atoms: C6_8  and  C7_9 
REMARK    6  A    between atoms: C7_9  and  C8_10 
REMARK    7  A    between atoms: C8_10  and  C9_11 
REMARK    8  A    between atoms: C9_11  and  C10_12 
REMARK    9  A    between atoms: C14_18  and  N3_19 
REMARK   10  A    between atoms: C15_24  and  N5_25 
ROOT
HETATM    1  N1  UNL     1     183.674 130.218  27.357  1.00  0.00    -0.191 NA
HETATM    2  C1  UNL     1     184.764 130.483  27.074  1.00  0.00     0.106 C 
HETATM    3  C2  UNL     1     186.123 130.797  26.742  1.00  0.00     0.122 A 
HETATM    4  C3  UNL     1     187.163 130.199  27.422  1.00  0.00     0.110 A 
HETATM    5  N2  UNL     1     188.406 130.547  27.053  1.00  0.00    -0.184 N 
ATOM      6  H2  UNL     1     189.196 130.121  27.538  1.00  0.00     0.185 HD
HETATM    7  C14 UNL     1     188.654 131.432  26.068  1.00  0.00     0.678 A 
HETATM    8  N4  UNL     1     187.659 132.030  25.390  1.00  0.00    -0.176 N 
ATOM      9  H4  UNL     1     187.849 132.701  24.646  1.00  0.00     0.186 HD
HETATM   10  C15 UNL     1     186.383 131.699  25.741  1.00  0.00     0.138 A 
ENDROOT
BRANCH   4  11
HETATM   11  S1  UNL     1     186.921 129.023  28.730  1.00  0.00    -0.110 SA
BRANCH  11  12
HETATM   12  C4  UNL     1     186.617 129.780  30.323  1.00  0.00     0.081 C 
BRANCH  12  13
HETATM   13  C5  UNL     1     185.927 128.858  31.297  1.00  0.00     0.010 C 
BRANCH  13  14
HETATM   14  C6  UNL     1     186.855 128.002  32.074  1.00  0.00     0.001 C 
BRANCH  14  15
HETATM   15  C7  UNL     1     186.212 127.248  33.207  1.00  0.00     0.000 C 
BRANCH  15  16
HETATM   16  C8  UNL     1     186.572 125.776  33.190  1.00  0.00     0.000 C 
BRANCH  16  17
HETATM   17  C9  UNL     1     187.614 125.583  32.137  1.00  0.00     0.004 C 
BRANCH  17  18
HETATM   18  C10 UNL     1     187.317 124.500  31.165  1.00  0.00    -0.014 C 
HETATM   19  C11 UNL     1     186.472 124.921  29.967  1.00  0.00     0.004 C 
HETATM   20  C12 UNL     1     185.880 123.506  30.014  1.00  0.00     0.001 C 
HETATM   21  C13 UNL     1     186.265 123.501  31.498  1.00  0.00     0.004 C 
ENDBRANCH  17  18
ENDBRANCH  16  17
ENDBRANCH  15  16
ENDBRANCH  14  15
ENDBRANCH  13  14
ENDBRANCH  12  13
ENDBRANCH  11  12
ENDBRANCH   4  11
BRANCH  10  22
HETATM   22  N5  UNL     1     185.454 132.294  25.068  1.00  0.00    -0.384 N 
ATOM     23  H52 UNL     1     185.701 133.213  24.702  1.00  0.00     0.157 HD
ATOM     24  H51 UNL     1     184.534 131.884  24.906  1.00  0.00     0.157 HD
ENDBRANCH  10  22
BRANCH   7  25
HETATM   25  N3  UNL     1     189.876 131.736  25.748  1.00  0.00    -0.234 N 
ATOM     26  H32 UNL     1     190.214 131.449  24.829  1.00  0.00     0.174 HD
ATOM     27  H31 UNL     1     190.470 132.247  26.401  1.00  0.00     0.174 HD
ENDBRANCH   7  25
TORSDOF 10
ENDMDL
MODEL 2
REMARK VINA RESULT: -7.246285279      0.970      1.334
REMARK  10 active torsions:
REMARK  status: ('A' for Active; 'I' for Inactive)
REMARK    1  A    between atoms: C3_4  and  S1_5 
REMARK    2  A    between atoms: S1_5  and  C4_6 
REMARK    3  A    between atoms: C4_6  and  C5_7 
REMARK    4  A    between atoms: C5_7  and  C6_8 
REMARK    5  A    between atoms: C6_8  and  C7_9 
REMARK    6  A    between atoms: C7_9  and  C8_10 
REMARK    7  A    between atoms: C8_10  and  C9_11 
REMARK    8  A    between atoms: C9_11  and  C10_12 
REMARK    9  A    between atoms: C14_18  and  N3_19 
REMARK   10  A    between atoms: C15_24  and  N5_25 
ROOT
HETATM    1  N1  UNL     1     183.539 129.948  27.306  1.00  0.00    -0.191 NA
HETATM    2  C1  UNL     1     184.617 130.260  27.026  1.00  0.00     0.106 C 
HETATM    3  C2  UNL     1     185.963 130.629  26.693  1.00  0.00     0.122 A 
HETATM    4  C3  UNL     1     187.023 129.869  27.135  1.00  0.00     0.110 A 
HETATM    5  N2  UNL     1     188.252 130.280  26.781  1.00  0.00    -0.184 N 
ATOM      6  H2  UNL     1     189.057 129.738  27.093  1.00  0.00     0.185 HD
HETATM    7  C14 UNL     1     188.464 131.379  26.031  1.00  0.00     0.678 A 
HETATM    8  N4  UNL     1     187.448 132.139  25.587  1.00  0.00    -0.176 N 
ATOM      9  H4  UNL     1     187.612 132.971  25.020  1.00  0.00     0.186 HD
HETATM   10  C15 UNL     1     186.187 131.748  25.930  1.00  0.00     0.138 A 
ENDROOT
BRANCH   4  11
HETATM   11  S1  UNL     1     186.828 128.409  28.126  1.00  0.00    -0.110 SA
BRANCH  11  12
HETATM   12  C4  UNL     1     187.306 128.637  29.835  1.00  0.00     0.081 C 
BRANCH  12  13
HETATM   13  C5  UNL     1     186.167 128.441  30.803  1.00  0.00     0.010 C 
BRANCH  13  14
HETATM   14  C6  UNL     1     186.399 127.362  31.793  1.00  0.00     0.001 C 
BRANCH  14  15
HETATM   15  C7  UNL     1     186.921 126.077  31.209  1.00  0.00     0.000 C 
BRANCH  15  16
HETATM   16  C8  UNL     1     186.640 124.887  32.104  1.00  0.00     0.000 C 
BRANCH  16  17
HETATM   17  C9  UNL     1     187.177 123.675  31.417  1.00  0.00     0.004 C 
BRANCH  17  18
HETATM   18  C10 UNL     1     186.188 122.583  31.225  1.00  0.00    -0.014 C 
HETATM   19  C11 UNL     1     185.164 122.827  30.121  1.00  0.00     0.004 C 
HETATM   20  C12 UNL     1     184.179 122.041  30.998  1.00  0.00     0.001 C 
HETATM   21  C13 UNL     1     185.057 122.459  32.184  1.00  0.00     0.004 C 
ENDBRANCH  17  18
ENDBRANCH  16  17
ENDBRANCH  15  16
ENDBRANCH  14  15
ENDBRANCH  13  14
ENDBRANCH  12  13
ENDBRANCH  11  12
ENDBRANCH   4  11
BRANCH  10  22
HETATM   22  N5  UNL     1     185.236 132.502  25.486  1.00  0.00    -0.384 N 
ATOM     23  H52 UNL     1     184.857 133.167  26.160  1.00  0.00     0.157 HD
ATOM     24  H51 UNL     1     184.880 132.447  24.532  1.00  0.00     0.157 HD
ENDBRANCH  10  22
BRANCH   7  25
HETATM   25  N3  UNL     1     189.673 131.737  25.715  1.00  0.00    -0.234 N 
ATOM     26  H32 UNL     1     190.448 131.240  26.155  1.00  0.00     0.174 HD
ATOM     27  H31 UNL     1     189.831 132.491  25.047  1.00  0.00     0.174 HD
ENDBRANCH   7  25
TORSDOF 10
ENDMDL
MODEL 3
REMARK VINA RESULT: -7.214256288      1.617      2.567
REMARK  10 active torsions:
REMARK  status: ('A' for Active; 'I' for Inactive)
REMARK    1  A    between atoms: C3_4  and  S1_5 
REMARK    2  A    between atoms: S1_5  and  C4_6 
REMARK    3  A    between atoms: C4_6  and  C5_7 
REMARK    4  A    between atoms: C5_7  and  C6_8 
REMARK    5  A    between atoms: C6_8  and  C7_9 
REMARK    6  A    between atoms: C7_9  and  C8_10 
REMARK    7  A    between atoms: C8_10  and  C9_11 
REMARK    8  A    between atoms: C9_11  and  C10_12 
REMARK    9  A    between atoms: C14_18  and  N3_19 
REMARK   10  A    between atoms: C15_24  and  N5_25 
ROOT
HETATM    1  N1  UNL     1     188.465 127.224  28.459  1.00  0.00    -0.191 NA
HETATM    2  C1  UNL     1     188.010 128.212  28.065  1.00  0.00     0.106 C 
HETATM    3  C2  UNL     1     187.444 129.445  27.599  1.00  0.00     0.122 A 
HETATM    4  C3  UNL     1     187.089 130.431  28.495  1.00  0.00     0.110 A 
HETATM    5  N2  UNL     1     186.564 131.555  27.980  1.00  0.00    -0.184 N 
ATOM      6  H2  UNL     1     186.291 132.303  28.618  1.00  0.00     0.185 HD
HETATM    7  C14 UNL     1     186.384 131.736  26.658  1.00  0.00     0.678 A 
HETATM    8  N4  UNL     1     186.721 130.791  25.763  1.00  0.00    -0.176 N 
ATOM      9  H4  UNL     1     186.582 130.931  24.762  1.00  0.00     0.186 HD
HETATM   10  C15 UNL     1     187.256 129.636  26.253  1.00  0.00     0.138 A 
ENDROOT
BRANCH   4  11
HETATM   11  S1  UNL     1     187.294 130.270  30.251  1.00  0.00    -0.110 SA
BRANCH  11  12
HETATM   12  C4  UNL     1     185.950 129.399  31.050  1.00  0.00     0.081 C 
BRANCH  12  13
HETATM   13  C5  UNL     1     186.214 127.925  31.219  1.00  0.00     0.010 C 
BRANCH  13  14
HETATM   14  C6  UNL     1     186.214 127.474  32.632  1.00  0.00     0.001 C 
BRANCH  14  15
HETATM   15  C7  UNL     1     186.634 126.042  32.832  1.00  0.00     0.000 C 
BRANCH  15  16
HETATM   16  C8  UNL     1     186.720 125.284  31.522  1.00  0.00     0.000 C 
BRANCH  16  17
HETATM   17  C9  UNL     1     187.205 123.906  31.834  1.00  0.00     0.004 C 
BRANCH  17  18
HETATM   18  C10 UNL     1     186.338 122.815  31.321  1.00  0.00    -0.014 C 
HETATM   19  C11 UNL     1     185.463 123.192  30.129  1.00  0.00     0.004 C 
HETATM   20  C12 UNL     1     184.428 122.217  30.709  1.00  0.00     0.001 C 
HETATM   21  C13 UNL     1     185.097 122.470  32.066  1.00  0.00     0.004 C 
ENDBRANCH  17  18
ENDBRANCH  16  17
ENDBRANCH  15  16
ENDBRANCH  14  15
ENDBRANCH  13  14
ENDBRANCH  12  13
ENDBRANCH  11  12
ENDBRANCH   4  11
BRANCH  10  22
HETATM   22  N5  UNL     1     187.567 128.752  25.364  1.00  0.00    -0.384 N 
ATOM     23  H52 UNL     1     187.257 127.802  25.568  1.00  0.00     0.157 HD
ATOM     24  H51 UNL     1     188.085 128.974  24.514  1.00  0.00     0.157 HD
ENDBRANCH  10  22
BRANCH   7  25
HETATM   25  N3  UNL     1     185.872 132.843  26.209  1.00  0.00    -0.234 N 
ATOM     26  H32 UNL     1     186.380 133.710  26.384  1.00  0.00     0.174 HD
ATOM     27  H31 UNL     1     184.990 132.834  25.697  1.00  0.00     0.174 HD
ENDBRANCH   7  25
TORSDOF 10
ENDMDL
MODEL 4
REMARK VINA RESULT: -7.205616030      1.541      3.066
REMARK  10 active torsions:
REMARK  status: ('A' for Active; 'I' for Inactive)
REMARK    1  A    between atoms: C3_4  and  S1_5 
REMARK    2  A    between atoms: S1_5  and  C4_6 
REMARK    3  A    between atoms: C4_6  and  C5_7 
REMARK    4  A    between atoms: C5_7  and  C6_8 
REMARK    5  A    between atoms: C6_8  and  C7_9 
REMARK    6  A    between atoms: C7_9  and  C8_10 
REMARK    7  A    between atoms: C8_10  and  C9_11 
REMARK    8  A    between atoms: C9_11  and  C10_12 
REMARK    9  A    between atoms: C14_18  and  N3_19 
REMARK   10  A    between atoms: C15_24  and  N5_25 
ROOT
HETATM    1  N1  UNL     1     189.888 129.741  28.738  1.00  0.00    -0.191 NA
HETATM    2  C1  UNL     1     189.021 130.219  28.138  1.00  0.00     0.106 C 
HETATM    3  C2  UNL     1     187.932 130.801  27.409  1.00  0.00     0.122 A 
HETATM    4  C3  UNL     1     186.636 130.645  27.851  1.00  0.00     0.110 A 
HETATM    5  N2  UNL     1     185.672 131.220  27.113  1.00  0.00    -0.184 N 
ATOM      6  H2  UNL     1     184.702 131.122  27.414  1.00  0.00     0.185 HD
HETATM    7  C14 UNL     1     185.932 131.921  25.993  1.00  0.00     0.678 A 
HETATM    8  N4  UNL     1     187.187 132.088  25.540  1.00  0.00    -0.176 N 
ATOM      9  H4  UNL     1     187.380 132.619  24.690  1.00  0.00     0.186 HD
HETATM   10  C15 UNL     1     188.189 131.516  26.266  1.00  0.00     0.138 A 
ENDROOT
BRANCH   4  11
HETATM   11  S1  UNL     1     186.210 129.737  29.316  1.00  0.00    -0.110 SA
BRANCH  11  12
HETATM   12  C4  UNL     1     186.171 127.965  29.071  1.00  0.00     0.081 C 
BRANCH  12  13
HETATM   13  C5  UNL     1     186.574 127.187  30.298  1.00  0.00     0.010 C 
BRANCH  13  14
HETATM   14  C6  UNL     1     186.632 125.720  30.086  1.00  0.00     0.001 C 
BRANCH  14  15
HETATM   15  C7  UNL     1     187.648 125.004  30.936  1.00  0.00     0.000 C 
BRANCH  15  16
HETATM   16  C8  UNL     1     186.997 124.179  32.028  1.00  0.00     0.000 C 
BRANCH  16  17
HETATM   17  C9  UNL     1     187.256 122.742  31.716  1.00  0.00     0.004 C 
BRANCH  17  18
HETATM   18  C10 UNL     1     186.034 121.934  31.464  1.00  0.00    -0.014 C 
HETATM   19  C11 UNL     1     185.307 122.254  30.161  1.00  0.00     0.004 C 
HETATM   20  C12 UNL     1     184.015 121.912  30.917  1.00  0.00     0.001 C 
HETATM   21  C13 UNL     1     184.783 122.273  32.194  1.00  0.00     0.004 C 
ENDBRANCH  17  18
ENDBRANCH  16  17
ENDBRANCH  15  16
ENDBRANCH  14  15
ENDBRANCH  13  14
ENDBRANCH  12  13
ENDBRANCH  11  12
ENDBRANCH   4  11
BRANCH  10  22
HETATM   22  N5  UNL     1     189.380 131.698  25.800  1.00  0.00    -0.384 N 
ATOM     23  H52 UNL     1     189.767 130.913  25.275  1.00  0.00     0.157 HD
ATOM     24  H51 UNL     1     189.908 132.559  25.940  1.00  0.00     0.157 HD
ENDBRANCH  10  22
BRANCH   7  25
HETATM   25  N3  UNL     1     184.964 132.459  25.313  1.00  0.00    -0.234 N 
ATOM     26  H32 UNL     1     184.882 133.476  25.321  1.00  0.00     0.174 HD
ATOM     27  H31 UNL     1     184.313 131.874  24.790  1.00  0.00     0.174 HD
ENDBRANCH   7  25
TORSDOF 10
ENDMDL
MODEL 5
REMARK VINA RESULT: -7.173829554      1.036      2.507
REMARK  10 active torsions:
REMARK  status: ('A' for Active; 'I' for Inactive)
REMARK    1  A    between atoms: C3_4  and  S1_5 
REMARK    2  A    between atoms: S1_5  and  C4_6 
REMARK    3  A    between atoms: C4_6  and  C5_7 
REMARK    4  A    between atoms: C5_7  and  C6_8 
REMARK    5  A    between atoms: C6_8  and  C7_9 
REMARK    6  A    between atoms: C7_9  and  C8_10 
REMARK    7  A    between atoms: C8_10  and  C9_11 
REMARK    8  A    between atoms: C9_11  and  C10_12 
REMARK    9  A    between atoms: C14_18  and  N3_19 
REMARK   10  A    between atoms: C15_24  and  N5_25 
ROOT
HETATM    1  N1  UNL     1     189.873 129.673  28.590  1.00  0.00    -0.191 NA
HETATM    2  C1  UNL     1     189.002 130.166  28.008  1.00  0.00     0.106 C 
HETATM    3  C2  UNL     1     187.908 130.763  27.300  1.00  0.00     0.122 A 
HETATM    4  C3  UNL     1     186.608 130.455  27.640  1.00  0.00     0.110 A 
HETATM    5  N2  UNL     1     185.639 131.055  26.929  1.00  0.00    -0.184 N 
ATOM      6  H2  UNL     1     184.666 130.848  27.156  1.00  0.00     0.185 HD
HETATM    7  C14 UNL     1     185.898 131.921  25.930  1.00  0.00     0.678 A 
HETATM    8  N4  UNL     1     187.156 132.238  25.578  1.00  0.00    -0.176 N 
ATOM      9  H4  UNL     1     187.348 132.893  24.820  1.00  0.00     0.186 HD
HETATM   10  C15 UNL     1     188.163 131.645  26.280  1.00  0.00     0.138 A 
ENDROOT
BRANCH   4  11
HETATM   11  S1  UNL     1     186.183 129.326  28.942  1.00  0.00    -0.110 SA
BRANCH  11  12
HETATM   12  C4  UNL     1     186.365 130.025  30.580  1.00  0.00     0.081 C 
BRANCH  12  13
HETATM   13  C5  UNL     1     185.843 129.126  31.671  1.00  0.00     0.010 C 
BRANCH  13  14
HETATM   14  C6  UNL     1     186.376 127.743  31.616  1.00  0.00     0.001 C 
BRANCH  14  15
HETATM   15  C7  UNL     1     186.336 127.004  32.927  1.00  0.00     0.000 C 
BRANCH  15  16
HETATM   16  C8  UNL     1     186.730 125.549  32.774  1.00  0.00     0.000 C 
BRANCH  16  17
HETATM   17  C9  UNL     1     186.976 125.303  31.322  1.00  0.00     0.004 C 
BRANCH  17  18
HETATM   18  C10 UNL     1     186.748 123.902  30.884  1.00  0.00    -0.014 C 
HETATM   19  C11 UNL     1     185.727 123.734  29.763  1.00  0.00     0.004 C 
HETATM   20  C12 UNL     1     185.366 122.398  30.427  1.00  0.00     0.001 C 
HETATM   21  C13 UNL     1     185.902 123.013  31.726  1.00  0.00     0.004 C 
ENDBRANCH  17  18
ENDBRANCH  16  17
ENDBRANCH  15  16
ENDBRANCH  14  15
ENDBRANCH  13  14
ENDBRANCH  12  13
ENDBRANCH  11  12
ENDBRANCH   4  11
BRANCH  10  22
HETATM   22  N5  UNL     1     189.358 131.974  25.914  1.00  0.00    -0.384 N 
ATOM     23  H52 UNL     1     189.784 132.732  26.447  1.00  0.00     0.157 HD
ATOM     24  H51 UNL     1     189.852 131.516  25.148  1.00  0.00     0.157 HD
ENDBRANCH  10  22
BRANCH   7  25
HETATM   25  N3  UNL     1     184.924 132.476  25.271  1.00  0.00    -0.234 N 
ATOM     26  H32 UNL     1     184.179 132.922  25.806  1.00  0.00     0.174 HD
ATOM     27  H31 UNL     1     184.916 132.461  24.251  1.00  0.00     0.174 HD
ENDBRANCH   7  25
TORSDOF 10
ENDMDL
