MODEL 1
REMARK VINA RESULT: -7.361881520      0.000      0.000
REMARK  11 active torsions:
REMARK  status: ('A' for Active; 'I' for Inactive)
REMARK    1  A    between atoms: C2_2  and  N1_3 
REMARK    2  A    between atoms: N1_3  and  C3_4 
REMARK       I    between atoms: N1_3  and  C5_6 
REMARK    3  A    between atoms: C5_6  and  C6_8 
REMARK    4  A    between atoms: C7_11  and  C8_12 
REMARK    5  A    between atoms: C9_15  and  N4_16 
REMARK       I    between atoms: N4_16  and  C10_18 
REMARK    6  A    between atoms: C10_18  and  C11_20 
REMARK    7  A    between atoms: C15_25  and  C16_26 
REMARK    8  A    between atoms: C20_30  and  C21_31 
REMARK    9  A    between atoms: C21_31  and  N5_32 
REMARK   10  A    between atoms: C21_31  and  C26_40 
REMARK       I    between atoms: N5_32  and  C22_33 
REMARK       I    between atoms: C22_33  and  N6_35 
REMARK   11  A    between atoms: N6_35  and  C23_37 
ROOT
HETATM    1  C8  UNL     1     -13.110  10.437  32.066  1.00  0.00     0.092 A 
HETATM    2  N3  UNL     1     -13.203  10.899  33.377  1.00  0.00    -0.338 N 
ATOM      3  H3  UNL     1     -13.425  10.277  34.154  1.00  0.00     0.167 HD
HETATM    4  C9  UNL     1     -12.993  12.169  33.550  1.00  0.00     0.108 A 
HETATM    5  C19 UNL     1     -12.677  13.067  32.518  1.00  0.00     0.059 A 
HETATM    6  C20 UNL     1     -12.580  12.623  31.241  1.00  0.00    -0.010 A 
HETATM    7  C29 UNL     1     -12.806  11.285  31.032  1.00  0.00    -0.021 A 
HETATM    8  C30 UNL     1     -12.654  10.662  29.673  1.00  0.00     0.051 C 
ENDROOT
BRANCH   1   9
HETATM    9  C7  UNL     1     -13.304   8.995  31.823  1.00  0.00     0.176 A 
HETATM   10  N2  UNL     1     -14.471   8.363  31.794  1.00  0.00    -0.328 N 
HETATM   11  C6  UNL     1     -14.283   7.084  31.510  1.00  0.00     0.133 A 
ATOM     12  H2  UNL     1     -15.377   8.798  31.967  1.00  0.00     0.168 HD
HETATM   13  C31 UNL     1     -12.913   6.915  31.345  1.00  0.00     0.084 A 
HETATM   14  O5  UNL     1     -12.396   8.120  31.561  1.00  0.00    -0.294 OA
HETATM   15  C32 UNL     1     -12.065   5.759  30.997  1.00  0.00     0.079 C 
BRANCH  11  16
HETATM   16  C5  UNL     1     -15.214   5.985  31.495  1.00  0.00     0.276 C 
HETATM   17  N1  UNL     1     -15.647   5.389  32.744  1.00  0.00    -0.327 N 
HETATM   18  O1  UNL     1     -15.697   5.469  30.477  1.00  0.00    -0.265 OA
BRANCH  17  19
HETATM   19  C2  UNL     1     -16.608   4.274  32.618  1.00  0.00     0.127 C 
HETATM   20  C1  UNL     1     -17.840   4.711  33.438  1.00  0.00     0.027 C 
ENDBRANCH  17  19
BRANCH  17  21
HETATM   21  C3  UNL     1     -15.211   5.761  34.018  1.00  0.00     0.063 C 
HETATM   22  C4  UNL     1     -14.101   4.920  34.539  1.00  0.00     0.055 C 
ENDBRANCH  17  21
ENDBRANCH  11  16
ENDBRANCH   1   9
BRANCH   4  23
HETATM   23  N4  UNL     1     -13.222  12.740  34.744  1.00  0.00    -0.313 N 
HETATM   24  C10 UNL     1     -12.276  12.604  35.804  1.00  0.00     0.230 C 
HETATM   25  O2  UNL     1     -11.079  12.848  35.711  1.00  0.00    -0.273 OA
ATOM     26  H4  UNL     1     -14.077  13.275  34.893  1.00  0.00     0.170 HD
BRANCH  24  27
HETATM   27  C11 UNL     1     -12.850  12.124  37.103  1.00  0.00     0.107 C 
HETATM   28  C12 UNL     1     -11.721  11.650  37.981  1.00  0.00     0.019 C 
HETATM   29  C13 UNL     1     -11.234  10.281  37.651  1.00  0.00     0.027 C 
HETATM   30  C14 UNL     1     -12.243   9.391  36.998  1.00  0.00     0.168 C 
HETATM   31  O3  UNL     1     -13.134  10.018  36.157  1.00  0.00    -0.385 OA
HETATM   32  C15 UNL     1     -13.802  10.965  36.935  1.00  0.00     0.137 C 
BRANCH  32  33
HETATM   33  C16 UNL     1     -15.136  11.326  36.410  1.00  0.00     0.007 C 
HETATM   34  C17 UNL     1     -15.763  10.083  35.799  1.00  0.00     0.012 C 
HETATM   35  C18 UNL     1     -16.072  11.775  37.543  1.00  0.00     0.012 C 
ENDBRANCH  32  33
ENDBRANCH  24  27
ENDBRANCH   4  23
BRANCH   6  36
HETATM   36  C21 UNL     1     -11.980  13.502  30.122  1.00  0.00     0.206 C 
BRANCH  36  37
HETATM   37  N5  UNL     1     -10.782  13.911  30.560  1.00  0.00    -0.386 NA
HETATM   38  C22 UNL     1      -9.502  14.344  31.023  1.00  0.00     0.389 C 
HETATM   39  O4  UNL     1      -8.434  14.227  30.572  1.00  0.00    -0.231 OA
HETATM   40  N6  UNL     1      -9.603  15.078  32.343  1.00  0.00    -0.328 N 
ATOM     41  H6  UNL     1     -10.525  15.207  32.760  1.00  0.00     0.165 HD
BRANCH  40  42
HETATM   42  C23 UNL     1      -8.473  15.594  33.026  1.00  0.00     0.079 C 
HETATM   43  C24 UNL     1      -8.788  15.873  34.484  1.00  0.00     0.032 C 
HETATM   44  C25 UNL     1      -8.021  16.915  32.399  1.00  0.00     0.032 C 
ENDBRANCH  40  42
ENDBRANCH  36  37
BRANCH  36  45
HETATM   45  C26 UNL     1     -12.926  14.508  29.589  1.00  0.00     0.018 C 
HETATM   46  C27 UNL     1     -12.622  15.839  29.104  1.00  0.00     0.013 C 
HETATM   47  C28 UNL     1     -13.823  13.783  28.535  1.00  0.00     0.013 C 
ENDBRANCH  36  45
ENDBRANCH   6  36
TORSDOF 11
ENDMDL
MODEL 2
REMARK VINA RESULT: -7.301006273      2.762      8.476
REMARK  11 active torsions:
REMARK  status: ('A' for Active; 'I' for Inactive)
REMARK    1  A    between atoms: C2_2  and  N1_3 
REMARK    2  A    between atoms: N1_3  and  C3_4 
REMARK       I    between atoms: N1_3  and  C5_6 
REMARK    3  A    between atoms: C5_6  and  C6_8 
REMARK    4  A    between atoms: C7_11  and  C8_12 
REMARK    5  A    between atoms: C9_15  and  N4_16 
REMARK       I    between atoms: N4_16  and  C10_18 
REMARK    6  A    between atoms: C10_18  and  C11_20 
REMARK    7  A    between atoms: C15_25  and  C16_26 
REMARK    8  A    between atoms: C20_30  and  C21_31 
REMARK    9  A    between atoms: C21_31  and  N5_32 
REMARK   10  A    between atoms: C21_31  and  C26_40 
REMARK       I    between atoms: N5_32  and  C22_33 
REMARK       I    between atoms: C22_33  and  N6_35 
REMARK   11  A    between atoms: N6_35  and  C23_37 
ROOT
HETATM    1  C8  UNL     1     -11.914  12.508  30.595  1.00  0.00     0.092 A 
HETATM    2  N3  UNL     1     -12.150  13.257  31.746  1.00  0.00    -0.338 N 
ATOM      3  H3  UNL     1     -11.775  14.198  31.865  1.00  0.00     0.167 HD
HETATM    4  C9  UNL     1     -12.876  12.685  32.659  1.00  0.00     0.108 A 
HETATM    5  C19 UNL     1     -13.423  11.396  32.543  1.00  0.00     0.059 A 
HETATM    6  C20 UNL     1     -13.200  10.665  31.424  1.00  0.00    -0.010 A 
HETATM    7  C29 UNL     1     -12.430  11.247  30.447  1.00  0.00    -0.021 A 
HETATM    8  C30 UNL     1     -12.177  10.565  29.132  1.00  0.00     0.051 C 
ENDROOT
BRANCH   1   9
HETATM    9  C7  UNL     1     -11.127  13.129  29.512  1.00  0.00     0.176 A 
HETATM   10  N2  UNL     1      -9.875  13.558  29.612  1.00  0.00    -0.328 N 
HETATM   11  C6  UNL     1      -9.463  14.021  28.442  1.00  0.00     0.133 A 
ATOM     12  H2  UNL     1      -9.313  13.535  30.464  1.00  0.00     0.168 HD
HETATM   13  C31 UNL     1     -10.527  13.863  27.561  1.00  0.00     0.084 A 
HETATM   14  O5  UNL     1     -11.495  13.324  28.294  1.00  0.00    -0.294 OA
HETATM   15  C32 UNL     1     -10.709  14.148  26.125  1.00  0.00     0.079 C 
BRANCH  11  16
HETATM   16  C5  UNL     1      -8.246  14.702  28.084  1.00  0.00     0.276 C 
HETATM   17  N1  UNL     1      -7.988  16.035  28.593  1.00  0.00    -0.327 N 
HETATM   18  O1  UNL     1      -7.360  14.246  27.346  1.00  0.00    -0.265 OA
BRANCH  17  19
HETATM   19  C2  UNL     1      -6.707  16.641  28.172  1.00  0.00     0.127 C 
HETATM   20  C1  UNL     1      -7.102  17.924  27.410  1.00  0.00     0.027 C 
ENDBRANCH  17  19
BRANCH  17  21
HETATM   21  C3  UNL     1      -8.850  16.779  29.402  1.00  0.00     0.063 C 
HETATM   22  C4  UNL     1      -8.460  16.795  30.836  1.00  0.00     0.055 C 
ENDBRANCH  17  21
ENDBRANCH  11  16
ENDBRANCH   1   9
BRANCH   4  23
HETATM   23  N4  UNL     1     -13.021  13.252  33.867  1.00  0.00    -0.313 N 
HETATM   24  C10 UNL     1     -12.505  14.559  34.118  1.00  0.00     0.230 C 
HETATM   25  O2  UNL     1     -12.724  15.545  33.426  1.00  0.00    -0.273 OA
ATOM     26  H4  UNL     1     -13.503  12.746  34.610  1.00  0.00     0.170 HD
BRANCH  24  27
HETATM   27  C11 UNL     1     -11.636  14.670  35.336  1.00  0.00     0.107 C 
HETATM   28  C12 UNL     1     -10.506  15.621  35.034  1.00  0.00     0.019 C 
HETATM   29  C13 UNL     1      -9.394  15.008  34.255  1.00  0.00     0.027 C 
HETATM   30  C14 UNL     1      -9.248  13.528  34.416  1.00  0.00     0.168 C 
HETATM   31  O3  UNL     1     -10.421  12.830  34.592  1.00  0.00    -0.385 OA
HETATM   32  C15 UNL     1     -11.016  13.354  35.740  1.00  0.00     0.137 C 
BRANCH  32  33
HETATM   33  C16 UNL     1     -11.938  12.412  36.410  1.00  0.00     0.007 C 
HETATM   34  C17 UNL     1     -11.493  10.995  36.088  1.00  0.00     0.012 C 
HETATM   35  C18 UNL     1     -11.860  12.556  37.938  1.00  0.00     0.012 C 
ENDBRANCH  32  33
ENDBRANCH  24  27
ENDBRANCH   4  23
BRANCH   6  36
HETATM   36  C21 UNL     1     -13.989   9.370  31.134  1.00  0.00     0.206 C 
BRANCH  36  37
HETATM   37  N5  UNL     1     -15.248   9.590  31.539  1.00  0.00    -0.386 NA
HETATM   38  C22 UNL     1     -16.586   9.828  31.975  1.00  0.00     0.389 C 
HETATM   39  O4  UNL     1     -17.019  10.509  32.816  1.00  0.00    -0.231 OA
HETATM   40  N6  UNL     1     -17.587   9.022  31.175  1.00  0.00    -0.328 N 
ATOM     41  H6  UNL     1     -17.243   8.423  30.424  1.00  0.00     0.165 HD
BRANCH  40  42
HETATM   42  C23 UNL     1     -18.983   9.064  31.422  1.00  0.00     0.079 C 
HETATM   43  C24 UNL     1     -19.537   7.678  31.699  1.00  0.00     0.032 C 
HETATM   44  C25 UNL     1     -19.730   9.615  30.204  1.00  0.00     0.032 C 
ENDBRANCH  40  42
ENDBRANCH  36  37
BRANCH  36  45
HETATM   45  C26 UNL     1     -13.299   8.142  31.590  1.00  0.00     0.018 C 
HETATM   46  C27 UNL     1     -11.935   7.739  31.316  1.00  0.00     0.013 C 
HETATM   47  C28 UNL     1     -13.562   8.011  33.125  1.00  0.00     0.013 C 
ENDBRANCH  36  45
ENDBRANCH   6  36
TORSDOF 11
ENDMDL
MODEL 3
REMARK VINA RESULT: -7.255230451      2.220      7.963
REMARK  11 active torsions:
REMARK  status: ('A' for Active; 'I' for Inactive)
REMARK    1  A    between atoms: C2_2  and  N1_3 
REMARK    2  A    between atoms: N1_3  and  C3_4 
REMARK       I    between atoms: N1_3  and  C5_6 
REMARK    3  A    between atoms: C5_6  and  C6_8 
REMARK    4  A    between atoms: C7_11  and  C8_12 
REMARK    5  A    between atoms: C9_15  and  N4_16 
REMARK       I    between atoms: N4_16  and  C10_18 
REMARK    6  A    between atoms: C10_18  and  C11_20 
REMARK    7  A    between atoms: C15_25  and  C16_26 
REMARK    8  A    between atoms: C20_30  and  C21_31 
REMARK    9  A    between atoms: C21_31  and  N5_32 
REMARK   10  A    between atoms: C21_31  and  C26_40 
REMARK       I    between atoms: N5_32  and  C22_33 
REMARK       I    between atoms: C22_33  and  N6_35 
REMARK   11  A    between atoms: N6_35  and  C23_37 
ROOT
HETATM    1  C8  UNL     1     -12.490  12.112  31.459  1.00  0.00     0.092 A 
HETATM    2  N3  UNL     1     -12.835  12.533  32.741  1.00  0.00    -0.338 N 
ATOM      3  H3  UNL     1     -12.681  13.492  33.054  1.00  0.00     0.167 HD
HETATM    4  C9  UNL     1     -13.365  11.633  33.513  1.00  0.00     0.108 A 
HETATM    5  C19 UNL     1     -13.607  10.304  33.129  1.00  0.00     0.059 A 
HETATM    6  C20 UNL     1     -13.278   9.890  31.882  1.00  0.00    -0.010 A 
HETATM    7  C29 UNL     1     -12.710  10.822  31.049  1.00  0.00    -0.021 A 
HETATM    8  C30 UNL     1     -12.372  10.502  29.620  1.00  0.00     0.051 C 
ENDROOT
BRANCH   1   9
HETATM    9  C7  UNL     1     -11.921  13.108  30.530  1.00  0.00     0.176 A 
HETATM   10  N2  UNL     1     -10.647  13.187  30.165  1.00  0.00    -0.328 N 
HETATM   11  C6  UNL     1     -10.490  14.169  29.291  1.00  0.00     0.133 A 
ATOM     12  H2  UNL     1      -9.900  12.581  30.507  1.00  0.00     0.168 HD
HETATM   13  C31 UNL     1     -11.748  14.729  29.099  1.00  0.00     0.084 A 
HETATM   14  O5  UNL     1     -12.552  14.031  29.894  1.00  0.00    -0.294 OA
HETATM   15  C32 UNL     1     -12.256  15.820  28.247  1.00  0.00     0.079 C 
BRANCH  11  16
HETATM   16  C5  UNL     1      -9.292  14.720  28.713  1.00  0.00     0.276 C 
HETATM   17  N1  UNL     1      -8.669  15.883  29.315  1.00  0.00    -0.327 N 
HETATM   18  O1  UNL     1      -8.719  14.287  27.703  1.00  0.00    -0.265 OA
BRANCH  17  19
HETATM   19  C2  UNL     1      -7.440  16.364  28.648  1.00  0.00     0.127 C 
HETATM   20  C1  UNL     1      -7.864  17.651  27.909  1.00  0.00     0.027 C 
ENDBRANCH  17  19
BRANCH  17  21
HETATM   21  C3  UNL     1      -9.148  16.579  30.427  1.00  0.00     0.063 C 
HETATM   22  C4  UNL     1      -8.485  16.199  31.702  1.00  0.00     0.055 C 
ENDBRANCH  17  21
ENDBRANCH  11  16
ENDBRANCH   1   9
BRANCH   4  23
HETATM   23  N4  UNL     1     -13.577  11.892  34.814  1.00  0.00    -0.313 N 
HETATM   24  C10 UNL     1     -12.631  11.473  35.797  1.00  0.00     0.230 C 
HETATM   25  O2  UNL     1     -11.429  11.705  35.758  1.00  0.00    -0.273 OA
ATOM     26  H4  UNL     1     -14.419  12.391  35.101  1.00  0.00     0.170 HD
BRANCH  24  27
HETATM   27  C11 UNL     1     -13.213  10.695  36.940  1.00  0.00     0.107 C 
HETATM   28  C12 UNL     1     -12.484  11.078  38.202  1.00  0.00     0.019 C 
HETATM   29  C13 UNL     1     -11.167  10.400  38.367  1.00  0.00     0.027 C 
HETATM   30  C14 UNL     1     -11.042   9.081  37.671  1.00  0.00     0.168 C 
HETATM   31  O3  UNL     1     -11.721   8.971  36.478  1.00  0.00    -0.385 OA
HETATM   32  C15 UNL     1     -13.065   9.202  36.773  1.00  0.00     0.137 C 
BRANCH  32  33
HETATM   33  C16 UNL     1     -13.997   8.589  35.803  1.00  0.00     0.007 C 
HETATM   34  C17 UNL     1     -13.752   7.089  35.786  1.00  0.00     0.012 C 
HETATM   35  C18 UNL     1     -15.457   8.787  36.239  1.00  0.00     0.012 C 
ENDBRANCH  32  33
ENDBRANCH  24  27
ENDBRANCH   4  23
BRANCH   6  36
HETATM   36  C21 UNL     1     -13.762   8.532  31.326  1.00  0.00     0.206 C 
BRANCH  36  37
HETATM   37  N5  UNL     1     -15.101   8.586  31.303  1.00  0.00    -0.386 NA
HETATM   38  C22 UNL     1     -16.528   8.640  31.273  1.00  0.00     0.389 C 
HETATM   39  O4  UNL     1     -17.313   8.054  30.642  1.00  0.00    -0.231 OA
HETATM   40  N6  UNL     1     -17.070   9.661  32.250  1.00  0.00    -0.328 N 
ATOM     41  H6  UNL     1     -16.410  10.183  32.826  1.00  0.00     0.165 HD
BRANCH  40  42
HETATM   42  C23 UNL     1     -18.455   9.922  32.401  1.00  0.00     0.079 C 
HETATM   43  C24 UNL     1     -18.907  11.050  31.493  1.00  0.00     0.032 C 
HETATM   44  C25 UNL     1     -18.771  10.344  33.839  1.00  0.00     0.032 C 
ENDBRANCH  40  42
ENDBRANCH  36  37
BRANCH  36  45
HETATM   45  C26 UNL     1     -13.107   7.366  31.960  1.00  0.00     0.018 C 
HETATM   46  C27 UNL     1     -13.661   6.044  32.168  1.00  0.00     0.013 C 
HETATM   47  C28 UNL     1     -11.695   7.222  31.307  1.00  0.00     0.013 C 
ENDBRANCH  36  45
ENDBRANCH   6  36
TORSDOF 11
ENDMDL
MODEL 4
REMARK VINA RESULT: -7.232744106      2.325      8.021
REMARK  11 active torsions:
REMARK  status: ('A' for Active; 'I' for Inactive)
REMARK    1  A    between atoms: C2_2  and  N1_3 
REMARK    2  A    between atoms: N1_3  and  C3_4 
REMARK       I    between atoms: N1_3  and  C5_6 
REMARK    3  A    between atoms: C5_6  and  C6_8 
REMARK    4  A    between atoms: C7_11  and  C8_12 
REMARK    5  A    between atoms: C9_15  and  N4_16 
REMARK       I    between atoms: N4_16  and  C10_18 
REMARK    6  A    between atoms: C10_18  and  C11_20 
REMARK    7  A    between atoms: C15_25  and  C16_26 
REMARK    8  A    between atoms: C20_30  and  C21_31 
REMARK    9  A    between atoms: C21_31  and  N5_32 
REMARK   10  A    between atoms: C21_31  and  C26_40 
REMARK       I    between atoms: N5_32  and  C22_33 
REMARK       I    between atoms: C22_33  and  N6_35 
REMARK   11  A    between atoms: N6_35  and  C23_37 
ROOT
HETATM    1  C8  UNL     1     -12.147  12.535  31.186  1.00  0.00     0.092 A 
HETATM    2  N3  UNL     1     -12.314  13.125  32.437  1.00  0.00    -0.338 N 
ATOM      3  H3  UNL     1     -11.894  14.025  32.669  1.00  0.00     0.167 HD
HETATM    4  C9  UNL     1     -13.035  12.461  33.289  1.00  0.00     0.108 A 
HETATM    5  C19 UNL     1     -13.642  11.224  33.018  1.00  0.00     0.059 A 
HETATM    6  C20 UNL     1     -13.487  10.646  31.802  1.00  0.00    -0.010 A 
HETATM    7  C29 UNL     1     -12.723  11.327  30.886  1.00  0.00    -0.021 A 
HETATM    8  C30 UNL     1     -12.542  10.824  29.481  1.00  0.00     0.051 C 
ENDROOT
BRANCH   1   9
HETATM    9  C7  UNL     1     -11.369  13.268  30.170  1.00  0.00     0.176 A 
HETATM   10  N2  UNL     1     -10.046  13.270  30.060  1.00  0.00    -0.328 N 
HETATM   11  C6  UNL     1      -9.683  13.998  29.015  1.00  0.00     0.133 A 
ATOM     12  H2  UNL     1      -9.404  12.783  30.686  1.00  0.00     0.168 HD
HETATM   13  C31 UNL     1     -10.856  14.472  28.439  1.00  0.00     0.084 A 
HETATM   14  O5  UNL     1     -11.827  13.989  29.207  1.00  0.00    -0.294 OA
HETATM   15  C32 UNL     1     -11.145  15.302  27.255  1.00  0.00     0.079 C 
BRANCH  11  16
HETATM   16  C5  UNL     1      -8.374  14.401  28.569  1.00  0.00     0.276 C 
HETATM   17  N1  UNL     1      -7.898  15.743  28.846  1.00  0.00    -0.327 N 
HETATM   18  O1  UNL     1      -7.582  13.688  27.936  1.00  0.00    -0.265 OA
BRANCH  17  19
HETATM   19  C2  UNL     1      -6.540  16.052  28.351  1.00  0.00     0.127 C 
HETATM   20  C1  UNL     1      -6.683  17.390  27.596  1.00  0.00     0.027 C 
ENDBRANCH  17  19
BRANCH  17  21
HETATM   21  C3  UNL     1      -8.620  16.744  29.499  1.00  0.00     0.063 C 
HETATM   22  C4  UNL     1      -8.290  16.875  30.943  1.00  0.00     0.055 C 
ENDBRANCH  17  21
ENDBRANCH  11  16
ENDBRANCH   1   9
BRANCH   4  23
HETATM   23  N4  UNL     1     -13.116  12.860  34.569  1.00  0.00    -0.313 N 
HETATM   24  C10 UNL     1     -12.385  12.177  35.587  1.00  0.00     0.230 C 
HETATM   25  O2  UNL     1     -11.185  11.936  35.547  1.00  0.00    -0.273 OA
ATOM     26  H4  UNL     1     -13.704  13.657  34.814  1.00  0.00     0.170 HD
BRANCH  24  27
HETATM   27  C11 UNL     1     -13.202  11.749  36.769  1.00  0.00     0.107 C 
HETATM   28  C12 UNL     1     -12.756  12.538  37.972  1.00  0.00     0.019 C 
HETATM   29  C13 UNL     1     -11.509  12.022  38.604  1.00  0.00     0.027 C 
HETATM   30  C14 UNL     1     -11.247  10.565  38.390  1.00  0.00     0.168 C 
HETATM   31  O3  UNL     1     -11.657  10.058  37.178  1.00  0.00    -0.385 OA
HETATM   32  C15 UNL     1     -13.032  10.287  37.105  1.00  0.00     0.137 C 
BRANCH  32  33
HETATM   33  C16 UNL     1     -13.739   9.355  36.202  1.00  0.00     0.007 C 
HETATM   34  C17 UNL     1     -12.710   8.440  35.556  1.00  0.00     0.012 C 
HETATM   35  C18 UNL     1     -14.697   8.446  36.988  1.00  0.00     0.012 C 
ENDBRANCH  32  33
ENDBRANCH  24  27
ENDBRANCH   4  23
BRANCH   6  36
HETATM   36  C21 UNL     1     -14.341   9.435  31.367  1.00  0.00     0.206 C 
BRANCH  36  37
HETATM   37  N5  UNL     1     -15.551   9.605  31.916  1.00  0.00    -0.386 NA
HETATM   38  C22 UNL     1     -16.842   9.787  32.498  1.00  0.00     0.389 C 
HETATM   39  O4  UNL     1     -17.880  10.025  32.023  1.00  0.00    -0.231 OA
HETATM   40  N6  UNL     1     -16.804   9.643  34.004  1.00  0.00    -0.328 N 
ATOM     41  H6  UNL     1     -15.914   9.425  34.450  1.00  0.00     0.165 HD
BRANCH  40  42
HETATM   42  C23 UNL     1     -17.953   9.797  34.821  1.00  0.00     0.079 C 
HETATM   43  C24 UNL     1     -17.675  10.717  35.996  1.00  0.00     0.032 C 
HETATM   44  C25 UNL     1     -18.390   8.447  35.397  1.00  0.00     0.032 C 
ENDBRANCH  40  42
ENDBRANCH  36  37
BRANCH  36  45
HETATM   45  C26 UNL     1     -13.655   8.135  31.541  1.00  0.00     0.018 C 
HETATM   46  C27 UNL     1     -12.257   7.904  31.843  1.00  0.00     0.013 C 
HETATM   47  C28 UNL     1     -14.527   7.284  32.519  1.00  0.00     0.013 C 
ENDBRANCH  36  45
ENDBRANCH   6  36
TORSDOF 11
ENDMDL
MODEL 5
REMARK VINA RESULT: -7.231323544      2.363      7.986
REMARK  11 active torsions:
REMARK  status: ('A' for Active; 'I' for Inactive)
REMARK    1  A    between atoms: C2_2  and  N1_3 
REMARK    2  A    between atoms: N1_3  and  C3_4 
REMARK       I    between atoms: N1_3  and  C5_6 
REMARK    3  A    between atoms: C5_6  and  C6_8 
REMARK    4  A    between atoms: C7_11  and  C8_12 
REMARK    5  A    between atoms: C9_15  and  N4_16 
REMARK       I    between atoms: N4_16  and  C10_18 
REMARK    6  A    between atoms: C10_18  and  C11_20 
REMARK    7  A    between atoms: C15_25  and  C16_26 
REMARK    8  A    between atoms: C20_30  and  C21_31 
REMARK    9  A    between atoms: C21_31  and  N5_32 
REMARK   10  A    between atoms: C21_31  and  C26_40 
REMARK       I    between atoms: N5_32  and  C22_33 
REMARK       I    between atoms: C22_33  and  N6_35 
REMARK   11  A    between atoms: N6_35  and  C23_37 
ROOT
HETATM    1  C8  UNL     1     -12.864  12.400  31.960  1.00  0.00     0.092 A 
HETATM    2  N3  UNL     1     -13.271  12.687  33.261  1.00  0.00    -0.338 N 
ATOM      3  H3  UNL     1     -13.210  13.627  33.651  1.00  0.00     0.167 HD
HETATM    4  C9  UNL     1     -13.730  11.685  33.948  1.00  0.00     0.108 A 
HETATM    5  C19 UNL     1     -13.843  10.373  33.457  1.00  0.00     0.059 A 
HETATM    6  C20 UNL     1     -13.453  10.090  32.191  1.00  0.00    -0.010 A 
HETATM    7  C29 UNL     1     -12.957  11.132  31.447  1.00  0.00    -0.021 A 
HETATM    8  C30 UNL     1     -12.563  10.956  30.007  1.00  0.00     0.051 C 
ENDROOT
BRANCH   1   9
HETATM    9  C7  UNL     1     -12.370  13.513  31.126  1.00  0.00     0.176 A 
HETATM   10  N2  UNL     1     -11.109  13.917  31.041  1.00  0.00    -0.328 N 
HETATM   11  C6  UNL     1     -11.012  14.911  30.171  1.00  0.00     0.133 A 
ATOM     12  H2  UNL     1     -10.329  13.522  31.568  1.00  0.00     0.168 HD
HETATM   13  C31 UNL     1     -12.295  15.131  29.682  1.00  0.00     0.084 A 
HETATM   14  O5  UNL     1     -13.055  14.247  30.320  1.00  0.00    -0.294 OA
HETATM   15  C32 UNL     1     -12.858  16.059  28.684  1.00  0.00     0.079 C 
BRANCH  11  16
HETATM   16  C5  UNL     1      -9.893  15.753  29.838  1.00  0.00     0.276 C 
HETATM   17  N1  UNL     1      -9.131  15.497  28.630  1.00  0.00    -0.327 N 
HETATM   18  O1  UNL     1      -9.492  16.712  30.513  1.00  0.00    -0.265 OA
BRANCH  17  19
HETATM   19  C2  UNL     1      -8.008  16.424  28.378  1.00  0.00     0.127 C 
HETATM   20  C1  UNL     1      -6.790  15.515  28.114  1.00  0.00     0.027 C 
ENDBRANCH  17  19
BRANCH  17  21
HETATM   21  C3  UNL     1      -9.356  14.451  27.732  1.00  0.00     0.063 C 
HETATM   22  C4  UNL     1     -10.088  14.863  26.506  1.00  0.00     0.055 C 
ENDBRANCH  17  21
ENDBRANCH  11  16
ENDBRANCH   1   9
BRANCH   4  23
HETATM   23  N4  UNL     1     -13.990  11.820  35.258  1.00  0.00    -0.313 N 
HETATM   24  C10 UNL     1     -12.973  11.565  36.226  1.00  0.00     0.230 C 
HETATM   25  O2  UNL     1     -11.851  12.055  36.211  1.00  0.00    -0.273 OA
ATOM     26  H4  UNL     1     -14.920  12.107  35.564  1.00  0.00     0.170 HD
BRANCH  24  27
HETATM   27  C11 UNL     1     -13.368  10.618  37.321  1.00  0.00     0.107 C 
HETATM   28  C12 UNL     1     -12.628  11.001  38.577  1.00  0.00     0.019 C 
HETATM   29  C13 UNL     1     -11.220  10.517  38.620  1.00  0.00     0.027 C 
HETATM   30  C14 UNL     1     -10.946   9.293  37.804  1.00  0.00     0.168 C 
HETATM   31  O3  UNL     1     -11.671   9.180  36.639  1.00  0.00    -0.385 OA
HETATM   32  C15 UNL     1     -13.014   9.183  37.015  1.00  0.00     0.137 C 
BRANCH  32  33
HETATM   33  C16 UNL     1     -13.902   8.519  36.037  1.00  0.00     0.007 C 
HETATM   34  C17 UNL     1     -13.544   7.042  35.991  1.00  0.00     0.012 C 
HETATM   35  C18 UNL     1     -15.371   8.597  36.484  1.00  0.00     0.012 C 
ENDBRANCH  32  33
ENDBRANCH  24  27
ENDBRANCH   4  23
BRANCH   6  36
HETATM   36  C21 UNL     1     -13.799   8.742  31.520  1.00  0.00     0.206 C 
BRANCH  36  37
HETATM   37  N5  UNL     1     -15.137   8.668  31.483  1.00  0.00    -0.386 NA
HETATM   38  C22 UNL     1     -16.562   8.584  31.441  1.00  0.00     0.389 C 
HETATM   39  O4  UNL     1     -17.279   7.727  31.111  1.00  0.00    -0.231 OA
HETATM   40  N6  UNL     1     -17.213   9.866  31.915  1.00  0.00    -0.328 N 
ATOM     41  H6  UNL     1     -16.613  10.633  32.221  1.00  0.00     0.165 HD
BRANCH  40  42
HETATM   42  C23 UNL     1     -18.618  10.048  31.953  1.00  0.00     0.079 C 
HETATM   43  C24 UNL     1     -19.041  11.255  31.135  1.00  0.00     0.032 C 
HETATM   44  C25 UNL     1     -19.094  10.285  33.389  1.00  0.00     0.032 C 
ENDBRANCH  40  42
ENDBRANCH  36  37
BRANCH  36  45
HETATM   45  C26 UNL     1     -13.037   7.597  32.065  1.00  0.00     0.018 C 
HETATM   46  C27 UNL     1     -13.523   6.258  32.336  1.00  0.00     0.013 C 
HETATM   47  C28 UNL     1     -11.713   7.493  31.243  1.00  0.00     0.013 C 
ENDBRANCH  36  45
ENDBRANCH   6  36
TORSDOF 11
ENDMDL
