MODEL 1
REMARK VINA RESULT: -9.603689125      0.000      0.000
REMARK  6 active torsions:
REMARK  status: ('A' for Active; 'I' for Inactive)
REMARK    1  A    between atoms: C8_10  and  C9_11 
REMARK    2  A    between atoms: N2_19  and  C17_20 
REMARK    3  A    between atoms: C17_20  and  C18_21 
REMARK    4  A    between atoms: C22_25  and  N3_26 
REMARK    5  A    between atoms: N3_26  and  C23_28 
REMARK    6  A    between atoms: C24_31  and  C25_32 
ROOT
HETATM    1  C1  UNL     1      -1.255  10.834  12.882  1.00  0.00     0.018 C 
HETATM    2  C2  UNL     1      -0.070  11.083  12.905  1.00  0.00    -0.075 C 
HETATM    3  C3  UNL     1       1.334  11.361  12.948  1.00  0.00     0.044 A 
HETATM    4  C4  UNL     1       2.401  10.519  12.744  1.00  0.00     0.110 A 
HETATM    5  N1  UNL     1       3.536  11.225  12.888  1.00  0.00    -0.364 N 
ATOM      6  H1  UNL     1       4.477  10.843  12.790  1.00  0.00     0.165 HD
HETATM    7  C5  UNL     1       3.255  12.511  13.180  1.00  0.00     0.043 A 
HETATM    8  C6  UNL     1       4.036  13.623  13.419  1.00  0.00     0.031 A 
HETATM    9  C7  UNL     1       3.477  14.858  13.703  1.00  0.00     0.012 A 
HETATM   10  C8  UNL     1       2.107  14.950  13.742  1.00  0.00    -0.020 A 
HETATM   11  C29 UNL     1       1.338  13.839  13.504  1.00  0.00     0.025 A 
HETATM   12  C30 UNL     1       1.881  12.598  13.218  1.00  0.00     0.011 A 
ENDROOT
BRANCH  10  13
HETATM   13  C9  UNL     1       1.388  16.233  14.040  1.00  0.00     0.290 C 
HETATM   14  C10 UNL     1       1.621  16.554  15.495  1.00  0.00    -0.013 A 
HETATM   15  C11 UNL     1       1.465  15.828  16.643  1.00  0.00     0.010 A 
HETATM   16  C15 UNL     1       2.079  17.862  15.533  1.00  0.00    -0.021 A 
HETATM   17  C12 UNL     1       1.763  16.383  17.893  1.00  0.00     0.001 A 
HETATM   18  C13 UNL     1       2.213  17.676  17.893  1.00  0.00     0.001 A 
HETATM   19  C14 UNL     1       2.373  18.417  16.743  1.00  0.00     0.009 A 
HETATM   20  C16 UNL     1       2.154  18.418  14.134  1.00  0.00     0.313 C 
HETATM   21  N2  UNL     1       2.039  17.266  13.307  1.00  0.00     0.110 N 
BRANCH  21  22
HETATM   22  C17 UNL     1       1.650  17.459  11.964  1.00  0.00     0.312 C 
BRANCH  22  23
HETATM   23  C18 UNL     1       2.766  17.511  10.975  1.00  0.00    -0.028 A 
HETATM   24  C19 UNL     1       3.237  16.329  10.456  1.00  0.00     0.009 A 
HETATM   25  C20 UNL     1       4.262  16.291   9.540  1.00  0.00     0.003 A 
HETATM   26  C21 UNL     1       4.828  17.486   9.135  1.00  0.00     0.029 A 
HETATM   27  C22 UNL     1       4.353  18.685   9.658  1.00  0.00     0.034 A 
HETATM   28  C28 UNL     1       3.332  18.689  10.569  1.00  0.00     0.038 A 
BRANCH  27  29
HETATM   29  N3  UNL     1       4.913  19.924   9.262  1.00  0.00    -0.337 N 
ATOM     30  H3  UNL     1       5.122  20.125   8.284  1.00  0.00     0.168 HD
BRANCH  29  31
HETATM   31  C23 UNL     1       5.151  20.805  10.210  1.00  0.00     0.149 A 
HETATM   32  N4  UNL     1       4.441  21.878  10.544  1.00  0.00    -0.333 N 
HETATM   33  C24 UNL     1       4.858  22.627  11.525  1.00  0.00     0.086 A 
ATOM     34  H4  UNL     1       3.585  22.110  10.042  1.00  0.00     0.168 HD
HETATM   35  C27 UNL     1       6.016  22.260  12.160  1.00  0.00     0.086 A 
HETATM   36  S1  UNL     1       6.454  20.846  11.311  1.00  0.00    -0.063 SA
BRANCH  33  37
HETATM   37  C25 UNL     1       4.133  23.852  11.976  1.00  0.00     0.148 A 
HETATM   38  N5  UNL     1       3.716  24.888  11.218  1.00  0.00    -0.335 N 
HETATM   39  C26 UNL     1       3.105  25.782  12.017  1.00  0.00     0.199 A 
ATOM     40  H5  UNL     1       3.842  24.978  10.211  1.00  0.00     0.168 HD
HETATM   41  N6  UNL     1       3.134  25.318  13.266  1.00  0.00    -0.294 N 
HETATM   42  N7  UNL     1       3.748  24.172  13.218  1.00  0.00    -0.283 N 
ATOM     43  H6  UNL     1       2.751  25.771  14.095  1.00  0.00     0.187 HD
ATOM     44  H7  UNL     1       3.917  23.584  14.034  1.00  0.00     0.188 HD
ENDBRANCH  33  37
ENDBRANCH  29  31
ENDBRANCH  27  29
ENDBRANCH  22  23
ENDBRANCH  21  22
ENDBRANCH  10  13
TORSDOF 6
ENDMDL
MODEL 2
REMARK VINA RESULT: -9.541969102      5.753      9.243
REMARK  6 active torsions:
REMARK  status: ('A' for Active; 'I' for Inactive)
REMARK    1  A    between atoms: C8_10  and  C9_11 
REMARK    2  A    between atoms: N2_19  and  C17_20 
REMARK    3  A    between atoms: C17_20  and  C18_21 
REMARK    4  A    between atoms: C22_25  and  N3_26 
REMARK    5  A    between atoms: N3_26  and  C23_28 
REMARK    6  A    between atoms: C24_31  and  C25_32 
ROOT
HETATM    1  C1  UNL     1      -1.183  10.371  12.823  1.00  0.00     0.018 C 
HETATM    2  C2  UNL     1      -0.051  10.771  12.980  1.00  0.00    -0.075 C 
HETATM    3  C3  UNL     1       1.291  11.227  13.181  1.00  0.00     0.044 A 
HETATM    4  C4  UNL     1       2.477  10.540  13.067  1.00  0.00     0.110 A 
HETATM    5  N1  UNL     1       3.487  11.382  13.352  1.00  0.00    -0.364 N 
ATOM      6  H1  UNL     1       4.475  11.130  13.344  1.00  0.00     0.165 HD
HETATM    7  C5  UNL     1       3.007  12.607  13.650  1.00  0.00     0.043 A 
HETATM    8  C6  UNL     1       3.603  13.799  14.004  1.00  0.00     0.031 A 
HETATM    9  C7  UNL     1       2.858  14.937  14.263  1.00  0.00     0.012 A 
HETATM   10  C8  UNL     1       1.491  14.848  14.158  1.00  0.00    -0.020 A 
HETATM   11  C29 UNL     1       0.907  13.657  13.807  1.00  0.00     0.025 A 
HETATM   12  C30 UNL     1       1.637  12.512  13.544  1.00  0.00     0.011 A 
ENDROOT
BRANCH  10  13
HETATM   13  C9  UNL     1       0.580  16.013  14.416  1.00  0.00     0.290 C 
HETATM   14  C10 UNL     1      -0.188  16.275  13.145  1.00  0.00    -0.013 A 
HETATM   15  C11 UNL     1       0.198  16.455  11.846  1.00  0.00     0.010 A 
HETATM   16  C15 UNL     1      -1.526  16.317  13.506  1.00  0.00    -0.021 A 
HETATM   17  C12 UNL     1      -0.746  16.687  10.840  1.00  0.00     0.001 A 
HETATM   18  C13 UNL     1      -2.057  16.722  11.231  1.00  0.00     0.001 A 
HETATM   19  C14 UNL     1      -2.458  16.543  12.537  1.00  0.00     0.009 A 
HETATM   20  C16 UNL     1      -1.663  16.090  14.990  1.00  0.00     0.313 C 
HETATM   21  N2  UNL     1      -0.386  15.594  15.373  1.00  0.00     0.110 N 
BRANCH  21  22
HETATM   22  C17 UNL     1      -0.033  15.676  16.738  1.00  0.00     0.312 C 
BRANCH  22  23
HETATM   23  C18 UNL     1      -0.255  14.433  17.533  1.00  0.00    -0.028 A 
HETATM   24  C19 UNL     1       0.759  13.510  17.604  1.00  0.00     0.009 A 
HETATM   25  C20 UNL     1       0.635  12.341  18.316  1.00  0.00     0.003 A 
HETATM   26  C21 UNL     1      -0.554  12.097  18.979  1.00  0.00     0.029 A 
HETATM   27  C22 UNL     1      -1.585  13.029  18.910  1.00  0.00     0.034 A 
HETATM   28  C28 UNL     1      -1.429  14.184  18.192  1.00  0.00     0.038 A 
BRANCH  27  29
HETATM   29  N3  UNL     1      -2.813  12.808  19.578  1.00  0.00    -0.337 N 
ATOM     30  H3  UNL     1      -3.055  11.892  19.957  1.00  0.00     0.168 HD
BRANCH  29  31
HETATM   31  C23 UNL     1      -3.630  13.833  19.690  1.00  0.00     0.149 A 
HETATM   32  N4  UNL     1      -3.502  14.919  20.445  1.00  0.00    -0.333 N 
HETATM   33  C24 UNL     1      -4.436  15.825  20.407  1.00  0.00     0.086 A 
ATOM     34  H4  UNL     1      -2.686  15.040  21.044  1.00  0.00     0.168 HD
HETATM   35  C27 UNL     1      -5.508  15.602  19.580  1.00  0.00     0.086 A 
HETATM   36  S1  UNL     1      -5.118  14.090  18.894  1.00  0.00    -0.063 SA
BRANCH  33  37
HETATM   37  C25 UNL     1      -4.386  17.079  21.218  1.00  0.00     0.148 A 
HETATM   38  N5  UNL     1      -5.359  18.001  21.369  1.00  0.00    -0.335 N 
HETATM   39  C26 UNL     1      -4.904  18.972  22.181  1.00  0.00     0.199 A 
ATOM     40  H5  UNL     1      -6.283  17.968  20.939  1.00  0.00     0.168 HD
HETATM   41  N6  UNL     1      -3.657  18.669  22.540  1.00  0.00    -0.294 N 
HETATM   42  N7  UNL     1      -3.371  17.542  21.958  1.00  0.00    -0.283 N 
ATOM     43  H6  UNL     1      -3.048  19.212  23.151  1.00  0.00     0.187 HD
ATOM     44  H7  UNL     1      -2.474  17.065  22.054  1.00  0.00     0.188 HD
ENDBRANCH  33  37
ENDBRANCH  29  31
ENDBRANCH  27  29
ENDBRANCH  22  23
ENDBRANCH  21  22
ENDBRANCH  10  13
TORSDOF 6
ENDMDL
MODEL 3
REMARK VINA RESULT: -9.440421288      4.951      9.756
REMARK  6 active torsions:
REMARK  status: ('A' for Active; 'I' for Inactive)
REMARK    1  A    between atoms: C8_10  and  C9_11 
REMARK    2  A    between atoms: N2_19  and  C17_20 
REMARK    3  A    between atoms: C17_20  and  C18_21 
REMARK    4  A    between atoms: C22_25  and  N3_26 
REMARK    5  A    between atoms: N3_26  and  C23_28 
REMARK    6  A    between atoms: C24_31  and  C25_32 
ROOT
HETATM    1  C1  UNL     1       2.411  19.007  17.079  1.00  0.00     0.018 C 
HETATM    2  C2  UNL     1       1.595  18.529  16.323  1.00  0.00    -0.075 C 
HETATM    3  C3  UNL     1       0.622  17.983  15.426  1.00  0.00     0.044 A 
HETATM    4  C4  UNL     1       0.330  18.335  14.129  1.00  0.00     0.110 A 
HETATM    5  N1  UNL     1      -0.663  17.544  13.685  1.00  0.00    -0.364 N 
ATOM      6  H1  UNL     1      -1.073  17.593  12.752  1.00  0.00     0.165 HD
HETATM    7  C5  UNL     1      -1.038  16.677  14.647  1.00  0.00     0.043 A 
HETATM    8  C6  UNL     1      -1.987  15.678  14.706  1.00  0.00     0.031 A 
HETATM    9  C7  UNL     1      -2.172  14.916  15.848  1.00  0.00     0.012 A 
HETATM   10  C8  UNL     1      -1.376  15.184  16.935  1.00  0.00    -0.020 A 
HETATM   11  C29 UNL     1      -0.435  16.180  16.867  1.00  0.00     0.025 A 
HETATM   12  C30 UNL     1      -0.238  16.950  15.735  1.00  0.00     0.011 A 
ENDROOT
BRANCH  10  13
HETATM   13  C9  UNL     1      -1.485  14.426  18.227  1.00  0.00     0.290 C 
HETATM   14  C10 UNL     1      -2.924  14.495  18.671  1.00  0.00    -0.013 A 
HETATM   15  C11 UNL     1      -3.797  15.533  18.838  1.00  0.00     0.010 A 
HETATM   16  C15 UNL     1      -3.310  13.188  18.926  1.00  0.00    -0.021 A 
HETATM   17  C12 UNL     1      -5.108  15.310  19.271  1.00  0.00     0.001 A 
HETATM   18  C13 UNL     1      -5.456  14.009  19.513  1.00  0.00     0.001 A 
HETATM   19  C14 UNL     1      -4.585  12.954  19.349  1.00  0.00     0.009 A 
HETATM   20  C16 UNL     1      -2.158  12.253  18.662  1.00  0.00     0.313 C 
HETATM   21  N2  UNL     1      -1.233  13.055  17.938  1.00  0.00     0.110 N 
BRANCH  21  22
HETATM   22  C17 UNL     1       0.113  12.631  17.900  1.00  0.00     0.312 C 
BRANCH  22  23
HETATM   23  C18 UNL     1       0.874  13.025  16.679  1.00  0.00    -0.028 A 
HETATM   24  C19 UNL     1       1.890  13.940  16.807  1.00  0.00     0.009 A 
HETATM   25  C20 UNL     1       2.640  14.355  15.731  1.00  0.00     0.003 A 
HETATM   26  C21 UNL     1       2.353  13.826  14.486  1.00  0.00     0.029 A 
HETATM   27  C22 UNL     1       1.325  12.898  14.352  1.00  0.00     0.034 A 
HETATM   28  C28 UNL     1       0.597  12.506  15.443  1.00  0.00     0.038 A 
BRANCH  27  29
HETATM   29  N3  UNL     1       1.008  12.339  13.090  1.00  0.00    -0.337 N 
ATOM     30  H3  UNL     1       0.093  12.476  12.662  1.00  0.00     0.168 HD
BRANCH  29  31
HETATM   31  C23 UNL     1       1.945  11.634  12.493  1.00  0.00     0.149 A 
HETATM   32  N4  UNL     1       2.581  10.554  12.935  1.00  0.00    -0.333 N 
HETATM   33  C24 UNL     1       3.486  10.003  12.177  1.00  0.00     0.086 A 
ATOM     34  H4  UNL     1       2.364  10.163  13.851  1.00  0.00     0.168 HD
HETATM   35  C27 UNL     1       3.730  10.577  10.956  1.00  0.00     0.086 A 
HETATM   36  S1  UNL     1       2.641  11.889  10.956  1.00  0.00    -0.063 SA
BRANCH  33  37
HETATM   37  C25 UNL     1       4.255   8.788  12.582  1.00  0.00     0.148 A 
HETATM   38  N5  UNL     1       4.736   8.489  13.807  1.00  0.00    -0.335 N 
HETATM   39  C26 UNL     1       5.366   7.303  13.739  1.00  0.00     0.199 A 
ATOM     40  H5  UNL     1       4.637   9.065  14.643  1.00  0.00     0.168 HD
HETATM   41  N6  UNL     1       5.286   6.856  12.487  1.00  0.00    -0.294 N 
HETATM   42  N7  UNL     1       4.622   7.752  11.818  1.00  0.00    -0.283 N 
ATOM     43  H6  UNL     1       5.669   5.983  12.124  1.00  0.00     0.187 HD
ATOM     44  H7  UNL     1       4.406   7.674  10.824  1.00  0.00     0.188 HD
ENDBRANCH  33  37
ENDBRANCH  29  31
ENDBRANCH  27  29
ENDBRANCH  22  23
ENDBRANCH  21  22
ENDBRANCH  10  13
TORSDOF 6
ENDMDL
MODEL 4
REMARK VINA RESULT: -9.343714197      4.793      8.456
REMARK  6 active torsions:
REMARK  status: ('A' for Active; 'I' for Inactive)
REMARK    1  A    between atoms: C8_10  and  C9_11 
REMARK    2  A    between atoms: N2_19  and  C17_20 
REMARK    3  A    between atoms: C17_20  and  C18_21 
REMARK    4  A    between atoms: C22_25  and  N3_26 
REMARK    5  A    between atoms: N3_26  and  C23_28 
REMARK    6  A    between atoms: C24_31  and  C25_32 
ROOT
HETATM    1  C1  UNL     1      -1.483  11.517  13.651  1.00  0.00     0.018 C 
HETATM    2  C2  UNL     1      -0.308  11.787  13.545  1.00  0.00    -0.075 C 
HETATM    3  C3  UNL     1       1.086  12.098  13.440  1.00  0.00     0.044 A 
HETATM    4  C4  UNL     1       2.180  11.277  13.578  1.00  0.00     0.110 A 
HETATM    5  N1  UNL     1       3.291  12.012  13.395  1.00  0.00    -0.364 N 
ATOM      6  H1  UNL     1       4.244  11.650  13.443  1.00  0.00     0.165 HD
HETATM    7  C5  UNL     1       2.968  13.296  13.140  1.00  0.00     0.043 A 
HETATM    8  C6  UNL     1       3.712  14.430  12.885  1.00  0.00     0.031 A 
HETATM    9  C7  UNL     1       3.113  15.656  12.649  1.00  0.00     0.012 A 
HETATM   10  C8  UNL     1       1.741  15.717  12.676  1.00  0.00    -0.020 A 
HETATM   11  C29 UNL     1       1.009  14.584  12.931  1.00  0.00     0.025 A 
HETATM   12  C30 UNL     1       1.592  13.352  13.168  1.00  0.00     0.011 A 
ENDROOT
BRANCH  10  13
HETATM   13  C9  UNL     1       0.980  16.989  12.436  1.00  0.00     0.290 C 
HETATM   14  C10 UNL     1       0.032  16.739  11.290  1.00  0.00    -0.013 A 
HETATM   15  C11 UNL     1       0.207  16.232  10.033  1.00  0.00     0.010 A 
HETATM   16  C15 UNL     1      -1.219  17.144  11.731  1.00  0.00    -0.021 A 
HETATM   17  C12 UNL     1      -0.872  16.106   9.151  1.00  0.00     0.001 A 
HETATM   18  C13 UNL     1      -2.091  16.515   9.618  1.00  0.00     0.001 A 
HETATM   19  C14 UNL     1      -2.280  17.028  10.882  1.00  0.00     0.009 A 
HETATM   20  C16 UNL     1      -1.122  17.659  13.144  1.00  0.00     0.313 C 
HETATM   21  N2  UNL     1       0.158  17.214  13.577  1.00  0.00     0.110 N 
BRANCH  21  22
HETATM   22  C17 UNL     1       0.741  17.870  14.683  1.00  0.00     0.312 C 
BRANCH  22  23
HETATM   23  C18 UNL     1       0.936  17.026  15.898  1.00  0.00    -0.028 A 
HETATM   24  C19 UNL     1       2.039  17.255  16.684  1.00  0.00     0.009 A 
HETATM   25  C20 UNL     1       2.290  16.522  17.821  1.00  0.00     0.003 A 
HETATM   26  C21 UNL     1       1.396  15.527  18.173  1.00  0.00     0.029 A 
HETATM   27  C22 UNL     1       0.277  15.293  17.380  1.00  0.00     0.034 A 
HETATM   28  C28 UNL     1       0.056  16.040  16.254  1.00  0.00     0.038 A 
BRANCH  27  29
HETATM   29  N3  UNL     1      -0.655  14.282  17.716  1.00  0.00    -0.337 N 
ATOM     30  H3  UNL     1      -0.409  13.294  17.665  1.00  0.00     0.168 HD
BRANCH  29  31
HETATM   31  C23 UNL     1      -1.853  14.672  18.096  1.00  0.00     0.149 A 
HETATM   32  N4  UNL     1      -2.183  15.489  19.090  1.00  0.00    -0.333 N 
HETATM   33  C24 UNL     1      -3.442  15.747  19.301  1.00  0.00     0.086 A 
ATOM     34  H4  UNL     1      -1.463  15.908  19.678  1.00  0.00     0.168 HD
HETATM   35  C27 UNL     1      -4.361  15.153  18.474  1.00  0.00     0.086 A 
HETATM   36  S1  UNL     1      -3.364  14.246  17.428  1.00  0.00    -0.063 SA
BRANCH  33  37
HETATM   37  C25 UNL     1      -3.916  16.651  20.391  1.00  0.00     0.148 A 
HETATM   38  N5  UNL     1      -5.172  17.094  20.606  1.00  0.00    -0.335 N 
HETATM   39  C26 UNL     1      -5.165  17.885  21.693  1.00  0.00     0.199 A 
ATOM     40  H5  UNL     1      -5.989  16.867  20.039  1.00  0.00     0.168 HD
HETATM   41  N6  UNL     1      -3.919  17.943  22.162  1.00  0.00    -0.294 N 
HETATM   42  N7  UNL     1      -3.195  17.203  21.375  1.00  0.00    -0.283 N 
ATOM     43  H6  UNL     1      -3.597  18.464  22.977  1.00  0.00     0.187 HD
ATOM     44  H7  UNL     1      -2.192  17.061  21.494  1.00  0.00     0.188 HD
ENDBRANCH  33  37
ENDBRANCH  29  31
ENDBRANCH  27  29
ENDBRANCH  22  23
ENDBRANCH  21  22
ENDBRANCH  10  13
TORSDOF 6
ENDMDL
MODEL 5
REMARK VINA RESULT: -9.276940863      5.579      9.501
REMARK  6 active torsions:
REMARK  status: ('A' for Active; 'I' for Inactive)
REMARK    1  A    between atoms: C8_10  and  C9_11 
REMARK    2  A    between atoms: N2_19  and  C17_20 
REMARK    3  A    between atoms: C17_20  and  C18_21 
REMARK    4  A    between atoms: C22_25  and  N3_26 
REMARK    5  A    between atoms: N3_26  and  C23_28 
REMARK    6  A    between atoms: C24_31  and  C25_32 
ROOT
HETATM    1  C1  UNL     1       3.486  16.043  11.829  1.00  0.00     0.018 C 
HETATM    2  C2  UNL     1       3.782  15.257  10.957  1.00  0.00    -0.075 C 
HETATM    3  C3  UNL     1       4.120  14.338   9.911  1.00  0.00     0.044 A 
HETATM    4  C4  UNL     1       4.648  14.584   8.666  1.00  0.00     0.110 A 
HETATM    5  N1  UNL     1       4.796  13.410   8.026  1.00  0.00    -0.364 N 
ATOM      6  H1  UNL     1       5.168  13.304   7.082  1.00  0.00     0.165 HD
HETATM    7  C5  UNL     1       4.383  12.393   8.810  1.00  0.00     0.043 A 
HETATM    8  C6  UNL     1       4.323  11.026   8.637  1.00  0.00     0.031 A 
HETATM    9  C7  UNL     1       3.843  10.187   9.629  1.00  0.00     0.012 A 
HETATM   10  C8  UNL     1       3.420  10.758  10.805  1.00  0.00    -0.020 A 
HETATM   11  C29 UNL     1       3.482  12.119  10.967  1.00  0.00     0.025 A 
HETATM   12  C30 UNL     1       3.960  12.971   9.987  1.00  0.00     0.011 A 
ENDROOT
BRANCH  10  13
HETATM   13  C9  UNL     1       2.879   9.952  11.950  1.00  0.00     0.290 C 
HETATM   14  C10 UNL     1       3.921   8.923  12.310  1.00  0.00    -0.013 A 
HETATM   15  C11 UNL     1       4.612   8.002  11.572  1.00  0.00     0.010 A 
HETATM   16  C15 UNL     1       4.122   9.040  13.676  1.00  0.00    -0.021 A 
HETATM   17  C12 UNL     1       5.544   7.150  12.173  1.00  0.00     0.001 A 
HETATM   18  C13 UNL     1       5.718   7.293  13.523  1.00  0.00     0.001 A 
HETATM   19  C14 UNL     1       5.028   8.217  14.277  1.00  0.00     0.009 A 
HETATM   20  C16 UNL     1       3.236  10.125  14.232  1.00  0.00     0.313 C 
HETATM   21  N2  UNL     1       2.787  10.820  13.075  1.00  0.00     0.110 N 
BRANCH  21  22
HETATM   22  C17 UNL     1       1.626  11.614  13.195  1.00  0.00     0.312 C 
BRANCH  22  23
HETATM   23  C18 UNL     1       1.602  12.540  14.364  1.00  0.00    -0.028 A 
HETATM   24  C19 UNL     1       2.400  13.657  14.331  1.00  0.00     0.009 A 
HETATM   25  C20 UNL     1       2.435  14.561  15.367  1.00  0.00     0.003 A 
HETATM   26  C21 UNL     1       1.636  14.328  16.472  1.00  0.00     0.029 A 
HETATM   27  C22 UNL     1       0.825  13.197  16.509  1.00  0.00     0.034 A 
HETATM   28  C28 UNL     1       0.814  12.317  15.460  1.00  0.00     0.038 A 
BRANCH  27  29
HETATM   29  N3  UNL     1      -0.004  12.932  17.625  1.00  0.00    -0.337 N 
ATOM     30  H3  UNL     1       0.256  12.240  18.328  1.00  0.00     0.168 HD
BRANCH  29  31
HETATM   31  C23 UNL     1      -1.123  13.617  17.718  1.00  0.00     0.149 A 
HETATM   32  N4  UNL     1      -1.605  14.282  18.763  1.00  0.00    -0.333 N 
HETATM   33  C24 UNL     1      -2.745  14.901  18.643  1.00  0.00     0.086 A 
ATOM     34  H4  UNL     1      -1.091  14.308  19.643  1.00  0.00     0.168 HD
HETATM   35  C27 UNL     1      -3.386  14.828  17.433  1.00  0.00     0.086 A 
HETATM   36  S1  UNL     1      -2.312  13.867  16.520  1.00  0.00    -0.063 SA
BRANCH  33  37
HETATM   37  C25 UNL     1      -3.371  15.674  19.757  1.00  0.00     0.148 A 
HETATM   38  N5  UNL     1      -3.721  16.977  19.759  1.00  0.00    -0.335 N 
HETATM   39  C26 UNL     1      -4.252  17.274  20.958  1.00  0.00     0.199 A 
ATOM     40  H5  UNL     1      -3.604  17.627  18.982  1.00  0.00     0.168 HD
HETATM   41  N6  UNL     1      -4.239  16.173  21.708  1.00  0.00    -0.294 N 
HETATM   42  N7  UNL     1      -3.712  15.236  20.975  1.00  0.00    -0.283 N 
ATOM     43  H6  UNL     1      -4.575  16.082  22.666  1.00  0.00     0.187 HD
ATOM     44  H7  UNL     1      -3.575  14.277  21.293  1.00  0.00     0.188 HD
ENDBRANCH  33  37
ENDBRANCH  29  31
ENDBRANCH  27  29
ENDBRANCH  22  23
ENDBRANCH  21  22
ENDBRANCH  10  13
TORSDOF 6
ENDMDL
