MODEL 1
REMARK VINA RESULT: -9.439282307      0.000      0.000
REMARK  11 active torsions:
REMARK  status: ('A' for Active; 'I' for Inactive)
REMARK    1  A    between atoms: C5_5  and  N1_6 
REMARK    2  A    between atoms: N1_6  and  C6_9 
REMARK    3  A    between atoms: N2_12  and  C9_13 
REMARK    4  A    between atoms: C9_13  and  C10_14 
REMARK    5  A    between atoms: C10_14  and  C11_15 
REMARK    6  A    between atoms: C15_21  and  C16_22 
REMARK    7  A    between atoms: C16_22  and  C17_23 
REMARK    8  A    between atoms: C17_23  and  C18_24 
REMARK    9  A    between atoms: C18_24  and  C19_25 
REMARK   10  A    between atoms: C19_25  and  C20_26 
REMARK   11  A    between atoms: C20_26  and  N4_27 
REMARK       I    between atoms: N4_27  and  C21_29 
ROOT
HETATM    1  C11 UNL     1      34.027  39.581  -9.344  1.00  0.00    -0.055 A 
HETATM    2  C12 UNL     1      34.815  38.631  -8.686  1.00  0.00     0.009 A 
HETATM    3  C13 UNL     1      35.338  38.950  -7.456  1.00  0.00     0.031 A 
HETATM    4  C14 UNL     1      35.116  40.170  -6.851  1.00  0.00     0.049 A 
HETATM    5  N3  UNL     1      35.605  40.503  -5.648  1.00  0.00    -0.345 N 
ATOM      6  H3  UNL     1      36.179  39.822  -5.153  1.00  0.00     0.167 HD
HETATM    7  C15 UNL     1      35.377  41.682  -5.067  1.00  0.00     0.084 A 
HETATM    8  N7  UNL     1      34.625  42.598  -5.694  1.00  0.00    -0.312 N 
ATOM      9  H7  UNL     1      34.453  43.499  -5.248  1.00  0.00     0.170 HD
HETATM   10  C22 UNL     1      34.096  42.346  -6.904  1.00  0.00     0.259 A 
HETATM   11  O1  UNL     1      33.386  43.175  -7.527  1.00  0.00    -0.267 OA
HETATM   12  C23 UNL     1      34.340  41.127  -7.486  1.00  0.00     0.059 A 
HETATM   13  C24 UNL     1      33.810  40.792  -8.741  1.00  0.00     0.026 A 
ENDROOT
BRANCH   1  14
HETATM   14  C10 UNL     1      33.443  39.257 -10.677  1.00  0.00     0.068 C 
BRANCH  14  15
HETATM   15  C9  UNL     1      31.993  38.890 -10.481  1.00  0.00     0.277 C 
BRANCH  15  16
HETATM   16  N2  UNL     1      31.317  38.766 -11.723  1.00  0.00     0.088 N 
HETATM   17  C8  UNL     1      29.920  39.145 -11.706  1.00  0.00     0.274 C 
HETATM   18  C7  UNL     1      29.724  40.618 -11.551  1.00  0.00     0.063 C 
HETATM   19  C6  UNL     1      30.739  41.392 -12.325  1.00  0.00     0.189 C 
HETATM   20  C26 UNL     1      31.300  40.518 -13.425  1.00  0.00     0.063 C 
HETATM   21  C25 UNL     1      32.000  39.299 -12.856  1.00  0.00     0.274 C 
BRANCH  19  22
HETATM   22  N1  UNL     1      30.225  42.581 -12.964  1.00  0.00    -0.067 N 
ATOM     23  H12 UNL     1      29.224  42.687 -12.799  1.00  0.00     0.278 HD
ATOM     24  H11 UNL     1      30.211  42.480 -13.979  1.00  0.00     0.278 HD
BRANCH  22  25
HETATM   25  C5  UNL     1      30.966  43.788 -12.557  1.00  0.00     0.186 C 
HETATM   26  C4  UNL     1      31.936  43.377 -11.511  1.00  0.00     0.033 C 
HETATM   27  C3  UNL     1      33.189  44.156 -11.400  1.00  0.00     0.006 C 
HETATM   28  C2  UNL     1      33.425  45.163 -12.500  1.00  0.00    -0.019 C 
HETATM   29  C1  UNL     1      32.692  46.447 -12.306  1.00  0.00     0.010 C 
HETATM   30  C28 UNL     1      33.041  44.509 -13.800  1.00  0.00     0.006 C 
HETATM   31  C27 UNL     1      31.551  44.345 -13.812  1.00  0.00     0.033 C 
ENDBRANCH  22  25
ENDBRANCH  19  22
ENDBRANCH  15  16
ENDBRANCH  14  15
ENDBRANCH   1  14
BRANCH   7  32
HETATM   32  C16 UNL     1      35.943  41.982  -3.681  1.00  0.00     0.076 C 
BRANCH  32  33
HETATM   33  C17 UNL     1      37.250  41.303  -3.512  1.00  0.00     0.007 C 
BRANCH  33  34
HETATM   34  C18 UNL     1      37.636  40.829  -2.175  1.00  0.00     0.002 C 
BRANCH  34  35
HETATM   35  C19 UNL     1      36.755  40.911  -1.012  1.00  0.00     0.020 C 
BRANCH  35  36
HETATM   36  C20 UNL     1      36.871  42.016  -0.037  1.00  0.00     0.122 C 
BRANCH  36  37
HETATM   37  N4  UNL     1      37.741  43.080  -0.468  1.00  0.00    -0.365 N 
HETATM   38  C21 UNL     1      37.305  44.300  -1.027  1.00  0.00     0.181 C 
HETATM   39  N5  UNL     1      36.064  44.475  -1.296  1.00  0.00    -0.374 N 
HETATM   40  N6  UNL     1      38.182  45.373  -1.313  1.00  0.00    -0.064 NA
ATOM     41  H52 UNL     1      35.432  43.702  -1.089  1.00  0.00     0.158 HD
ATOM     42  H51 UNL     1      35.748  45.357  -1.699  1.00  0.00     0.158 HD
ATOM     43  H4  UNL     1      38.745  42.942  -0.361  1.00  0.00     0.162 HD
ENDBRANCH  36  37
ENDBRANCH  35  36
ENDBRANCH  34  35
ENDBRANCH  33  34
ENDBRANCH  32  33
ENDBRANCH   7  32
TORSDOF 11
ENDMDL
MODEL 2
REMARK VINA RESULT: -9.301630790      1.059      1.545
REMARK  11 active torsions:
REMARK  status: ('A' for Active; 'I' for Inactive)
REMARK    1  A    between atoms: C5_5  and  N1_6 
REMARK    2  A    between atoms: N1_6  and  C6_9 
REMARK    3  A    between atoms: N2_12  and  C9_13 
REMARK    4  A    between atoms: C9_13  and  C10_14 
REMARK    5  A    between atoms: C10_14  and  C11_15 
REMARK    6  A    between atoms: C15_21  and  C16_22 
REMARK    7  A    between atoms: C16_22  and  C17_23 
REMARK    8  A    between atoms: C17_23  and  C18_24 
REMARK    9  A    between atoms: C18_24  and  C19_25 
REMARK   10  A    between atoms: C19_25  and  C20_26 
REMARK   11  A    between atoms: C20_26  and  N4_27 
REMARK       I    between atoms: N4_27  and  C21_29 
ROOT
HETATM    1  C11 UNL     1      33.788  40.255  -9.448  1.00  0.00    -0.055 A 
HETATM    2  C12 UNL     1      33.426  41.584  -9.204  1.00  0.00     0.009 A 
HETATM    3  C13 UNL     1      33.818  42.166  -8.023  1.00  0.00     0.031 A 
HETATM    4  C14 UNL     1      34.551  41.488  -7.072  1.00  0.00     0.049 A 
HETATM    5  N3  UNL     1      34.956  42.035  -5.916  1.00  0.00    -0.345 N 
ATOM      6  H3  UNL     1      34.702  43.004  -5.723  1.00  0.00     0.167 HD
HETATM    7  C15 UNL     1      35.673  41.375  -5.006  1.00  0.00     0.084 A 
HETATM    8  N7  UNL     1      36.022  40.099  -5.232  1.00  0.00    -0.312 N 
ATOM      9  H7  UNL     1      36.570  39.596  -4.534  1.00  0.00     0.170 HD
HETATM   10  C22 UNL     1      35.658  39.474  -6.365  1.00  0.00     0.259 A 
HETATM   11  O1  UNL     1      35.962  38.281  -6.618  1.00  0.00    -0.267 OA
HETATM   12  C23 UNL     1      34.920  40.171  -7.291  1.00  0.00     0.059 A 
HETATM   13  C24 UNL     1      34.516  39.585  -8.499  1.00  0.00     0.026 A 
ENDROOT
BRANCH   1  14
HETATM   14  C10 UNL     1      33.381  39.603 -10.725  1.00  0.00     0.068 C 
BRANCH  14  15
HETATM   15  C9  UNL     1      31.934  39.195 -10.606  1.00  0.00     0.277 C 
BRANCH  15  16
HETATM   16  N2  UNL     1      31.325  39.071 -11.882  1.00  0.00     0.088 N 
HETATM   17  C8  UNL     1      29.919  39.414 -11.931  1.00  0.00     0.274 C 
HETATM   18  C7  UNL     1      29.678  40.879 -11.769  1.00  0.00     0.063 C 
HETATM   19  C6  UNL     1      30.711  41.689 -12.482  1.00  0.00     0.189 C 
HETATM   20  C26 UNL     1      31.348  40.844 -13.563  1.00  0.00     0.063 C 
HETATM   21  C25 UNL     1      32.050  39.636 -12.973  1.00  0.00     0.274 C 
BRANCH  19  22
HETATM   22  N1  UNL     1      30.199  42.873 -13.131  1.00  0.00    -0.067 N 
ATOM     23  H12 UNL     1      29.195  42.977 -12.977  1.00  0.00     0.278 HD
ATOM     24  H11 UNL     1      30.195  42.768 -14.146  1.00  0.00     0.278 HD
BRANCH  22  25
HETATM   25  C5  UNL     1      30.931  44.084 -12.722  1.00  0.00     0.186 C 
HETATM   26  C4  UNL     1      31.854  43.692 -11.628  1.00  0.00     0.033 C 
HETATM   27  C3  UNL     1      33.107  44.466 -11.483  1.00  0.00     0.006 C 
HETATM   28  C2  UNL     1      33.396  45.445 -12.595  1.00  0.00    -0.019 C 
HETATM   29  C1  UNL     1      32.665  46.738 -12.462  1.00  0.00     0.010 C 
HETATM   30  C28 UNL     1      33.061  44.763 -13.894  1.00  0.00     0.006 C 
HETATM   31  C27 UNL     1      31.572  44.608 -13.965  1.00  0.00     0.033 C 
ENDBRANCH  22  25
ENDBRANCH  19  22
ENDBRANCH  15  16
ENDBRANCH  14  15
ENDBRANCH   1  14
BRANCH   7  32
HETATM   32  C16 UNL     1      36.124  42.070  -3.724  1.00  0.00     0.076 C 
BRANCH  32  33
HETATM   33  C17 UNL     1      37.404  41.485  -3.257  1.00  0.00     0.007 C 
BRANCH  33  34
HETATM   34  C18 UNL     1      37.445  40.826  -1.943  1.00  0.00     0.002 C 
BRANCH  34  35
HETATM   35  C19 UNL     1      36.490  41.111  -0.875  1.00  0.00     0.020 C 
BRANCH  35  36
HETATM   36  C20 UNL     1      36.750  42.167   0.127  1.00  0.00     0.122 C 
BRANCH  36  37
HETATM   37  N4  UNL     1      37.669  43.181  -0.325  1.00  0.00    -0.365 N 
HETATM   38  C21 UNL     1      37.293  44.379  -0.968  1.00  0.00     0.181 C 
HETATM   39  N5  UNL     1      36.070  44.573  -1.298  1.00  0.00    -0.374 N 
HETATM   40  N6  UNL     1      38.214  45.409  -1.275  1.00  0.00    -0.064 NA
ATOM     41  H52 UNL     1      35.407  43.831  -1.077  1.00  0.00     0.158 HD
ATOM     42  H51 UNL     1      35.798  45.439  -1.763  1.00  0.00     0.158 HD
ATOM     43  H4  UNL     1      38.663  43.021  -0.168  1.00  0.00     0.162 HD
ENDBRANCH  36  37
ENDBRANCH  35  36
ENDBRANCH  34  35
ENDBRANCH  33  34
ENDBRANCH  32  33
ENDBRANCH   7  32
TORSDOF 11
ENDMDL
MODEL 3
REMARK VINA RESULT: -8.976215158      2.131      3.256
REMARK  11 active torsions:
REMARK  status: ('A' for Active; 'I' for Inactive)
REMARK    1  A    between atoms: C5_5  and  N1_6 
REMARK    2  A    between atoms: N1_6  and  C6_9 
REMARK    3  A    between atoms: N2_12  and  C9_13 
REMARK    4  A    between atoms: C9_13  and  C10_14 
REMARK    5  A    between atoms: C10_14  and  C11_15 
REMARK    6  A    between atoms: C15_21  and  C16_22 
REMARK    7  A    between atoms: C16_22  and  C17_23 
REMARK    8  A    between atoms: C17_23  and  C18_24 
REMARK    9  A    between atoms: C18_24  and  C19_25 
REMARK   10  A    between atoms: C19_25  and  C20_26 
REMARK   11  A    between atoms: C20_26  and  N4_27 
REMARK       I    between atoms: N4_27  and  C21_29 
ROOT
HETATM    1  C11 UNL     1      34.182  40.500  -8.499  1.00  0.00    -0.055 A 
HETATM    2  C12 UNL     1      33.661  41.778  -8.272  1.00  0.00     0.009 A 
HETATM    3  C13 UNL     1      33.999  42.429  -7.110  1.00  0.00     0.031 A 
HETATM    4  C14 UNL     1      34.827  41.867  -6.161  1.00  0.00     0.049 A 
HETATM    5  N3  UNL     1      35.181  42.483  -5.024  1.00  0.00    -0.345 N 
ATOM      6  H3  UNL     1      34.812  43.417  -4.844  1.00  0.00     0.167 HD
HETATM    7  C15 UNL     1      35.991  41.936  -4.117  1.00  0.00     0.084 A 
HETATM    8  N7  UNL     1      36.491  40.708  -4.326  1.00  0.00    -0.312 N 
ATOM      9  H7  UNL     1      37.109  40.292  -3.630  1.00  0.00     0.170 HD
HETATM   10  C22 UNL     1      36.188  40.020  -5.440  1.00  0.00     0.259 A 
HETATM   11  O1  UNL     1      36.633  38.869  -5.677  1.00  0.00    -0.267 OA
HETATM   12  C23 UNL     1      35.353  40.601  -6.364  1.00  0.00     0.059 A 
HETATM   13  C24 UNL     1      35.004  39.944  -7.553  1.00  0.00     0.026 A 
ENDROOT
BRANCH   1  14
HETATM   14  C10 UNL     1      33.837  39.776  -9.755  1.00  0.00     0.068 C 
BRANCH  14  15
HETATM   15  C9  UNL     1      32.508  39.092  -9.556  1.00  0.00     0.277 C 
BRANCH  15  16
HETATM   16  N2  UNL     1      31.906  38.756 -10.798  1.00  0.00     0.088 N 
HETATM   17  C8  UNL     1      30.479  38.983 -10.873  1.00  0.00     0.274 C 
HETATM   18  C7  UNL     1      30.126  40.434 -10.900  1.00  0.00     0.063 C 
HETATM   19  C6  UNL     1      31.092  41.219 -11.724  1.00  0.00     0.189 C 
HETATM   20  C26 UNL     1      31.789  40.291 -12.694  1.00  0.00     0.063 C 
HETATM   21  C25 UNL     1      32.584  39.227 -11.961  1.00  0.00     0.274 C 
BRANCH  19  22
HETATM   22  N1  UNL     1      30.489  42.266 -12.516  1.00  0.00    -0.067 N 
ATOM     23  H12 UNL     1      29.478  42.300 -12.379  1.00  0.00     0.278 HD
ATOM     24  H11 UNL     1      30.509  42.038 -13.510  1.00  0.00     0.278 HD
BRANCH  22  25
HETATM   25  C5  UNL     1      31.108  43.578 -12.256  1.00  0.00     0.186 C 
HETATM   26  C4  UNL     1      32.161  43.372 -11.230  1.00  0.00     0.033 C 
HETATM   27  C3  UNL     1      33.323  44.287 -11.253  1.00  0.00     0.006 C 
HETATM   28  C2  UNL     1      33.400  45.206 -12.448  1.00  0.00    -0.019 C 
HETATM   29  C1  UNL     1      32.538  46.417 -12.330  1.00  0.00     0.010 C 
HETATM   30  C28 UNL     1      33.037  44.397 -13.664  1.00  0.00     0.006 C 
HETATM   31  C27 UNL     1      31.575  44.075 -13.584  1.00  0.00     0.033 C 
ENDBRANCH  22  25
ENDBRANCH  19  22
ENDBRANCH  15  16
ENDBRANCH  14  15
ENDBRANCH   1  14
BRANCH   7  32
HETATM   32  C16 UNL     1      36.373  42.708  -2.857  1.00  0.00     0.076 C 
BRANCH  32  33
HETATM   33  C17 UNL     1      35.750  42.075  -1.669  1.00  0.00     0.007 C 
BRANCH  33  34
HETATM   34  C18 UNL     1      36.594  41.281  -0.764  1.00  0.00     0.002 C 
BRANCH  34  35
HETATM   35  C19 UNL     1      36.568  39.821  -0.721  1.00  0.00     0.020 C 
BRANCH  35  36
HETATM   36  C20 UNL     1      37.593  39.014  -1.417  1.00  0.00     0.122 C 
BRANCH  36  37
HETATM   37  N4  UNL     1      37.228  37.631  -1.584  1.00  0.00    -0.365 N 
HETATM   38  C21 UNL     1      37.653  36.809  -2.648  1.00  0.00     0.181 C 
HETATM   39  N5  UNL     1      38.319  37.312  -3.621  1.00  0.00    -0.374 N 
HETATM   40  N6  UNL     1      37.382  35.420  -2.705  1.00  0.00    -0.064 NA
ATOM     41  H52 UNL     1      38.514  38.312  -3.580  1.00  0.00     0.158 HD
ATOM     42  H51 UNL     1      38.627  36.718  -4.391  1.00  0.00     0.158 HD
ATOM     43  H4  UNL     1      36.618  37.215  -0.881  1.00  0.00     0.162 HD
ENDBRANCH  36  37
ENDBRANCH  35  36
ENDBRANCH  34  35
ENDBRANCH  33  34
ENDBRANCH  32  33
ENDBRANCH   7  32
TORSDOF 11
ENDMDL
MODEL 4
REMARK VINA RESULT: -8.908725084      3.911      7.343
REMARK  11 active torsions:
REMARK  status: ('A' for Active; 'I' for Inactive)
REMARK    1  A    between atoms: C5_5  and  N1_6 
REMARK    2  A    between atoms: N1_6  and  C6_9 
REMARK    3  A    between atoms: N2_12  and  C9_13 
REMARK    4  A    between atoms: C9_13  and  C10_14 
REMARK    5  A    between atoms: C10_14  and  C11_15 
REMARK    6  A    between atoms: C15_21  and  C16_22 
REMARK    7  A    between atoms: C16_22  and  C17_23 
REMARK    8  A    between atoms: C17_23  and  C18_24 
REMARK    9  A    between atoms: C18_24  and  C19_25 
REMARK   10  A    between atoms: C19_25  and  C20_26 
REMARK   11  A    between atoms: C20_26  and  N4_27 
REMARK       I    between atoms: N4_27  and  C21_29 
ROOT
HETATM    1  C11 UNL     1      33.080  43.351 -11.464  1.00  0.00    -0.055 A 
HETATM    2  C12 UNL     1      32.796  42.104 -12.030  1.00  0.00     0.009 A 
HETATM    3  C13 UNL     1      32.924  40.982 -11.247  1.00  0.00     0.031 A 
HETATM    4  C14 UNL     1      33.323  41.041  -9.929  1.00  0.00     0.049 A 
HETATM    5  N3  UNL     1      33.445  39.964  -9.140  1.00  0.00    -0.345 N 
ATOM      6  H3  UNL     1      33.240  39.047  -9.536  1.00  0.00     0.167 HD
HETATM    7  C15 UNL     1      33.823  40.032  -7.862  1.00  0.00     0.084 A 
HETATM    8  N7  UNL     1      34.100  41.224  -7.314  1.00  0.00    -0.312 N 
ATOM      9  H7  UNL     1      34.389  41.273  -6.336  1.00  0.00     0.170 HD
HETATM   10  C22 UNL     1      34.003  42.355  -8.033  1.00  0.00     0.259 A 
HETATM   11  O1  UNL     1      34.252  43.492  -7.560  1.00  0.00    -0.267 OA
HETATM   12  C23 UNL     1      33.612  42.265  -9.347  1.00  0.00     0.059 A 
HETATM   13  C24 UNL     1      33.478  43.405 -10.153  1.00  0.00     0.026 A 
ENDROOT
BRANCH   1  14
HETATM   14  C10 UNL     1      32.943  44.584 -12.290  1.00  0.00     0.068 C 
BRANCH  14  15
HETATM   15  C9  UNL     1      32.760  44.171 -13.729  1.00  0.00     0.277 C 
BRANCH  15  16
HETATM   16  N2  UNL     1      31.580  44.732 -14.283  1.00  0.00     0.088 N 
HETATM   17  C8  UNL     1      31.063  44.053 -15.452  1.00  0.00     0.274 C 
HETATM   18  C7  UNL     1      30.480  42.716 -15.131  1.00  0.00     0.063 C 
HETATM   19  C6  UNL     1      29.732  42.738 -13.839  1.00  0.00     0.189 C 
HETATM   20  C26 UNL     1      29.331  44.162 -13.520  1.00  0.00     0.063 C 
HETATM   21  C25 UNL     1      30.548  45.050 -13.351  1.00  0.00     0.274 C 
BRANCH  19  22
HETATM   22  N1  UNL     1      28.517  41.957 -13.838  1.00  0.00    -0.067 N 
ATOM     23  H12 UNL     1      28.112  41.899 -14.773  1.00  0.00     0.278 HD
ATOM     24  H11 UNL     1      27.759  42.449 -13.366  1.00  0.00     0.278 HD
BRANCH  22  25
HETATM   25  C5  UNL     1      28.725  40.617 -13.262  1.00  0.00     0.186 C 
HETATM   26  C4  UNL     1      29.256  40.806 -11.888  1.00  0.00     0.033 C 
HETATM   27  C3  UNL     1      28.948  39.760 -10.889  1.00  0.00     0.006 C 
HETATM   28  C2  UNL     1      27.957  38.712 -11.333  1.00  0.00    -0.019 C 
HETATM   29  C1  UNL     1      28.558  37.635 -12.170  1.00  0.00     0.010 C 
HETATM   30  C28 UNL     1      26.851  39.419 -12.069  1.00  0.00     0.006 C 
HETATM   31  C27 UNL     1      27.408  39.923 -13.366  1.00  0.00     0.033 C 
ENDBRANCH  22  25
ENDBRANCH  19  22
ENDBRANCH  15  16
ENDBRANCH  14  15
ENDBRANCH   1  14
BRANCH   7  32
HETATM   32  C16 UNL     1      33.913  38.766  -7.015  1.00  0.00     0.076 C 
BRANCH  32  33
HETATM   33  C17 UNL     1      33.202  37.654  -7.692  1.00  0.00     0.007 C 
BRANCH  33  34
HETATM   34  C18 UNL     1      31.759  37.492  -7.465  1.00  0.00     0.002 C 
BRANCH  34  35
HETATM   35  C19 UNL     1      30.761  37.631  -8.523  1.00  0.00     0.020 C 
BRANCH  35  36
HETATM   36  C20 UNL     1      29.609  36.709  -8.618  1.00  0.00     0.122 C 
BRANCH  36  37
HETATM   37  N4  UNL     1      29.488  35.814  -7.496  1.00  0.00    -0.365 N 
HETATM   38  C21 UNL     1      28.349  35.032  -7.210  1.00  0.00     0.181 C 
HETATM   39  N5  UNL     1      27.281  35.176  -7.903  1.00  0.00    -0.374 N 
HETATM   40  N6  UNL     1      28.319  34.065  -6.176  1.00  0.00    -0.064 NA
ATOM     41  H52 UNL     1      27.303  35.872  -8.648  1.00  0.00     0.158 HD
ATOM     42  H51 UNL     1      26.458  34.610  -7.697  1.00  0.00     0.158 HD
ATOM     43  H4  UNL     1      30.283  35.741  -6.862  1.00  0.00     0.162 HD
ENDBRANCH  36  37
ENDBRANCH  35  36
ENDBRANCH  34  35
ENDBRANCH  33  34
ENDBRANCH  32  33
ENDBRANCH   7  32
TORSDOF 11
ENDMDL
MODEL 5
REMARK VINA RESULT: -8.798233990      2.758      9.419
REMARK  11 active torsions:
REMARK  status: ('A' for Active; 'I' for Inactive)
REMARK    1  A    between atoms: C5_5  and  N1_6 
REMARK    2  A    between atoms: N1_6  and  C6_9 
REMARK    3  A    between atoms: N2_12  and  C9_13 
REMARK    4  A    between atoms: C9_13  and  C10_14 
REMARK    5  A    between atoms: C10_14  and  C11_15 
REMARK    6  A    between atoms: C15_21  and  C16_22 
REMARK    7  A    between atoms: C16_22  and  C17_23 
REMARK    8  A    between atoms: C17_23  and  C18_24 
REMARK    9  A    between atoms: C18_24  and  C19_25 
REMARK   10  A    between atoms: C19_25  and  C20_26 
REMARK   11  A    between atoms: C20_26  and  N4_27 
REMARK       I    between atoms: N4_27  and  C21_29 
ROOT
HETATM    1  C11 UNL     1      37.245  36.928  -7.003  1.00  0.00    -0.055 A 
HETATM    2  C12 UNL     1      37.607  36.613  -8.317  1.00  0.00     0.009 A 
HETATM    3  C13 UNL     1      36.822  37.078  -9.344  1.00  0.00     0.031 A 
HETATM    4  C14 UNL     1      35.692  37.838  -9.127  1.00  0.00     0.049 A 
HETATM    5  N3  UNL     1      34.914  38.313 -10.110  1.00  0.00    -0.345 N 
ATOM      6  H3  UNL     1      35.166  38.095 -11.074  1.00  0.00     0.167 HD
HETATM    7  C15 UNL     1      33.828  39.055  -9.891  1.00  0.00     0.084 A 
HETATM    8  N7  UNL     1      33.473  39.357  -8.632  1.00  0.00    -0.312 N 
ATOM      9  H7  UNL     1      32.642  39.925  -8.467  1.00  0.00     0.170 HD
HETATM   10  C22 UNL     1      34.197  38.922  -7.587  1.00  0.00     0.259 A 
HETATM   11  O1  UNL     1      33.901  39.182  -6.393  1.00  0.00    -0.267 OA
HETATM   12  C23 UNL     1      35.312  38.159  -7.833  1.00  0.00     0.059 A 
HETATM   13  C24 UNL     1      36.120  37.682  -6.791  1.00  0.00     0.026 A 
ENDROOT
BRANCH   1  14
HETATM   14  C10 UNL     1      38.084  36.441  -5.871  1.00  0.00     0.068 C 
BRANCH  14  15
HETATM   15  C9  UNL     1      38.959  37.579  -5.408  1.00  0.00     0.277 C 
BRANCH  15  16
HETATM   16  N2  UNL     1      39.382  37.395  -4.066  1.00  0.00     0.088 N 
HETATM   17  C8  UNL     1      39.900  38.578  -3.414  1.00  0.00     0.274 C 
HETATM   18  C7  UNL     1      38.839  39.587  -3.121  1.00  0.00     0.063 C 
HETATM   19  C6  UNL     1      37.570  38.936  -2.676  1.00  0.00     0.189 C 
HETATM   20  C26 UNL     1      37.878  37.553  -2.147  1.00  0.00     0.063 C 
HETATM   21  C25 UNL     1      38.482  36.674  -3.226  1.00  0.00     0.274 C 
BRANCH  19  22
HETATM   22  N1  UNL     1      36.876  39.637  -1.621  1.00  0.00    -0.067 N 
ATOM     23  H12 UNL     1      36.937  39.131  -0.737  1.00  0.00     0.278 HD
ATOM     24  H11 UNL     1      35.866  39.605  -1.756  1.00  0.00     0.278 HD
BRANCH  22  25
HETATM   25  C5  UNL     1      37.352  41.024  -1.476  1.00  0.00     0.186 C 
HETATM   26  C4  UNL     1      36.595  41.853  -2.448  1.00  0.00     0.033 C 
HETATM   27  C3  UNL     1      36.370  43.274  -2.101  1.00  0.00     0.006 C 
HETATM   28  C2  UNL     1      36.770  43.670  -0.701  1.00  0.00    -0.019 C 
HETATM   29  C1  UNL     1      38.229  43.936  -0.546  1.00  0.00     0.010 C 
HETATM   30  C28 UNL     1      36.316  42.574   0.225  1.00  0.00     0.006 C 
HETATM   31  C27 UNL     1      37.166  41.367  -0.035  1.00  0.00     0.033 C 
ENDBRANCH  22  25
ENDBRANCH  19  22
ENDBRANCH  15  16
ENDBRANCH  14  15
ENDBRANCH   1  14
BRANCH   7  32
HETATM   32  C16 UNL     1      33.006  39.586 -11.061  1.00  0.00     0.076 C 
BRANCH  32  33
HETATM   33  C17 UNL     1      32.383  40.881 -10.694  1.00  0.00     0.007 C 
BRANCH  33  34
HETATM   34  C18 UNL     1      33.012  42.127 -11.156  1.00  0.00     0.002 C 
BRANCH  34  35
HETATM   35  C19 UNL     1      33.301  43.254 -10.273  1.00  0.00     0.020 C 
BRANCH  35  36
HETATM   36  C20 UNL     1      33.298  43.097  -8.802  1.00  0.00     0.122 C 
BRANCH  36  37
HETATM   37  N4  UNL     1      34.577  42.720  -8.257  1.00  0.00    -0.365 N 
HETATM   38  C21 UNL     1      34.805  42.364  -6.911  1.00  0.00     0.181 C 
HETATM   39  N5  UNL     1      33.863  42.477  -6.049  1.00  0.00    -0.374 N 
HETATM   40  N6  UNL     1      36.047  41.871  -6.445  1.00  0.00    -0.064 NA
ATOM     41  H52 UNL     1      32.968  42.833  -6.386  1.00  0.00     0.158 HD
ATOM     42  H51 UNL     1      34.027  42.220  -5.076  1.00  0.00     0.158 HD
ATOM     43  H4  UNL     1      35.376  42.710  -8.890  1.00  0.00     0.162 HD
ENDBRANCH  36  37
ENDBRANCH  35  36
ENDBRANCH  34  35
ENDBRANCH  33  34
ENDBRANCH  32  33
ENDBRANCH   7  32
TORSDOF 11
ENDMDL
