MODEL 1
REMARK VINA RESULT: -6.766461141      0.000      0.000
REMARK  12 active torsions:
REMARK  status: ('A' for Active; 'I' for Inactive)
REMARK    1  A    between atoms: C2_2  and  C3_4 
REMARK    2  A    between atoms: C3_4  and  C4_5 
REMARK    3  A    between atoms: C4_5  and  C5_6 
REMARK    4  A    between atoms: C5_6  and  C6_7 
REMARK    5  A    between atoms: C6_7  and  C7_8 
REMARK    6  A    between atoms: C7_8  and  C8_9 
REMARK    7  A    between atoms: C10_14  and  C11_15 
REMARK    8  A    between atoms: C11_15  and  C12_16 
REMARK    9  A    between atoms: C15_21  and  O3_22 
REMARK   10  A    between atoms: C16_24  and  C17_25 
REMARK   11  A    between atoms: C17_25  and  C18_26 
REMARK   12  A    between atoms: C21_31  and  C22_32 
ROOT
HETATM    1  C8  UNL     1      33.455  40.900  -8.542  1.00  0.00     0.177 C 
HETATM    2  N1  UNL     1      33.776  40.504  -9.958  1.00  0.00    -0.346 N 
ATOM      3  H1  UNL     1      34.758  40.436 -10.224  1.00  0.00     0.163 HD
HETATM    4  C9  UNL     1      32.820  40.225 -10.920  1.00  0.00     0.241 C 
HETATM    5  O2  UNL     1      33.194  39.597 -11.973  1.00  0.00    -0.271 OA
HETATM    6  C10 UNL     1      31.383  40.594 -10.849  1.00  0.00     0.175 C 
HETATM    7  N2  UNL     1      30.518  39.773 -10.094  1.00  0.00    -0.359 N 
ATOM      8  H2  UNL     1      29.876  40.350  -9.549  1.00  0.00     0.162 HD
HETATM    9  C15 UNL     1      30.265  38.432  -9.860  1.00  0.00     0.135 C 
HETATM   10  C16 UNL     1      31.020  37.248  -9.561  1.00  0.00     0.152 C 
HETATM   11  N3  UNL     1      32.400  37.236  -9.557  1.00  0.00    -0.399 N 
ATOM     12  H3  UNL     1      32.825  37.272 -10.484  1.00  0.00     0.154 HD
HETATM   13  C21 UNL     1      33.284  37.186  -8.537  1.00  0.00     0.148 C 
HETATM   14  C25 UNL     1      33.084  37.904  -7.272  1.00  0.00     0.100 C 
HETATM   15  N4  UNL     1      32.141  37.569  -6.431  1.00  0.00    -0.387 N 
ATOM     16  H41 UNL     1      32.001  38.069  -5.552  1.00  0.00     0.157 HD
ATOM     17  H42 UNL     1      31.566  36.783  -6.735  1.00  0.00     0.157 HD
HETATM   18  N5  UNL     1      33.884  39.000  -6.849  1.00  0.00    -0.314 N 
ATOM     19  H5  UNL     1      34.162  39.017  -5.868  1.00  0.00     0.170 HD
HETATM   20  C26 UNL     1      34.333  40.079  -7.667  1.00  0.00     0.245 C 
HETATM   21  O4  UNL     1      35.560  40.363  -7.655  1.00  0.00    -0.271 OA
ENDROOT
BRANCH   1  22
HETATM   22  C7  UNL     1      33.767  42.347  -8.443  1.00  0.00     0.035 C 
BRANCH  22  23
HETATM   23  C6  UNL     1      32.715  43.382  -8.566  1.00  0.00     0.002 C 
BRANCH  23  24
HETATM   24  C5  UNL     1      32.445  44.011  -9.862  1.00  0.00     0.000 C 
BRANCH  24  25
HETATM   25  C4  UNL     1      33.486  43.963 -10.924  1.00  0.00     0.007 C 
BRANCH  25  26
HETATM   26  C3  UNL     1      33.082  44.026 -12.339  1.00  0.00     0.077 C 
BRANCH  26  27
HETATM   27  C2  UNL     1      33.106  45.309 -13.004  1.00  0.00     0.123 C 
HETATM   28  C1  UNL     1      32.782  45.385 -14.471  1.00  0.00     0.091 C 
HETATM   29  O1  UNL     1      33.372  46.351 -12.476  1.00  0.00    -0.298 OA
ENDBRANCH  26  27
ENDBRANCH  25  26
ENDBRANCH  24  25
ENDBRANCH  23  24
ENDBRANCH  22  23
ENDBRANCH   1  22
BRANCH   6  30
HETATM   30  C11 UNL     1      30.905  40.979 -12.239  1.00  0.00     0.038 C 
BRANCH  30  31
HETATM   31  C12 UNL     1      29.589  41.700 -12.234  1.00  0.00    -0.020 C 
HETATM   32  C13 UNL     1      28.566  40.737 -12.853  1.00  0.00     0.009 C 
HETATM   33  C14 UNL     1      29.558  42.938 -13.077  1.00  0.00     0.009 C 
ENDBRANCH  30  31
ENDBRANCH   6  30
BRANCH  13  34
HETATM   34  C22 UNL     1      33.612  35.701  -8.255  1.00  0.00     0.007 C 
HETATM   35  C23 UNL     1      33.847  34.933  -9.511  1.00  0.00     0.012 C 
HETATM   36  C24 UNL     1      34.775  35.542  -7.336  1.00  0.00     0.012 C 
ENDBRANCH  13  34
BRANCH   9  37
HETATM   37  O3  UNL     1      28.984  38.097  -9.907  1.00  0.00    -0.348 OA
ATOM     38  H3  UNL     1      28.708  37.497  -9.224  1.00  0.00     0.219 HD
ENDBRANCH   9  37
BRANCH  10  39
HETATM   39  C17 UNL     1      30.576  36.061 -10.357  1.00  0.00     0.037 C 
BRANCH  39  40
HETATM   40  C18 UNL     1      30.129  34.833  -9.697  1.00  0.00    -0.020 C 
HETATM   41  C19 UNL     1      29.904  35.127  -8.171  1.00  0.00     0.009 C 
HETATM   42  C20 UNL     1      28.798  34.256 -10.099  1.00  0.00     0.009 C 
ENDBRANCH  39  40
ENDBRANCH  10  39
TORSDOF 12
ENDMDL
MODEL 2
REMARK VINA RESULT: -6.549683492      2.688      4.942
REMARK  12 active torsions:
REMARK  status: ('A' for Active; 'I' for Inactive)
REMARK    1  A    between atoms: C2_2  and  C3_4 
REMARK    2  A    between atoms: C3_4  and  C4_5 
REMARK    3  A    between atoms: C4_5  and  C5_6 
REMARK    4  A    between atoms: C5_6  and  C6_7 
REMARK    5  A    between atoms: C6_7  and  C7_8 
REMARK    6  A    between atoms: C7_8  and  C8_9 
REMARK    7  A    between atoms: C10_14  and  C11_15 
REMARK    8  A    between atoms: C11_15  and  C12_16 
REMARK    9  A    between atoms: C15_21  and  O3_22 
REMARK   10  A    between atoms: C16_24  and  C17_25 
REMARK   11  A    between atoms: C17_25  and  C18_26 
REMARK   12  A    between atoms: C21_31  and  C22_32 
ROOT
HETATM    1  C8  UNL     1      33.421  39.020  -7.772  1.00  0.00     0.177 C 
HETATM    2  N1  UNL     1      33.931  39.093  -9.186  1.00  0.00    -0.346 N 
ATOM      3  H1  UNL     1      34.765  38.556  -9.422  1.00  0.00     0.163 HD
HETATM    4  C9  UNL     1      33.335  39.843 -10.187  1.00  0.00     0.241 C 
HETATM    5  O2  UNL     1      33.651  39.583 -11.401  1.00  0.00    -0.271 OA
HETATM    6  C10 UNL     1      32.354  40.939  -9.982  1.00  0.00     0.175 C 
HETATM    7  N2  UNL     1      31.002  40.596  -9.764  1.00  0.00    -0.359 N 
ATOM      8  H2  UNL     1      30.609  41.177  -9.023  1.00  0.00     0.162 HD
HETATM    9  C15 UNL     1      30.041  39.720 -10.240  1.00  0.00     0.135 C 
HETATM   10  C16 UNL     1      29.943  38.322 -10.552  1.00  0.00     0.152 C 
HETATM   11  N3  UNL     1      31.037  37.481 -10.514  1.00  0.00    -0.399 N 
ATOM     12  H3  UNL     1      31.692  37.606 -11.285  1.00  0.00     0.154 HD
HETATM   13  C21 UNL     1      31.389  36.521  -9.630  1.00  0.00     0.148 C 
HETATM   14  C25 UNL     1      31.189  36.659  -8.182  1.00  0.00     0.100 C 
HETATM   15  N4  UNL     1      29.995  36.670  -7.649  1.00  0.00    -0.387 N 
ATOM     16  H41 UNL     1      29.856  36.766  -6.642  1.00  0.00     0.157 HD
ATOM     17  H42 UNL     1      29.233  36.582  -8.322  1.00  0.00     0.157 HD
HETATM   18  N5  UNL     1      32.250  36.782  -7.244  1.00  0.00    -0.314 N 
ATOM     19  H5  UNL     1      32.165  36.249  -6.379  1.00  0.00     0.170 HD
HETATM   20  C26 UNL     1      33.422  37.580  -7.399  1.00  0.00     0.245 C 
HETATM   21  O4  UNL     1      34.541  37.035  -7.212  1.00  0.00    -0.271 OA
ENDROOT
BRANCH   1  22
HETATM   22  C7  UNL     1      34.376  39.806  -6.955  1.00  0.00     0.035 C 
BRANCH  22  23
HETATM   23  C6  UNL     1      34.495  41.276  -7.092  1.00  0.00     0.002 C 
BRANCH  23  24
HETATM   24  C5  UNL     1      34.794  42.105  -5.920  1.00  0.00     0.000 C 
BRANCH  24  25
HETATM   25  C4  UNL     1      35.978  41.778  -5.082  1.00  0.00     0.007 C 
BRANCH  25  26
HETATM   26  C3  UNL     1      35.962  42.104  -3.645  1.00  0.00     0.077 C 
BRANCH  26  27
HETATM   27  C2  UNL     1      37.165  42.637  -3.048  1.00  0.00     0.123 C 
HETATM   28  C1  UNL     1      37.054  43.702  -1.992  1.00  0.00     0.091 C 
HETATM   29  O1  UNL     1      38.279  42.297  -3.328  1.00  0.00    -0.298 OA
ENDBRANCH  26  27
ENDBRANCH  25  26
ENDBRANCH  24  25
ENDBRANCH  23  24
ENDBRANCH  22  23
ENDBRANCH   1  22
BRANCH   6  30
HETATM   30  C11 UNL     1      32.616  42.031 -11.007  1.00  0.00     0.038 C 
BRANCH  30  31
HETATM   31  C12 UNL     1      33.373  43.200 -10.447  1.00  0.00    -0.020 C 
HETATM   32  C13 UNL     1      32.665  43.587  -9.141  1.00  0.00     0.009 C 
HETATM   33  C14 UNL     1      33.351  44.422 -11.312  1.00  0.00     0.009 C 
ENDBRANCH  30  31
ENDBRANCH   6  30
BRANCH  13  34
HETATM   34  C22 UNL     1      30.802  35.176 -10.119  1.00  0.00     0.007 C 
HETATM   35  C23 UNL     1      31.045  34.958 -11.574  1.00  0.00     0.012 C 
HETATM   36  C24 UNL     1      31.316  34.016  -9.337  1.00  0.00     0.012 C 
ENDBRANCH  13  34
BRANCH   9  37
HETATM   37  O3  UNL     1      28.864  40.275 -10.485  1.00  0.00    -0.348 OA
ATOM     38  H3  UNL     1      28.273  39.737 -11.000  1.00  0.00     0.219 HD
ENDBRANCH   9  37
BRANCH  10  39
HETATM   39  C17 UNL     1      29.240  38.064 -11.846  1.00  0.00     0.037 C 
BRANCH  39  40
HETATM   40  C18 UNL     1      28.040  37.228 -11.901  1.00  0.00    -0.020 C 
HETATM   41  C19 UNL     1      27.525  36.979 -10.438  1.00  0.00     0.009 C 
HETATM   42  C20 UNL     1      26.813  37.788 -12.569  1.00  0.00     0.009 C 
ENDBRANCH  39  40
ENDBRANCH  10  39
TORSDOF 12
ENDMDL
MODEL 3
REMARK VINA RESULT: -6.495810456      1.252      1.406
REMARK  12 active torsions:
REMARK  status: ('A' for Active; 'I' for Inactive)
REMARK    1  A    between atoms: C2_2  and  C3_4 
REMARK    2  A    between atoms: C3_4  and  C4_5 
REMARK    3  A    between atoms: C4_5  and  C5_6 
REMARK    4  A    between atoms: C5_6  and  C6_7 
REMARK    5  A    between atoms: C6_7  and  C7_8 
REMARK    6  A    between atoms: C7_8  and  C8_9 
REMARK    7  A    between atoms: C10_14  and  C11_15 
REMARK    8  A    between atoms: C11_15  and  C12_16 
REMARK    9  A    between atoms: C15_21  and  O3_22 
REMARK   10  A    between atoms: C16_24  and  C17_25 
REMARK   11  A    between atoms: C17_25  and  C18_26 
REMARK   12  A    between atoms: C21_31  and  C22_32 
ROOT
HETATM    1  C8  UNL     1      33.353  40.354  -8.919  1.00  0.00     0.177 C 
HETATM    2  N1  UNL     1      33.592  40.089 -10.381  1.00  0.00    -0.346 N 
ATOM      3  H1  UNL     1      34.517  39.768 -10.664  1.00  0.00     0.163 HD
HETATM    4  C9  UNL     1      32.631  40.255 -11.365  1.00  0.00     0.241 C 
HETATM    5  O2  UNL     1      32.837  39.704 -12.503  1.00  0.00    -0.271 OA
HETATM    6  C10 UNL     1      31.369  41.026 -11.225  1.00  0.00     0.175 C 
HETATM    7  N2  UNL     1      30.271  40.404 -10.593  1.00  0.00    -0.359 N 
ATOM      8  H2  UNL     1      29.813  41.061  -9.961  1.00  0.00     0.162 HD
HETATM    9  C15 UNL     1      29.619  39.183 -10.559  1.00  0.00     0.135 C 
HETATM   10  C16 UNL     1      29.973  37.796 -10.449  1.00  0.00     0.152 C 
HETATM   11  N3  UNL     1      31.285  37.368 -10.460  1.00  0.00    -0.399 N 
ATOM     12  H3  UNL     1      31.734  37.408 -11.375  1.00  0.00     0.154 HD
HETATM   13  C21 UNL     1      32.077  36.905  -9.467  1.00  0.00     0.148 C 
HETATM   14  C25 UNL     1      32.056  37.458  -8.108  1.00  0.00     0.100 C 
HETATM   15  N4  UNL     1      31.026  37.305  -7.317  1.00  0.00    -0.387 N 
ATOM     16  H41 UNL     1      31.011  37.689  -6.372  1.00  0.00     0.157 HD
ATOM     17  H42 UNL     1      30.253  36.781  -7.729  1.00  0.00     0.157 HD
HETATM   18  N5  UNL     1      33.131  38.187  -7.533  1.00  0.00    -0.314 N 
ATOM     19  H5  UNL     1      33.367  37.976  -6.564  1.00  0.00     0.170 HD
HETATM   20  C26 UNL     1      33.913  39.188  -8.185  1.00  0.00     0.245 C 
HETATM   21  O4  UNL     1      35.167  39.083  -8.143  1.00  0.00    -0.271 OA
ENDROOT
BRANCH   1  22
HETATM   22  C7  UNL     1      34.081  41.608  -8.608  1.00  0.00     0.035 C 
BRANCH  22  23
HETATM   23  C6  UNL     1      33.376  42.823  -8.139  1.00  0.00     0.002 C 
BRANCH  23  24
HETATM   24  C5  UNL     1      32.514  43.577  -9.054  1.00  0.00     0.000 C 
BRANCH  24  25
HETATM   25  C4  UNL     1      33.079  44.079 -10.335  1.00  0.00     0.007 C 
BRANCH  25  26
HETATM   26  C3  UNL     1      32.283  45.000 -11.166  1.00  0.00     0.077 C 
BRANCH  26  27
HETATM   27  C2  UNL     1      32.920  45.622 -12.304  1.00  0.00     0.123 C 
HETATM   28  C1  UNL     1      33.159  44.812 -13.548  1.00  0.00     0.091 C 
HETATM   29  O1  UNL     1      33.289  46.761 -12.347  1.00  0.00    -0.298 OA
ENDBRANCH  26  27
ENDBRANCH  25  26
ENDBRANCH  24  25
ENDBRANCH  23  24
ENDBRANCH  22  23
ENDBRANCH   1  22
BRANCH   6  30
HETATM   30  C11 UNL     1      31.079  41.736 -12.537  1.00  0.00     0.038 C 
BRANCH  30  31
HETATM   31  C12 UNL     1      29.665  42.227 -12.645  1.00  0.00    -0.020 C 
HETATM   32  C13 UNL     1      28.971  41.324 -13.674  1.00  0.00     0.009 C 
HETATM   33  C14 UNL     1      29.533  43.626 -13.163  1.00  0.00     0.009 C 
ENDBRANCH  30  31
ENDBRANCH   6  30
BRANCH  13  34
HETATM   34  C22 UNL     1      31.934  35.365  -9.414  1.00  0.00     0.007 C 
HETATM   35  C23 UNL     1      32.010  34.751 -10.771  1.00  0.00     0.012 C 
HETATM   36  C24 UNL     1      32.938  34.734  -8.513  1.00  0.00     0.012 C 
ENDBRANCH  13  34
BRANCH   9  37
HETATM   37  O3  UNL     1      28.300  39.261 -10.643  1.00  0.00    -0.348 OA
ATOM     38  H3  UNL     1      27.851  38.425 -10.592  1.00  0.00     0.219 HD
ENDBRANCH   9  37
BRANCH  10  39
HETATM   39  C17 UNL     1      29.223  36.928 -11.408  1.00  0.00     0.037 C 
BRANCH  39  40
HETATM   40  C18 UNL     1      28.379  35.830 -10.933  1.00  0.00    -0.020 C 
HETATM   41  C19 UNL     1      28.244  35.929  -9.372  1.00  0.00     0.009 C 
HETATM   42  C20 UNL     1      26.937  35.804 -11.367  1.00  0.00     0.009 C 
ENDBRANCH  39  40
ENDBRANCH  10  39
TORSDOF 12
ENDMDL
MODEL 4
REMARK VINA RESULT: -6.480269986      1.472      2.021
REMARK  12 active torsions:
REMARK  status: ('A' for Active; 'I' for Inactive)
REMARK    1  A    between atoms: C2_2  and  C3_4 
REMARK    2  A    between atoms: C3_4  and  C4_5 
REMARK    3  A    between atoms: C4_5  and  C5_6 
REMARK    4  A    between atoms: C5_6  and  C6_7 
REMARK    5  A    between atoms: C6_7  and  C7_8 
REMARK    6  A    between atoms: C7_8  and  C8_9 
REMARK    7  A    between atoms: C10_14  and  C11_15 
REMARK    8  A    between atoms: C11_15  and  C12_16 
REMARK    9  A    between atoms: C15_21  and  O3_22 
REMARK   10  A    between atoms: C16_24  and  C17_25 
REMARK   11  A    between atoms: C17_25  and  C18_26 
REMARK   12  A    between atoms: C21_31  and  C22_32 
ROOT
HETATM    1  C8  UNL     1      32.836  42.236  -8.951  1.00  0.00     0.177 C 
HETATM    2  N1  UNL     1      33.252  41.671 -10.282  1.00  0.00    -0.346 N 
ATOM      3  H1  UNL     1      34.156  41.952 -10.660  1.00  0.00     0.163 HD
HETATM    4  C9  UNL     1      32.481  40.792 -11.025  1.00  0.00     0.241 C 
HETATM    5  O2  UNL     1      33.056  40.135 -11.964  1.00  0.00    -0.271 OA
HETATM    6  C10 UNL     1      31.030  40.538 -10.838  1.00  0.00     0.175 C 
HETATM    7  N2  UNL     1      30.632  39.649  -9.816  1.00  0.00    -0.359 N 
ATOM      8  H2  UNL     1      29.822  40.023  -9.323  1.00  0.00     0.162 HD
HETATM    9  C15 UNL     1      30.994  38.427  -9.273  1.00  0.00     0.135 C 
HETATM   10  C16 UNL     1      32.198  37.777  -8.839  1.00  0.00     0.152 C 
HETATM   11  N3  UNL     1      33.445  38.339  -9.020  1.00  0.00    -0.399 N 
ATOM     12  H3  UNL     1      33.783  38.316  -9.983  1.00  0.00     0.154 HD
HETATM   13  C21 UNL     1      34.296  38.914  -8.142  1.00  0.00     0.148 C 
HETATM   14  C25 UNL     1      33.845  39.774  -7.042  1.00  0.00     0.100 C 
HETATM   15  N4  UNL     1      33.169  39.300  -6.028  1.00  0.00    -0.387 N 
ATOM     16  H41 UNL     1      32.855  39.898  -5.264  1.00  0.00     0.157 HD
ATOM     17  H42 UNL     1      32.984  38.298  -6.079  1.00  0.00     0.157 HD
HETATM   18  N5  UNL     1      34.103  41.170  -6.971  1.00  0.00    -0.314 N 
ATOM     19  H5  UNL     1      34.378  41.544  -6.063  1.00  0.00     0.170 HD
HETATM   20  C26 UNL     1      34.012  42.098  -8.051  1.00  0.00     0.245 C 
HETATM   21  O4  UNL     1      34.993  42.857  -8.267  1.00  0.00    -0.271 OA
ENDROOT
BRANCH   1  22
HETATM   22  C7  UNL     1      32.492  43.657  -9.203  1.00  0.00     0.035 C 
BRANCH  22  23
HETATM   23  C6  UNL     1      32.929  44.360 -10.430  1.00  0.00     0.002 C 
BRANCH  23  24
HETATM   24  C5  UNL     1      31.937  44.886 -11.373  1.00  0.00     0.000 C 
BRANCH  24  25
HETATM   25  C4  UNL     1      31.455  44.018 -12.480  1.00  0.00     0.007 C 
BRANCH  25  26
HETATM   26  C3  UNL     1      32.382  43.637 -13.560  1.00  0.00     0.077 C 
BRANCH  26  27
HETATM   27  C2  UNL     1      32.809  44.657 -14.490  1.00  0.00     0.123 C 
HETATM   28  C1  UNL     1      31.969  44.944 -15.704  1.00  0.00     0.091 C 
HETATM   29  O1  UNL     1      33.804  45.315 -14.380  1.00  0.00    -0.298 OA
ENDBRANCH  26  27
ENDBRANCH  25  26
ENDBRANCH  24  25
ENDBRANCH  23  24
ENDBRANCH  22  23
ENDBRANCH   1  22
BRANCH   6  30
HETATM   30  C11 UNL     1      30.387  40.332 -12.199  1.00  0.00     0.038 C 
BRANCH  30  31
HETATM   31  C12 UNL     1      29.055  41.011 -12.334  1.00  0.00    -0.020 C 
HETATM   32  C13 UNL     1      27.996  39.901 -12.274  1.00  0.00     0.009 C 
HETATM   33  C14 UNL     1      28.848  41.714 -13.641  1.00  0.00     0.009 C 
ENDBRANCH  30  31
ENDBRANCH   6  30
BRANCH  13  34
HETATM   34  C22 UNL     1      35.246  37.819  -7.602  1.00  0.00     0.007 C 
HETATM   35  C23 UNL     1      35.916  37.069  -8.703  1.00  0.00     0.012 C 
HETATM   36  C24 UNL     1      36.267  38.366  -6.665  1.00  0.00     0.012 C 
ENDBRANCH  13  34
BRANCH   9  37
HETATM   37  O3  UNL     1      29.986  37.593  -9.074  1.00  0.00    -0.348 OA
ATOM     38  H3  UNL     1      29.532  37.325  -9.865  1.00  0.00     0.219 HD
ENDBRANCH   9  37
BRANCH  10  39
HETATM   39  C17 UNL     1      32.288  36.356  -9.299  1.00  0.00     0.037 C 
BRANCH  39  40
HETATM   40  C18 UNL     1      32.622  35.279  -8.365  1.00  0.00    -0.020 C 
HETATM   41  C19 UNL     1      31.310  34.500  -7.995  1.00  0.00     0.009 C 
HETATM   42  C20 UNL     1      33.514  34.169  -8.852  1.00  0.00     0.009 C 
ENDBRANCH  39  40
ENDBRANCH  10  39
TORSDOF 12
ENDMDL
MODEL 5
REMARK VINA RESULT: -6.286517416      2.722      6.885
REMARK  12 active torsions:
REMARK  status: ('A' for Active; 'I' for Inactive)
REMARK    1  A    between atoms: C2_2  and  C3_4 
REMARK    2  A    between atoms: C3_4  and  C4_5 
REMARK    3  A    between atoms: C4_5  and  C5_6 
REMARK    4  A    between atoms: C5_6  and  C6_7 
REMARK    5  A    between atoms: C6_7  and  C7_8 
REMARK    6  A    between atoms: C7_8  and  C8_9 
REMARK    7  A    between atoms: C10_14  and  C11_15 
REMARK    8  A    between atoms: C11_15  and  C12_16 
REMARK    9  A    between atoms: C15_21  and  O3_22 
REMARK   10  A    between atoms: C16_24  and  C17_25 
REMARK   11  A    between atoms: C17_25  and  C18_26 
REMARK   12  A    between atoms: C21_31  and  C22_32 
ROOT
HETATM    1  C8  UNL     1      33.085  42.796 -10.330  1.00  0.00     0.177 C 
HETATM    2  N1  UNL     1      31.918  42.011  -9.795  1.00  0.00    -0.346 N 
ATOM      3  H1  UNL     1      31.203  42.515  -9.271  1.00  0.00     0.163 HD
HETATM    4  C9  UNL     1      31.756  40.647  -9.971  1.00  0.00     0.241 C 
HETATM    5  O2  UNL     1      30.594  40.148  -9.762  1.00  0.00    -0.271 OA
HETATM    6  C10 UNL     1      32.817  39.693 -10.383  1.00  0.00     0.175 C 
HETATM    7  N2  UNL     1      33.132  39.591 -11.755  1.00  0.00    -0.359 N 
ATOM      8  H2  UNL     1      34.143  39.540 -11.879  1.00  0.00     0.162 HD
HETATM    9  C15 UNL     1      32.501  39.539 -12.986  1.00  0.00     0.135 C 
HETATM   10  C16 UNL     1      31.459  40.249 -13.674  1.00  0.00     0.152 C 
HETATM   11  N3  UNL     1      30.705  41.227 -13.058  1.00  0.00    -0.399 N 
ATOM     12  H3  UNL     1      30.020  40.873 -12.390  1.00  0.00     0.154 HD
HETATM   13  C21 UNL     1      30.717  42.572 -13.188  1.00  0.00     0.148 C 
HETATM   14  C25 UNL     1      31.954  43.345 -13.354  1.00  0.00     0.100 C 
HETATM   15  N4  UNL     1      32.677  43.264 -14.440  1.00  0.00    -0.387 N 
ATOM     16  H41 UNL     1      33.537  43.801 -14.556  1.00  0.00     0.157 HD
ATOM     17  H42 UNL     1      32.311  42.620 -15.142  1.00  0.00     0.157 HD
HETATM   18  N5  UNL     1      32.464  44.242 -12.377  1.00  0.00    -0.314 N 
ATOM     19  H5  UNL     1      32.830  45.132 -12.713  1.00  0.00     0.170 HD
HETATM   20  C26 UNL     1      32.514  44.012 -10.969  1.00  0.00     0.245 C 
HETATM   21  O4  UNL     1      32.042  44.896 -10.206  1.00  0.00    -0.271 OA
ENDROOT
BRANCH   1  22
HETATM   22  C7  UNL     1      33.925  43.129  -9.154  1.00  0.00     0.035 C 
BRANCH  22  23
HETATM   23  C6  UNL     1      33.475  42.853  -7.771  1.00  0.00     0.002 C 
BRANCH  23  24
HETATM   24  C5  UNL     1      34.224  41.922  -6.922  1.00  0.00     0.000 C 
BRANCH  24  25
HETATM   25  C4  UNL     1      35.000  42.453  -5.770  1.00  0.00     0.007 C 
BRANCH  25  26
HETATM   26  C3  UNL     1      35.875  41.546  -5.005  1.00  0.00     0.077 C 
BRANCH  26  27
HETATM   27  C2  UNL     1      36.787  42.121  -4.043  1.00  0.00     0.123 C 
HETATM   28  C1  UNL     1      36.443  42.067  -2.580  1.00  0.00     0.091 C 
HETATM   29  O1  UNL     1      37.824  42.656  -4.314  1.00  0.00    -0.298 OA
ENDBRANCH  26  27
ENDBRANCH  25  26
ENDBRANCH  24  25
ENDBRANCH  23  24
ENDBRANCH  22  23
ENDBRANCH   1  22
BRANCH   6  30
HETATM   30  C11 UNL     1      32.616  38.383  -9.638  1.00  0.00     0.038 C 
BRANCH  30  31
HETATM   31  C12 UNL     1      33.693  38.102  -8.631  1.00  0.00    -0.020 C 
HETATM   32  C13 UNL     1      33.099  38.439  -7.257  1.00  0.00     0.009 C 
HETATM   33  C14 UNL     1      34.915  38.956  -8.778  1.00  0.00     0.009 C 
ENDBRANCH  30  31
ENDBRANCH   6  30
BRANCH  13  34
HETATM   34  C22 UNL     1      29.699  42.960 -14.287  1.00  0.00     0.007 C 
HETATM   35  C23 UNL     1      28.439  42.170 -14.184  1.00  0.00     0.012 C 
HETATM   36  C24 UNL     1      29.388  44.417 -14.282  1.00  0.00     0.012 C 
ENDBRANCH  13  34
BRANCH   9  37
HETATM   37  O3  UNL     1      32.950  38.592 -13.795  1.00  0.00    -0.348 OA
ATOM     38  H3  UNL     1      33.683  38.852 -14.340  1.00  0.00     0.219 HD
ENDBRANCH   9  37
BRANCH  10  39
HETATM   39  C17 UNL     1      30.503  39.339 -14.377  1.00  0.00     0.037 C 
BRANCH  39  40
HETATM   40  C18 UNL     1      29.389  38.714 -13.662  1.00  0.00    -0.020 C 
HETATM   41  C19 UNL     1      28.237  38.405 -14.683  1.00  0.00     0.009 C 
HETATM   42  C20 UNL     1      29.616  37.365 -13.035  1.00  0.00     0.009 C 
ENDBRANCH  39  40
ENDBRANCH  10  39
TORSDOF 12
ENDMDL
