MODEL 1
REMARK VINA RESULT: -8.627520709      0.000      0.000
REMARK  11 active torsions:
REMARK  status: ('A' for Active; 'I' for Inactive)
REMARK    1  A    between atoms: N1_2  and  C2_5 
REMARK    2  A    between atoms: N2_11  and  C7_12 
REMARK    3  A    between atoms: C7_12  and  C8_13 
REMARK       I    between atoms: C8_13  and  N3_15 
REMARK    4  A    between atoms: N3_15  and  C9_17 
REMARK    5  A    between atoms: C9_17  and  C10_18 
REMARK    6  A    between atoms: C13_25  and  C14_26 
REMARK    7  A    between atoms: C14_26  and  C15_27 
REMARK    8  A    between atoms: C18_32  and  N6_33 
REMARK    9  A    between atoms: N6_33  and  C19_36 
REMARK   10  A    between atoms: C19_36  and  C20_37 
REMARK   11  A    between atoms: C20_37  and  C21_38 
ROOT
HETATM    1  C2  UNL     1      32.794  39.476 -12.471  1.00  0.00     0.216 C 
HETATM    2  C3  UNL     1      33.546  38.386 -11.749  1.00  0.00     0.036 C 
HETATM    3  C4  UNL     1      33.833  38.741 -10.316  1.00  0.00     0.017 C 
HETATM    4  C5  UNL     1      32.675  39.366  -9.604  1.00  0.00     0.084 C 
HETATM    5  C6  UNL     1      33.189  40.087  -8.407  1.00  0.00     0.225 C 
HETATM    6  O1  UNL     1      33.453  39.482  -7.328  1.00  0.00    -0.273 OA
HETATM    7  N2  UNL     1      33.384  41.466  -8.482  1.00  0.00    -0.338 N 
HETATM    8  C13 UNL     1      33.459  42.049  -9.830  1.00  0.00     0.098 C 
HETATM    9  C16 UNL     1      32.133  41.692 -10.462  1.00  0.00     0.033 C 
HETATM   10  C17 UNL     1      31.782  40.224 -10.386  1.00  0.00     0.033 C 
HETATM   11  C18 UNL     1      31.498  39.673 -11.763  1.00  0.00     0.221 C 
ENDROOT
BRANCH   7  12
HETATM   12  C7  UNL     1      33.505  42.278  -7.311  1.00  0.00     0.228 C 
BRANCH  12  13
HETATM   13  C8  UNL     1      34.835  42.083  -6.632  1.00  0.00     0.235 C 
HETATM   14  O2  UNL     1      35.803  41.793  -7.379  1.00  0.00    -0.272 OA
HETATM   15  N3  UNL     1      34.937  42.233  -5.231  1.00  0.00    -0.353 N 
ATOM     16  H3  UNL     1      34.106  42.474  -4.691  1.00  0.00     0.162 HD
BRANCH  15  17
HETATM   17  C9  UNL     1      36.191  42.052  -4.555  1.00  0.00     0.199 C 
BRANCH  17  18
HETATM   18  C10 UNL     1      35.999  42.266  -3.106  1.00  0.00     0.099 A 
HETATM   19  N4  UNL     1      36.609  43.155  -2.307  1.00  0.00    -0.353 N 
HETATM   20  C11 UNL     1      36.149  43.042  -1.053  1.00  0.00     0.106 A 
ATOM     21  H4  UNL     1      37.320  43.821  -2.610  1.00  0.00     0.166 HD
HETATM   22  C12 UNL     1      35.204  42.037  -1.055  1.00  0.00     0.106 A 
HETATM   23  N5  UNL     1      35.144  41.589  -2.331  1.00  0.00    -0.353 N 
ATOM     24  H5  UNL     1      34.533  40.840  -2.657  1.00  0.00     0.166 HD
ENDBRANCH  17  18
ENDBRANCH  15  17
ENDBRANCH  12  13
ENDBRANCH   7  12
BRANCH   8  25
HETATM   25  C14 UNL     1      33.513  43.550  -9.704  1.00  0.00     0.138 C 
BRANCH  25  26
HETATM   26  C15 UNL     1      33.032  44.183 -10.940  1.00  0.00     0.174 C 
HETATM   27  O3  UNL     1      33.484  44.003 -12.080  1.00  0.00    -0.648 OA
HETATM   28  O4  UNL     1      31.967  45.073 -10.819  1.00  0.00    -0.648 OA
ENDBRANCH  25  26
ENDBRANCH   8  25
BRANCH  11  29
HETATM   29  N6  UNL     1      30.825  38.361 -11.624  1.00  0.00    -0.069 N 
ATOM     30  H62 UNL     1      31.063  37.722 -12.383  1.00  0.00     0.277 HD
ATOM     31  H61 UNL     1      31.203  37.814 -10.851  1.00  0.00     0.277 HD
BRANCH  29  32
HETATM   32  C19 UNL     1      29.404  38.562 -11.506  1.00  0.00     0.233 C 
BRANCH  32  33
HETATM   33  C20 UNL     1      28.713  38.164 -10.278  1.00  0.00     0.032 C 
BRANCH  33  34
HETATM   34  C21 UNL     1      28.935  36.834  -9.677  1.00  0.00    -0.013 C 
HETATM   35  C22 UNL     1      27.535  36.381  -9.122  1.00  0.00     0.005 C 
HETATM   36  C23 UNL     1      27.648  35.012  -8.540  1.00  0.00     0.000 C 
HETATM   37  C24 UNL     1      28.513  35.099  -7.292  1.00  0.00     0.000 C 
HETATM   38  C25 UNL     1      29.898  35.518  -7.796  1.00  0.00     0.000 C 
HETATM   39  C26 UNL     1      29.735  36.915  -8.377  1.00  0.00     0.005 C 
ENDBRANCH  33  34
ENDBRANCH  32  33
ENDBRANCH  29  32
ENDBRANCH  11  29
BRANCH   1  40
HETATM   40  N1  UNL     1      32.552  39.035 -13.821  1.00  0.00    -0.073 N 
HETATM   41  C1  UNL     1      33.718  38.307 -14.278  1.00  0.00     0.267 C 
ATOM     42  H12 UNL     1      32.298  39.801 -14.445  1.00  0.00     0.277 HD
ATOM     43  H11 UNL     1      31.691  38.493 -13.909  1.00  0.00     0.277 HD
ENDBRANCH   1  40
TORSDOF 11
ENDMDL
MODEL 2
REMARK VINA RESULT: -8.500824926      2.432      5.426
REMARK  11 active torsions:
REMARK  status: ('A' for Active; 'I' for Inactive)
REMARK    1  A    between atoms: N1_2  and  C2_5 
REMARK    2  A    between atoms: N2_11  and  C7_12 
REMARK    3  A    between atoms: C7_12  and  C8_13 
REMARK       I    between atoms: C8_13  and  N3_15 
REMARK    4  A    between atoms: N3_15  and  C9_17 
REMARK    5  A    between atoms: C9_17  and  C10_18 
REMARK    6  A    between atoms: C13_25  and  C14_26 
REMARK    7  A    between atoms: C14_26  and  C15_27 
REMARK    8  A    between atoms: C18_32  and  N6_33 
REMARK    9  A    between atoms: N6_33  and  C19_36 
REMARK   10  A    between atoms: C19_36  and  C20_37 
REMARK   11  A    between atoms: C20_37  and  C21_38 
ROOT
HETATM    1  C2  UNL     1      31.659  37.531 -11.197  1.00  0.00     0.216 C 
HETATM    2  C3  UNL     1      30.766  37.122 -10.053  1.00  0.00     0.036 C 
HETATM    3  C4  UNL     1      31.405  37.360  -8.713  1.00  0.00     0.017 C 
HETATM    4  C5  UNL     1      32.106  38.678  -8.602  1.00  0.00     0.084 C 
HETATM    5  C6  UNL     1      33.068  38.608  -7.469  1.00  0.00     0.225 C 
HETATM    6  O1  UNL     1      32.697  38.768  -6.270  1.00  0.00    -0.273 OA
HETATM    7  N2  UNL     1      34.413  38.357  -7.739  1.00  0.00    -0.338 N 
HETATM    8  C13 UNL     1      34.725  37.785  -9.058  1.00  0.00     0.098 C 
HETATM    9  C16 UNL     1      34.194  38.804 -10.039  1.00  0.00     0.033 C 
HETATM   10  C17 UNL     1      32.755  39.203  -9.805  1.00  0.00     0.033 C 
HETATM   11  C18 UNL     1      31.934  38.989 -11.055  1.00  0.00     0.221 C 
ENDROOT
BRANCH   7  12
HETATM   12  C7  UNL     1      35.442  38.642  -6.788  1.00  0.00     0.228 C 
BRANCH  12  13
HETATM   13  C8  UNL     1      35.560  40.118  -6.518  1.00  0.00     0.235 C 
HETATM   14  O2  UNL     1      35.674  40.860  -7.526  1.00  0.00    -0.272 OA
HETATM   15  N3  UNL     1      35.535  40.593  -5.188  1.00  0.00    -0.353 N 
ATOM     16  H3  UNL     1      35.436  39.929  -4.420  1.00  0.00     0.162 HD
BRANCH  15  17
HETATM   17  C9  UNL     1      35.647  41.996  -4.899  1.00  0.00     0.199 C 
BRANCH  17  18
HETATM   18  C10 UNL     1      35.932  42.175  -3.460  1.00  0.00     0.099 A 
HETATM   19  N4  UNL     1      35.235  41.715  -2.409  1.00  0.00    -0.353 N 
HETATM   20  C11 UNL     1      35.828  42.083  -1.265  1.00  0.00     0.106 A 
ATOM     21  H4  UNL     1      34.378  41.164  -2.473  1.00  0.00     0.166 HD
HETATM   22  C12 UNL     1      36.951  42.809  -1.602  1.00  0.00     0.106 A 
HETATM   23  N5  UNL     1      36.976  42.842  -2.956  1.00  0.00    -0.353 N 
ATOM     24  H5  UNL     1      37.691  43.309  -3.513  1.00  0.00     0.166 HD
ENDBRANCH  17  18
ENDBRANCH  15  17
ENDBRANCH  12  13
ENDBRANCH   7  12
BRANCH   8  25
HETATM   25  C14 UNL     1      36.223  37.735  -9.220  1.00  0.00     0.138 C 
BRANCH  25  26
HETATM   26  C15 UNL     1      36.633  36.433  -9.763  1.00  0.00     0.174 C 
HETATM   27  O3  UNL     1      35.974  35.719 -10.533  1.00  0.00    -0.648 OA
HETATM   28  O4  UNL     1      37.882  35.953  -9.375  1.00  0.00    -0.648 OA
ENDBRANCH  25  26
ENDBRANCH   8  25
BRANCH  11  29
HETATM   29  N6  UNL     1      30.646  39.706 -10.910  1.00  0.00    -0.069 N 
ATOM     30  H62 UNL     1      29.846  39.113 -11.135  1.00  0.00     0.277 HD
ATOM     31  H61 UNL     1      30.416  39.893  -9.934  1.00  0.00     0.277 HD
BRANCH  29  32
HETATM   32  C19 UNL     1      30.674  40.907 -11.703  1.00  0.00     0.233 C 
BRANCH  32  33
HETATM   33  C20 UNL     1      31.748  41.110 -12.675  1.00  0.00     0.032 C 
BRANCH  33  34
HETATM   34  C21 UNL     1      32.647  42.278 -12.584  1.00  0.00    -0.013 C 
HETATM   35  C22 UNL     1      32.518  42.797 -11.105  1.00  0.00     0.005 C 
HETATM   36  C23 UNL     1      33.439  43.952 -10.899  1.00  0.00     0.000 C 
HETATM   37  C24 UNL     1      32.928  45.118 -11.730  1.00  0.00     0.000 C 
HETATM   38  C25 UNL     1      33.060  44.658 -13.186  1.00  0.00     0.000 C 
HETATM   39  C26 UNL     1      32.104  43.484 -13.349  1.00  0.00     0.005 C 
ENDBRANCH  33  34
ENDBRANCH  32  33
ENDBRANCH  29  32
ENDBRANCH  11  29
BRANCH   1  40
HETATM   40  N1  UNL     1      30.954  37.284 -12.428  1.00  0.00    -0.073 N 
HETATM   41  C1  UNL     1      31.880  37.463 -13.528  1.00  0.00     0.267 C 
ATOM     42  H12 UNL     1      30.116  37.859 -12.523  1.00  0.00     0.277 HD
ATOM     43  H11 UNL     1      30.498  36.372 -12.443  1.00  0.00     0.277 HD
ENDBRANCH   1  40
TORSDOF 11
ENDMDL
MODEL 3
REMARK VINA RESULT: -8.443709156      1.639      2.445
REMARK  11 active torsions:
REMARK  status: ('A' for Active; 'I' for Inactive)
REMARK    1  A    between atoms: N1_2  and  C2_5 
REMARK    2  A    between atoms: N2_11  and  C7_12 
REMARK    3  A    between atoms: C7_12  and  C8_13 
REMARK       I    between atoms: C8_13  and  N3_15 
REMARK    4  A    between atoms: N3_15  and  C9_17 
REMARK    5  A    between atoms: C9_17  and  C10_18 
REMARK    6  A    between atoms: C13_25  and  C14_26 
REMARK    7  A    between atoms: C14_26  and  C15_27 
REMARK    8  A    between atoms: C18_32  and  N6_33 
REMARK    9  A    between atoms: N6_33  and  C19_36 
REMARK   10  A    between atoms: C19_36  and  C20_37 
REMARK   11  A    between atoms: C20_37  and  C21_38 
ROOT
HETATM    1  C2  UNL     1      34.181  38.476 -10.629  1.00  0.00     0.216 C 
HETATM    2  C3  UNL     1      35.450  37.920 -10.034  1.00  0.00     0.036 C 
HETATM    3  C4  UNL     1      35.802  38.569  -8.724  1.00  0.00     0.017 C 
HETATM    4  C5  UNL     1      34.633  38.751  -7.807  1.00  0.00     0.084 C 
HETATM    5  C6  UNL     1      34.982  39.789  -6.798  1.00  0.00     0.225 C 
HETATM    6  O1  UNL     1      35.672  39.515  -5.773  1.00  0.00    -0.273 OA
HETATM    7  N2  UNL     1      34.535  41.095  -6.991  1.00  0.00    -0.338 N 
HETATM    8  C13 UNL     1      34.106  41.451  -8.352  1.00  0.00     0.098 C 
HETATM    9  C16 UNL     1      32.982  40.485  -8.650  1.00  0.00     0.033 C 
HETATM   10  C17 UNL     1      33.331  39.033  -8.415  1.00  0.00     0.033 C 
HETATM   11  C18 UNL     1      33.078  38.217  -9.661  1.00  0.00     0.221 C 
ENDROOT
BRANCH   7  12
HETATM   12  C7  UNL     1      34.493  42.047  -5.924  1.00  0.00     0.228 C 
BRANCH  12  13
HETATM   13  C8  UNL     1      35.762  42.032  -5.113  1.00  0.00     0.235 C 
HETATM   14  O2  UNL     1      36.782  42.510  -5.668  1.00  0.00    -0.272 OA
HETATM   15  N3  UNL     1      35.752  41.502  -3.804  1.00  0.00    -0.353 N 
ATOM     16  H3  UNL     1      34.883  41.134  -3.418  1.00  0.00     0.162 HD
BRANCH  15  17
HETATM   17  C9  UNL     1      36.946  41.472  -3.006  1.00  0.00     0.199 C 
BRANCH  17  18
HETATM   18  C10 UNL     1      36.957  42.640  -2.102  1.00  0.00     0.099 A 
HETATM   19  N4  UNL     1      37.883  42.980  -1.191  1.00  0.00    -0.353 N 
HETATM   20  C11 UNL     1      37.533  44.120  -0.579  1.00  0.00     0.106 A 
ATOM     21  H4  UNL     1      38.731  42.448  -0.993  1.00  0.00     0.166 HD
HETATM   22  C12 UNL     1      36.331  44.523  -1.125  1.00  0.00     0.106 A 
HETATM   23  N5  UNL     1      36.016  43.589  -2.052  1.00  0.00    -0.353 N 
ATOM     24  H5  UNL     1      35.176  43.606  -2.632  1.00  0.00     0.166 HD
ENDBRANCH  17  18
ENDBRANCH  15  17
ENDBRANCH  12  13
ENDBRANCH   7  12
BRANCH   8  25
HETATM   25  C14 UNL     1      33.517  42.838  -8.325  1.00  0.00     0.138 C 
BRANCH  25  26
HETATM   26  C15 UNL     1      33.159  43.267  -9.684  1.00  0.00     0.174 C 
HETATM   27  O3  UNL     1      33.511  42.722 -10.741  1.00  0.00    -0.648 OA
HETATM   28  O4  UNL     1      32.347  44.393  -9.797  1.00  0.00    -0.648 OA
ENDBRANCH  25  26
ENDBRANCH   8  25
BRANCH  11  29
HETATM   29  N6  UNL     1      33.087  36.780  -9.302  1.00  0.00    -0.069 N 
ATOM     30  H62 UNL     1      33.793  36.256  -9.820  1.00  0.00     0.277 HD
ATOM     31  H61 UNL     1      33.448  36.620  -8.362  1.00  0.00     0.277 HD
BRANCH  29  32
HETATM   32  C19 UNL     1      31.766  36.235  -9.479  1.00  0.00     0.233 C 
BRANCH  32  33
HETATM   33  C20 UNL     1      30.731  36.498  -8.478  1.00  0.00     0.032 C 
BRANCH  33  34
HETATM   34  C21 UNL     1      29.498  37.227  -8.833  1.00  0.00    -0.013 C 
HETATM   35  C22 UNL     1      28.420  36.120  -9.128  1.00  0.00     0.005 C 
HETATM   36  C23 UNL     1      27.114  36.767  -9.444  1.00  0.00     0.000 C 
HETATM   37  C24 UNL     1      27.254  37.490 -10.775  1.00  0.00     0.000 C 
HETATM   38  C25 UNL     1      28.283  38.596 -10.520  1.00  0.00     0.000 C 
HETATM   39  C26 UNL     1      29.595  37.892 -10.205  1.00  0.00     0.005 C 
ENDBRANCH  33  34
ENDBRANCH  32  33
ENDBRANCH  29  32
ENDBRANCH  11  29
BRANCH   1  40
HETATM   40  N1  UNL     1      33.921  37.781 -11.864  1.00  0.00    -0.073 N 
HETATM   41  C1  UNL     1      32.867  38.482 -12.568  1.00  0.00     0.267 C 
ATOM     42  H12 UNL     1      33.709  36.793 -11.722  1.00  0.00     0.277 HD
ATOM     43  H11 UNL     1      34.761  37.662 -12.431  1.00  0.00     0.277 HD
ENDBRANCH   1  40
TORSDOF 11
ENDMDL
MODEL 4
REMARK VINA RESULT: -8.424252926      1.167      1.520
REMARK  11 active torsions:
REMARK  status: ('A' for Active; 'I' for Inactive)
REMARK    1  A    between atoms: N1_2  and  C2_5 
REMARK    2  A    between atoms: N2_11  and  C7_12 
REMARK    3  A    between atoms: C7_12  and  C8_13 
REMARK       I    between atoms: C8_13  and  N3_15 
REMARK    4  A    between atoms: N3_15  and  C9_17 
REMARK    5  A    between atoms: C9_17  and  C10_18 
REMARK    6  A    between atoms: C13_25  and  C14_26 
REMARK    7  A    between atoms: C14_26  and  C15_27 
REMARK    8  A    between atoms: C18_32  and  N6_33 
REMARK    9  A    between atoms: N6_33  and  C19_36 
REMARK   10  A    between atoms: C19_36  and  C20_37 
REMARK   11  A    between atoms: C20_37  and  C21_38 
ROOT
HETATM    1  C2  UNL     1      33.070  38.897 -11.456  1.00  0.00     0.216 C 
HETATM    2  C3  UNL     1      34.042  37.971 -10.769  1.00  0.00     0.036 C 
HETATM    3  C4  UNL     1      34.424  38.456  -9.398  1.00  0.00     0.017 C 
HETATM    4  C5  UNL     1      33.269  38.963  -8.592  1.00  0.00     0.084 C 
HETATM    5  C6  UNL     1      33.797  39.824  -7.500  1.00  0.00     0.225 C 
HETATM    6  O1  UNL     1      34.257  39.333  -6.428  1.00  0.00    -0.273 OA
HETATM    7  N2  UNL     1      33.785  41.209  -7.666  1.00  0.00    -0.338 N 
HETATM    8  C13 UNL     1      33.633  41.706  -9.042  1.00  0.00     0.098 C 
HETATM    9  C16 UNL     1      32.313  41.131  -9.501  1.00  0.00     0.033 C 
HETATM   10  C17 UNL     1      32.186  39.637  -9.310  1.00  0.00     0.033 C 
HETATM   11  C18 UNL     1      31.841  38.963 -10.617  1.00  0.00     0.221 C 
ENDROOT
BRANCH   7  12
HETATM   12  C7  UNL     1      33.910  42.105  -6.559  1.00  0.00     0.228 C 
BRANCH  12  13
HETATM   13  C8  UNL     1      35.252  41.978  -5.887  1.00  0.00     0.235 C 
HETATM   14  O2  UNL     1      36.259  42.108  -6.628  1.00  0.00    -0.272 OA
HETATM   15  N3  UNL     1      35.322  41.730  -4.498  1.00  0.00    -0.353 N 
ATOM     16  H3  UNL     1      34.459  41.641  -3.961  1.00  0.00     0.162 HD
BRANCH  15  17
HETATM   17  C9  UNL     1      36.587  41.603  -3.830  1.00  0.00     0.199 C 
BRANCH  17  18
HETATM   18  C10 UNL     1      36.520  42.292  -2.525  1.00  0.00     0.099 A 
HETATM   19  N4  UNL     1      36.549  41.754  -1.296  1.00  0.00    -0.353 N 
HETATM   20  C11 UNL     1      36.477  42.719  -0.367  1.00  0.00     0.106 A 
ATOM     21  H4  UNL     1      36.617  40.756  -1.097  1.00  0.00     0.166 HD
HETATM   22  C12 UNL     1      36.399  43.923  -1.036  1.00  0.00     0.106 A 
HETATM   23  N5  UNL     1      36.427  43.616  -2.354  1.00  0.00    -0.353 N 
ATOM     24  H5  UNL     1      36.385  44.298  -3.111  1.00  0.00     0.166 HD
ENDBRANCH  17  18
ENDBRANCH  15  17
ENDBRANCH  12  13
ENDBRANCH   7  12
BRANCH   8  25
HETATM   25  C14 UNL     1      33.485  43.206  -8.998  1.00  0.00     0.138 C 
BRANCH  25  26
HETATM   26  C15 UNL     1      33.069  43.715 -10.312  1.00  0.00     0.174 C 
HETATM   27  O3  UNL     1      33.484  43.327 -11.414  1.00  0.00    -0.648 OA
HETATM   28  O4  UNL     1      32.117  44.732 -10.322  1.00  0.00    -0.648 OA
ENDBRANCH  25  26
ENDBRANCH   8  25
BRANCH  11  29
HETATM   29  N6  UNL     1      31.381  37.583 -10.336  1.00  0.00    -0.069 N 
ATOM     30  H62 UNL     1      31.458  36.976 -11.153  1.00  0.00     0.277 HD
ATOM     31  H61 UNL     1      32.021  37.080  -9.722  1.00  0.00     0.277 HD
BRANCH  29  32
HETATM   32  C19 UNL     1      30.040  37.622  -9.812  1.00  0.00     0.233 C 
BRANCH  32  33
HETATM   33  C20 UNL     1      29.735  36.955  -8.546  1.00  0.00     0.032 C 
BRANCH  33  34
HETATM   34  C21 UNL     1      29.582  35.488  -8.476  1.00  0.00    -0.013 C 
HETATM   35  C22 UNL     1      28.667  35.217  -7.226  1.00  0.00     0.005 C 
HETATM   36  C23 UNL     1      28.408  33.752  -7.106  1.00  0.00     0.000 C 
HETATM   37  C24 UNL     1      29.718  33.069  -6.742  1.00  0.00     0.000 C 
HETATM   38  C25 UNL     1      30.632  33.293  -7.951  1.00  0.00     0.000 C 
HETATM   39  C26 UNL     1      30.870  34.794  -8.033  1.00  0.00     0.005 C 
ENDBRANCH  33  34
ENDBRANCH  32  33
ENDBRANCH  29  32
ENDBRANCH  11  29
BRANCH   1  40
HETATM   40  N1  UNL     1      32.753  38.340 -12.746  1.00  0.00    -0.073 N 
HETATM   41  C1  UNL     1      33.969  37.797 -13.317  1.00  0.00     0.267 C 
ATOM     42  H12 UNL     1      32.295  39.011 -13.363  1.00  0.00     0.277 HD
ATOM     43  H11 UNL     1      31.999  37.654 -12.703  1.00  0.00     0.277 HD
ENDBRANCH   1  40
TORSDOF 11
ENDMDL
MODEL 5
REMARK VINA RESULT: -8.364434388      1.424      1.927
REMARK  11 active torsions:
REMARK  status: ('A' for Active; 'I' for Inactive)
REMARK    1  A    between atoms: N1_2  and  C2_5 
REMARK    2  A    between atoms: N2_11  and  C7_12 
REMARK    3  A    between atoms: C7_12  and  C8_13 
REMARK       I    between atoms: C8_13  and  N3_15 
REMARK    4  A    between atoms: N3_15  and  C9_17 
REMARK    5  A    between atoms: C9_17  and  C10_18 
REMARK    6  A    between atoms: C13_25  and  C14_26 
REMARK    7  A    between atoms: C14_26  and  C15_27 
REMARK    8  A    between atoms: C18_32  and  N6_33 
REMARK    9  A    between atoms: N6_33  and  C19_36 
REMARK   10  A    between atoms: C19_36  and  C20_37 
REMARK   11  A    between atoms: C20_37  and  C21_38 
ROOT
HETATM    1  C2  UNL     1      33.567  38.802 -11.021  1.00  0.00     0.216 C 
HETATM    2  C3  UNL     1      34.698  38.033 -10.383  1.00  0.00     0.036 C 
HETATM    3  C4  UNL     1      35.080  38.588  -9.038  1.00  0.00     0.017 C 
HETATM    4  C5  UNL     1      33.910  38.937  -8.173  1.00  0.00     0.084 C 
HETATM    5  C6  UNL     1      34.367  39.881  -7.118  1.00  0.00     0.225 C 
HETATM    6  O1  UNL     1      34.950  39.476  -6.069  1.00  0.00    -0.273 OA
HETATM    7  N2  UNL     1      34.148  41.247  -7.292  1.00  0.00    -0.338 N 
HETATM    8  C13 UNL     1      33.853  41.697  -8.661  1.00  0.00     0.098 C 
HETATM    9  C16 UNL     1      32.606  40.934  -9.042  1.00  0.00     0.033 C 
HETATM   10  C17 UNL     1      32.704  39.440  -8.835  1.00  0.00     0.033 C 
HETATM   11  C18 UNL     1      32.389  38.704 -10.115  1.00  0.00     0.221 C 
ENDROOT
BRANCH   7  12
HETATM   12  C7  UNL     1      34.204  42.169  -6.200  1.00  0.00     0.228 C 
BRANCH  12  13
HETATM   13  C8  UNL     1      35.505  42.065  -5.449  1.00  0.00     0.235 C 
HETATM   14  O2  UNL     1      36.537  42.411  -6.075  1.00  0.00    -0.272 OA
HETATM   15  N3  UNL     1      35.510  41.603  -4.114  1.00  0.00    -0.353 N 
ATOM     16  H3  UNL     1      34.629  41.344  -3.670  1.00  0.00     0.162 HD
BRANCH  15  17
HETATM   17  C9  UNL     1      36.735  41.492  -3.372  1.00  0.00     0.199 C 
BRANCH  17  18
HETATM   18  C10 UNL     1      36.782  42.556  -2.348  1.00  0.00     0.099 A 
HETATM   19  N4  UNL     1      36.104  43.714  -2.317  1.00  0.00    -0.353 N 
HETATM   20  C11 UNL     1      36.416  44.403  -1.211  1.00  0.00     0.106 A 
ATOM     21  H4  UNL     1      35.445  44.024  -3.032  1.00  0.00     0.166 HD
HETATM   22  C12 UNL     1      37.334  43.650  -0.507  1.00  0.00     0.106 A 
HETATM   23  N5  UNL     1      37.529  42.528  -1.239  1.00  0.00    -0.353 N 
ATOM     24  H5  UNL     1      38.159  41.768  -0.980  1.00  0.00     0.166 HD
ENDBRANCH  17  18
ENDBRANCH  15  17
ENDBRANCH  12  13
ENDBRANCH   7  12
BRANCH   8  25
HETATM   25  C14 UNL     1      33.495  43.162  -8.620  1.00  0.00     0.138 C 
BRANCH  25  26
HETATM   26  C15 UNL     1      33.094  43.626  -9.956  1.00  0.00     0.174 C 
HETATM   27  O3  UNL     1      33.505  43.184 -11.039  1.00  0.00    -0.648 OA
HETATM   28  O4  UNL     1      32.166  44.662 -10.011  1.00  0.00    -0.648 OA
ENDBRANCH  25  26
ENDBRANCH   8  25
BRANCH  11  29
HETATM   29  N6  UNL     1      32.146  37.277  -9.800  1.00  0.00    -0.069 N 
ATOM     30  H62 UNL     1      32.180  36.686 -10.632  1.00  0.00     0.277 HD
ATOM     31  H61 UNL     1      32.924  36.856  -9.293  1.00  0.00     0.277 HD
BRANCH  29  32
HETATM   32  C19 UNL     1      30.900  37.148  -9.091  1.00  0.00     0.233 C 
BRANCH  32  33
HETATM   33  C20 UNL     1      29.667  37.664  -9.688  1.00  0.00     0.032 C 
BRANCH  33  34
HETATM   34  C21 UNL     1      28.497  36.788  -9.894  1.00  0.00    -0.013 C 
HETATM   35  C22 UNL     1      27.269  37.754 -10.064  1.00  0.00     0.005 C 
HETATM   36  C23 UNL     1      26.039  36.955 -10.335  1.00  0.00     0.000 C 
HETATM   37  C24 UNL     1      25.699  36.169  -9.078  1.00  0.00     0.000 C 
HETATM   38  C25 UNL     1      26.867  35.196  -8.891  1.00  0.00     0.000 C 
HETATM   39  C26 UNL     1      28.095  36.052  -8.616  1.00  0.00     0.005 C 
ENDBRANCH  33  34
ENDBRANCH  32  33
ENDBRANCH  29  32
ENDBRANCH  11  29
BRANCH   1  40
HETATM   40  N1  UNL     1      33.265  38.185 -12.287  1.00  0.00    -0.073 N 
HETATM   41  C1  UNL     1      32.409  39.083 -13.037  1.00  0.00     0.267 C 
ATOM     42  H12 UNL     1      32.862  37.254 -12.185  1.00  0.00     0.277 HD
ATOM     43  H11 UNL     1      34.103  37.918 -12.804  1.00  0.00     0.277 HD
ENDBRANCH   1  40
TORSDOF 11
ENDMDL
