MODEL 1
REMARK VINA RESULT: -8.088385921      0.000      0.000
REMARK  7 active torsions:
REMARK  status: ('A' for Active; 'I' for Inactive)
REMARK    1  A    between atoms: C3_3  and  O1_4 
REMARK    2  A    between atoms: O1_4  and  C4_5 
REMARK    3  A    between atoms: C8_9  and  C9_10 
REMARK    4  A    between atoms: C9_10  and  C10_12 
REMARK    5  A    between atoms: C10_12  and  C11_13 
REMARK       I    between atoms: C11_13  and  N1_15 
REMARK    6  A    between atoms: N1_15  and  C12_17 
REMARK    7  A    between atoms: C12_17  and  C13_18 
REMARK       I    between atoms: N3_22  and  C15_24 
ROOT
HETATM    1  C1  UNL     1      32.683  32.871  -6.573  1.00  0.00     0.014 C 
HETATM    2  C2  UNL     1      32.100  33.607  -7.302  1.00  0.00    -0.091 C 
HETATM    3  C3  UNL     1      31.404  34.496  -8.207  1.00  0.00     0.268 C 
ENDROOT
BRANCH   3   4
HETATM    4  O1  UNL     1      30.988  35.666  -7.531  1.00  0.00    -0.339 OA
BRANCH   4   5
HETATM    5  C4  UNL     1      31.624  36.874  -7.816  1.00  0.00     0.076 A 
HETATM    6  C5  UNL     1      32.860  37.177  -7.249  1.00  0.00     0.045 A 
HETATM    7  C6  UNL     1      33.447  38.389  -7.565  1.00  0.00    -0.045 A 
HETATM    8  C7  UNL     1      34.766  38.712  -6.960  1.00  0.00     0.049 C 
HETATM    9  C8  UNL     1      32.792  39.248  -8.424  1.00  0.00     0.023 A 
HETATM   10  C19 UNL     1      31.564  38.948  -8.987  1.00  0.00    -0.039 A 
HETATM   11  C20 UNL     1      30.951  39.926  -9.887  1.00  0.00     0.050 C 
HETATM   12  C21 UNL     1      30.979  37.747  -8.677  1.00  0.00    -0.022 A 
HETATM   13  C22 UNL     1      29.676  37.389  -9.252  1.00  0.00     0.052 C 
BRANCH   9  14
HETATM   14  C9  UNL     1      33.481  40.523  -8.715  1.00  0.00     0.169 C 
HETATM   15  O2  UNL     1      34.303  40.575  -9.643  1.00  0.00    -0.292 OA
BRANCH  14  16
HETATM   16  C10 UNL     1      33.165  41.688  -7.888  1.00  0.00     0.186 C 
BRANCH  16  17
HETATM   17  C11 UNL     1      34.337  42.238  -7.164  1.00  0.00     0.225 C 
HETATM   18  O3  UNL     1      35.310  42.712  -7.814  1.00  0.00    -0.273 OA
HETATM   19  N1  UNL     1      34.362  42.231  -5.757  1.00  0.00    -0.355 N 
ATOM     20  H1  UNL     1      33.573  41.848  -5.237  1.00  0.00     0.162 HD
BRANCH  19  21
HETATM   21  C12 UNL     1      35.497  42.763  -5.049  1.00  0.00     0.182 C 
BRANCH  21  22
HETATM   22  C13 UNL     1      36.257  41.697  -4.325  1.00  0.00     0.067 A 
HETATM   23  N2  UNL     1      36.681  40.502  -4.749  1.00  0.00    -0.192 N 
HETATM   24  C14 UNL     1      37.318  39.927  -3.702  1.00  0.00     0.685 A 
ATOM     25  H2  UNL     1      36.551  40.102  -5.679  1.00  0.00     0.184 HD
HETATM   26  N3  UNL     1      37.863  38.763  -3.732  1.00  0.00    -0.160 N 
HETATM   27  N4  UNL     1      37.300  40.736  -2.633  1.00  0.00    -0.194 N 
HETATM   28  C15 UNL     1      38.500  38.264  -2.579  1.00  0.00     0.231 C 
ATOM     29  H3  UNL     1      37.834  38.205  -4.585  1.00  0.00     0.187 HD
HETATM   30  C16 UNL     1      39.940  37.935  -2.620  1.00  0.00     0.118 C 
HETATM   31  O4  UNL     1      37.823  38.107  -1.524  1.00  0.00    -0.273 OA
HETATM   32  C17 UNL     1      36.644  41.850  -2.991  1.00  0.00     0.047 A 
ATOM     33  H4  UNL     1      37.708  40.541  -1.719  1.00  0.00     0.184 HD
HETATM   34  C18 UNL     1      36.375  43.042  -2.121  1.00  0.00     0.071 C 
ENDBRANCH  21  22
ENDBRANCH  19  21
ENDBRANCH  16  17
ENDBRANCH  14  16
ENDBRANCH   9  14
ENDBRANCH   4   5
ENDBRANCH   3   4
TORSDOF 7
ENDMDL
MODEL 2
REMARK VINA RESULT: -7.880857854      2.723      5.557
REMARK  7 active torsions:
REMARK  status: ('A' for Active; 'I' for Inactive)
REMARK    1  A    between atoms: C3_3  and  O1_4 
REMARK    2  A    between atoms: O1_4  and  C4_5 
REMARK    3  A    between atoms: C8_9  and  C9_10 
REMARK    4  A    between atoms: C9_10  and  C10_12 
REMARK    5  A    between atoms: C10_12  and  C11_13 
REMARK       I    between atoms: C11_13  and  N1_15 
REMARK    6  A    between atoms: N1_15  and  C12_17 
REMARK    7  A    between atoms: C12_17  and  C13_18 
REMARK       I    between atoms: N3_22  and  C15_24 
ROOT
HETATM    1  C1  UNL     1      33.310  45.043 -12.199  1.00  0.00     0.014 C 
HETATM    2  C2  UNL     1      33.305  44.248 -11.316  1.00  0.00    -0.091 C 
HETATM    3  C3  UNL     1      33.317  43.291 -10.230  1.00  0.00     0.268 C 
ENDROOT
BRANCH   3   4
HETATM    4  O1  UNL     1      32.903  42.019 -10.686  1.00  0.00    -0.339 OA
BRANCH   4   5
HETATM    5  C4  UNL     1      33.314  40.883  -9.988  1.00  0.00     0.076 A 
HETATM    6  C5  UNL     1      33.750  40.979  -8.669  1.00  0.00     0.045 A 
HETATM    7  C6  UNL     1      34.146  39.822  -8.023  1.00  0.00    -0.045 A 
HETATM    8  C7  UNL     1      34.612  39.925  -6.616  1.00  0.00     0.049 C 
HETATM    9  C8  UNL     1      34.096  38.623  -8.705  1.00  0.00     0.023 A 
HETATM   10  C19 UNL     1      33.663  38.527 -10.015  1.00  0.00    -0.039 A 
HETATM   11  C20 UNL     1      33.647  37.208 -10.650  1.00  0.00     0.050 C 
HETATM   12  C21 UNL     1      33.269  39.671 -10.659  1.00  0.00    -0.022 A 
HETATM   13  C22 UNL     1      32.803  39.615 -12.050  1.00  0.00     0.052 C 
BRANCH   9  14
HETATM   14  C9  UNL     1      34.535  37.430  -7.950  1.00  0.00     0.169 C 
HETATM   15  O2  UNL     1      33.779  36.934  -7.100  1.00  0.00    -0.292 OA
BRANCH  14  16
HETATM   16  C10 UNL     1      35.858  36.875  -8.235  1.00  0.00     0.186 C 
BRANCH  16  17
HETATM   17  C11 UNL     1      36.715  36.733  -7.033  1.00  0.00     0.225 C 
HETATM   18  O3  UNL     1      36.751  35.632  -6.415  1.00  0.00    -0.273 OA
HETATM   19  N1  UNL     1      37.485  37.821  -6.584  1.00  0.00    -0.355 N 
ATOM     20  H1  UNL     1      37.453  38.708  -7.087  1.00  0.00     0.162 HD
BRANCH  19  21
HETATM   21  C12 UNL     1      38.318  37.689  -5.417  1.00  0.00     0.182 C 
BRANCH  21  22
HETATM   22  C13 UNL     1      38.152  38.840  -4.476  1.00  0.00     0.067 A 
HETATM   23  N2  UNL     1      37.120  39.675  -4.308  1.00  0.00    -0.192 N 
HETATM   24  C14 UNL     1      37.480  40.537  -3.329  1.00  0.00     0.685 A 
ATOM     25  H2  UNL     1      36.236  39.663  -4.817  1.00  0.00     0.184 HD
HETATM   26  N3  UNL     1      36.738  41.491  -2.891  1.00  0.00    -0.160 N 
HETATM   27  N4  UNL     1      38.715  40.261  -2.883  1.00  0.00    -0.194 N 
HETATM   28  C15 UNL     1      37.218  42.330  -1.866  1.00  0.00     0.231 C 
ATOM     29  H3  UNL     1      35.808  41.639  -3.283  1.00  0.00     0.187 HD
HETATM   30  C16 UNL     1      36.496  42.403  -0.579  1.00  0.00     0.118 C 
HETATM   31  O4  UNL     1      38.264  43.009  -2.069  1.00  0.00    -0.273 OA
HETATM   32  C17 UNL     1      39.160  39.205  -3.579  1.00  0.00     0.047 A 
ATOM     33  H4  UNL     1      39.219  40.760  -2.151  1.00  0.00     0.184 HD
HETATM   34  C18 UNL     1      40.495  38.539  -3.427  1.00  0.00     0.071 C 
ENDBRANCH  21  22
ENDBRANCH  19  21
ENDBRANCH  16  17
ENDBRANCH  14  16
ENDBRANCH   9  14
ENDBRANCH   4   5
ENDBRANCH   3   4
TORSDOF 7
ENDMDL
MODEL 3
REMARK VINA RESULT: -7.856751895      3.853      9.246
REMARK  7 active torsions:
REMARK  status: ('A' for Active; 'I' for Inactive)
REMARK    1  A    between atoms: C3_3  and  O1_4 
REMARK    2  A    between atoms: O1_4  and  C4_5 
REMARK    3  A    between atoms: C8_9  and  C9_10 
REMARK    4  A    between atoms: C9_10  and  C10_12 
REMARK    5  A    between atoms: C10_12  and  C11_13 
REMARK       I    between atoms: C11_13  and  N1_15 
REMARK    6  A    between atoms: N1_15  and  C12_17 
REMARK    7  A    between atoms: C12_17  and  C13_18 
REMARK       I    between atoms: N3_22  and  C15_24 
ROOT
HETATM    1  C1  UNL     1      37.822  45.352  -0.859  1.00  0.00     0.014 C 
HETATM    2  C2  UNL     1      37.238  44.544  -1.506  1.00  0.00    -0.091 C 
HETATM    3  C3  UNL     1      36.512  43.556  -2.274  1.00  0.00     0.268 C 
ENDROOT
BRANCH   3   4
HETATM    4  O1  UNL     1      37.378  42.892  -3.173  1.00  0.00    -0.339 OA
BRANCH   4   5
HETATM    5  C4  UNL     1      36.840  41.987  -4.088  1.00  0.00     0.076 A 
HETATM    6  C5  UNL     1      35.764  42.348  -4.895  1.00  0.00     0.045 A 
HETATM    7  C6  UNL     1      35.268  41.413  -5.785  1.00  0.00    -0.045 A 
HETATM    8  C7  UNL     1      34.120  41.798  -6.646  1.00  0.00     0.049 C 
HETATM    9  C8  UNL     1      35.854  40.165  -5.841  1.00  0.00     0.023 A 
HETATM   10  C19 UNL     1      36.923  39.805  -5.040  1.00  0.00    -0.039 A 
HETATM   11  C20 UNL     1      37.475  38.456  -5.176  1.00  0.00     0.050 C 
HETATM   12  C21 UNL     1      37.418  40.730  -4.157  1.00  0.00    -0.022 A 
HETATM   13  C22 UNL     1      38.551  40.390  -3.287  1.00  0.00     0.052 C 
BRANCH   9  14
HETATM   14  C9  UNL     1      35.271  39.219  -6.817  1.00  0.00     0.169 C 
HETATM   15  O2  UNL     1      34.219  38.624  -6.536  1.00  0.00    -0.292 OA
BRANCH  14  16
HETATM   16  C10 UNL     1      35.965  39.018  -8.089  1.00  0.00     0.186 C 
BRANCH  16  17
HETATM   17  C11 UNL     1      35.058  38.992  -9.262  1.00  0.00     0.225 C 
HETATM   18  O3  UNL     1      35.333  38.258 -10.252  1.00  0.00    -0.273 OA
HETATM   19  N1  UNL     1      33.895  39.784  -9.271  1.00  0.00    -0.355 N 
ATOM     20  H1  UNL     1      33.677  40.375  -8.469  1.00  0.00     0.162 HD
BRANCH  19  21
HETATM   21  C12 UNL     1      33.011  39.764 -10.407  1.00  0.00     0.182 C 
BRANCH  21  22
HETATM   22  C13 UNL     1      32.766  41.135 -10.952  1.00  0.00     0.067 A 
HETATM   23  N2  UNL     1      32.650  42.307 -10.318  1.00  0.00    -0.192 N 
HETATM   24  C14 UNL     1      32.435  43.241 -11.274  1.00  0.00     0.685 A 
ATOM     25  H2  UNL     1      32.713  42.465  -9.312  1.00  0.00     0.184 HD
HETATM   26  N3  UNL     1      32.272  44.494 -11.041  1.00  0.00    -0.160 N 
HETATM   27  N4  UNL     1      32.412  42.678 -12.491  1.00  0.00    -0.194 N 
HETATM   28  C15 UNL     1      32.053  45.377 -12.118  1.00  0.00     0.231 C 
ATOM     29  H3  UNL     1      32.301  44.847 -10.085  1.00  0.00     0.187 HD
HETATM   30  C16 UNL     1      33.005  46.480 -12.368  1.00  0.00     0.118 C 
HETATM   31  O4  UNL     1      31.040  45.209 -12.853  1.00  0.00    -0.273 OA
HETATM   32  C17 UNL     1      32.618  41.364 -12.323  1.00  0.00     0.047 A 
ATOM     33  H4  UNL     1      32.266  43.160 -13.378  1.00  0.00     0.184 HD
HETATM   34  C18 UNL     1      32.676  40.328 -13.406  1.00  0.00     0.071 C 
ENDBRANCH  21  22
ENDBRANCH  19  21
ENDBRANCH  16  17
ENDBRANCH  14  16
ENDBRANCH   9  14
ENDBRANCH   4   5
ENDBRANCH   3   4
TORSDOF 7
ENDMDL
MODEL 4
REMARK VINA RESULT: -7.840482043      2.777      5.587
REMARK  7 active torsions:
REMARK  status: ('A' for Active; 'I' for Inactive)
REMARK    1  A    between atoms: C3_3  and  O1_4 
REMARK    2  A    between atoms: O1_4  and  C4_5 
REMARK    3  A    between atoms: C8_9  and  C9_10 
REMARK    4  A    between atoms: C9_10  and  C10_12 
REMARK    5  A    between atoms: C10_12  and  C11_13 
REMARK       I    between atoms: C11_13  and  N1_15 
REMARK    6  A    between atoms: N1_15  and  C12_17 
REMARK    7  A    between atoms: C12_17  and  C13_18 
REMARK       I    between atoms: N3_22  and  C15_24 
ROOT
HETATM    1  C1  UNL     1      33.288  44.829 -11.840  1.00  0.00     0.014 C 
HETATM    2  C2  UNL     1      33.113  43.655 -11.897  1.00  0.00    -0.091 C 
HETATM    3  C3  UNL     1      32.896  42.227 -11.990  1.00  0.00     0.268 C 
ENDROOT
BRANCH   3   4
HETATM    4  O1  UNL     1      32.329  41.733 -10.793  1.00  0.00    -0.339 OA
BRANCH   4   5
HETATM    5  C4  UNL     1      32.946  40.666 -10.142  1.00  0.00     0.076 A 
HETATM    6  C5  UNL     1      32.899  39.382 -10.679  1.00  0.00     0.045 A 
HETATM    7  C6  UNL     1      33.528  38.360  -9.992  1.00  0.00    -0.045 A 
HETATM    8  C7  UNL     1      33.478  36.990 -10.567  1.00  0.00     0.049 C 
HETATM    9  C8  UNL     1      34.174  38.647  -8.807  1.00  0.00     0.023 A 
HETATM   10  C19 UNL     1      34.221  39.921  -8.272  1.00  0.00    -0.039 A 
HETATM   11  C20 UNL     1      34.933  40.123  -7.009  1.00  0.00     0.050 C 
HETATM   12  C21 UNL     1      33.599  40.938  -8.950  1.00  0.00    -0.022 A 
HETATM   13  C22 UNL     1      33.624  42.306  -8.417  1.00  0.00     0.052 C 
BRANCH   9  14
HETATM   14  C9  UNL     1      34.824  37.503  -8.131  1.00  0.00     0.169 C 
HETATM   15  O2  UNL     1      34.310  37.030  -7.105  1.00  0.00    -0.292 OA
BRANCH  14  16
HETATM   16  C10 UNL     1      36.060  36.969  -8.702  1.00  0.00     0.186 C 
BRANCH  16  17
HETATM   17  C11 UNL     1      37.208  36.998  -7.764  1.00  0.00     0.225 C 
HETATM   18  O3  UNL     1      38.288  36.422  -8.076  1.00  0.00    -0.273 OA
HETATM   19  N1  UNL     1      37.095  37.666  -6.531  1.00  0.00    -0.355 N 
ATOM     20  H1  UNL     1      36.221  38.130  -6.284  1.00  0.00     0.162 HD
BRANCH  19  21
HETATM   21  C12 UNL     1      38.206  37.697  -5.617  1.00  0.00     0.182 C 
BRANCH  21  22
HETATM   22  C13 UNL     1      38.091  38.817  -4.632  1.00  0.00     0.067 A 
HETATM   23  N2  UNL     1      37.064  39.631  -4.367  1.00  0.00    -0.192 N 
HETATM   24  C14 UNL     1      37.479  40.469  -3.390  1.00  0.00     0.685 A 
ATOM     25  H2  UNL     1      36.147  39.621  -4.814  1.00  0.00     0.184 HD
HETATM   26  N3  UNL     1      36.757  41.399  -2.873  1.00  0.00    -0.160 N 
HETATM   27  N4  UNL     1      38.745  40.198  -3.038  1.00  0.00    -0.194 N 
HETATM   28  C15 UNL     1      37.297  42.214  -1.858  1.00  0.00     0.231 C 
ATOM     29  H3  UNL     1      35.801  41.545  -3.195  1.00  0.00     0.187 HD
HETATM   30  C16 UNL     1      36.664  42.238  -0.523  1.00  0.00     0.118 C 
HETATM   31  O4  UNL     1      38.317  42.914  -2.111  1.00  0.00    -0.273 OA
HETATM   32  C17 UNL     1      39.154  39.170  -3.796  1.00  0.00     0.047 A 
ATOM     33  H4  UNL     1      39.293  40.683  -2.328  1.00  0.00     0.184 HD
HETATM   34  C18 UNL     1      40.505  38.519  -3.756  1.00  0.00     0.071 C 
ENDBRANCH  21  22
ENDBRANCH  19  21
ENDBRANCH  16  17
ENDBRANCH  14  16
ENDBRANCH   9  14
ENDBRANCH   4   5
ENDBRANCH   3   4
TORSDOF 7
ENDMDL
MODEL 5
REMARK VINA RESULT: -7.654201357      1.712      2.498
REMARK  7 active torsions:
REMARK  status: ('A' for Active; 'I' for Inactive)
REMARK    1  A    between atoms: C3_3  and  O1_4 
REMARK    2  A    between atoms: O1_4  and  C4_5 
REMARK    3  A    between atoms: C8_9  and  C9_10 
REMARK    4  A    between atoms: C9_10  and  C10_12 
REMARK    5  A    between atoms: C10_12  and  C11_13 
REMARK       I    between atoms: C11_13  and  N1_15 
REMARK    6  A    between atoms: N1_15  and  C12_17 
REMARK    7  A    between atoms: C12_17  and  C13_18 
REMARK       I    between atoms: N3_22  and  C15_24 
ROOT
HETATM    1  C1  UNL     1      30.158  35.916  -7.889  1.00  0.00     0.014 C 
HETATM    2  C2  UNL     1      30.067  36.854  -8.613  1.00  0.00    -0.091 C 
HETATM    3  C3  UNL     1      29.934  37.990  -9.500  1.00  0.00     0.268 C 
ENDROOT
BRANCH   3   4
HETATM    4  O1  UNL     1      31.181  38.311 -10.084  1.00  0.00    -0.339 OA
BRANCH   4   5
HETATM    5  C4  UNL     1      31.994  39.260  -9.466  1.00  0.00     0.076 A 
HETATM    6  C5  UNL     1      32.946  38.876  -8.526  1.00  0.00     0.045 A 
HETATM    7  C6  UNL     1      33.727  39.858  -7.943  1.00  0.00    -0.045 A 
HETATM    8  C7  UNL     1      34.743  39.446  -6.939  1.00  0.00     0.049 C 
HETATM    9  C8  UNL     1      33.535  41.173  -8.311  1.00  0.00     0.023 A 
HETATM   10  C19 UNL     1      32.589  41.557  -9.245  1.00  0.00    -0.039 A 
HETATM   11  C20 UNL     1      32.462  42.978  -9.568  1.00  0.00     0.050 C 
HETATM   12  C21 UNL     1      31.813  40.586  -9.826  1.00  0.00    -0.022 A 
HETATM   13  C22 UNL     1      30.797  40.949 -10.821  1.00  0.00     0.052 C 
BRANCH   9  14
HETATM   14  C9  UNL     1      34.406  42.166  -7.646  1.00  0.00     0.169 C 
HETATM   15  O2  UNL     1      35.247  42.785  -8.316  1.00  0.00    -0.292 OA
BRANCH  14  16
HETATM   16  C10 UNL     1      34.241  42.382  -6.209  1.00  0.00     0.186 C 
BRANCH  16  17
HETATM   17  C11 UNL     1      35.522  42.407  -5.462  1.00  0.00     0.225 C 
HETATM   18  O3  UNL     1      36.597  42.097  -6.048  1.00  0.00    -0.273 OA
HETATM   19  N1  UNL     1      35.539  42.776  -4.104  1.00  0.00    -0.355 N 
ATOM     20  H1  UNL     1      34.669  43.026  -3.635  1.00  0.00     0.162 HD
BRANCH  19  21
HETATM   21  C12 UNL     1      36.780  42.802  -3.373  1.00  0.00     0.182 C 
BRANCH  21  22
HETATM   22  C13 UNL     1      37.212  41.432  -2.954  1.00  0.00     0.067 A 
HETATM   23  N2  UNL     1      37.890  40.498  -3.630  1.00  0.00    -0.192 N 
HETATM   24  C14 UNL     1      38.021  39.441  -2.795  1.00  0.00     0.685 A 
ATOM     25  H2  UNL     1      38.239  40.568  -4.586  1.00  0.00     0.184 HD
HETATM   26  N3  UNL     1      38.620  38.345  -3.098  1.00  0.00    -0.160 N 
HETATM   27  N4  UNL     1      37.440  39.693  -1.613  1.00  0.00    -0.194 N 
HETATM   28  C15 UNL     1      38.696  37.308  -2.147  1.00  0.00     0.231 C 
ATOM     29  H3  UNL     1      39.038  38.227  -4.021  1.00  0.00     0.187 HD
HETATM   30  C16 UNL     1      40.017  36.834  -1.681  1.00  0.00     0.118 C 
HETATM   31  O4  UNL     1      37.627  36.800  -1.707  1.00  0.00    -0.273 OA
HETATM   32  C17 UNL     1      36.926  40.930  -1.682  1.00  0.00     0.047 A 
ATOM     33  H4  UNL     1      37.396  39.063  -0.812  1.00  0.00     0.184 HD
HETATM   34  C18 UNL     1      36.181  41.645  -0.594  1.00  0.00     0.071 C 
ENDBRANCH  21  22
ENDBRANCH  19  21
ENDBRANCH  16  17
ENDBRANCH  14  16
ENDBRANCH   9  14
ENDBRANCH   4   5
ENDBRANCH   3   4
TORSDOF 7
ENDMDL
