MODEL 1
REMARK VINA RESULT: -3.366209615      0.000      0.000
REMARK  2 active torsions:
REMARK  status: ('A' for Active; 'I' for Inactive)
REMARK    1  A    between atoms: C2_4  and  N2_5 
REMARK    2  A    between atoms: N2_5  and  N3_7 
ROOT
HETATM    1  C1  UNL     1      66.713  45.789  17.712  1.00  0.00     0.146 C 
HETATM    2  N1  UNL     1      67.522  44.644  18.020  1.00  0.00    -0.394 N 
ATOM      3  H1  UNL     1      67.734  43.939  17.314  1.00  0.00     0.159 HD
HETATM    4  C2  UNL     1      67.963  44.542  19.202  1.00  0.00     0.162 C 
ENDROOT
BRANCH   4   5
HETATM    5  N2  UNL     1      68.779  43.460  19.656  1.00  0.00    -0.201 NA
HETATM    6  C3  UNL     1      70.004  43.485  18.877  1.00  0.00     0.139 C 
BRANCH   5   7
HETATM    7  N3  UNL     1      68.048  42.298  19.374  1.00  0.00    -0.165 NA
HETATM    8  C4  UNL     1      68.881  41.180  19.049  1.00  0.00     0.153 C 
ENDBRANCH   5   7
ENDBRANCH   4   5
TORSDOF 2
ENDMDL
MODEL 2
REMARK VINA RESULT: -3.363828093      7.944      9.286
REMARK  2 active torsions:
REMARK  status: ('A' for Active; 'I' for Inactive)
REMARK    1  A    between atoms: C2_4  and  N2_5 
REMARK    2  A    between atoms: N2_5  and  N3_7 
ROOT
HETATM    1  C1  UNL     1      75.368  43.041  24.949  1.00  0.00     0.146 C 
HETATM    2  N1  UNL     1      74.492  44.109  25.340  1.00  0.00    -0.394 N 
ATOM      3  H1  UNL     1      74.836  45.064  25.444  1.00  0.00     0.159 HD
HETATM    4  C2  UNL     1      73.278  43.821  25.549  1.00  0.00     0.162 C 
ENDROOT
BRANCH   4   5
HETATM    5  N2  UNL     1      72.291  44.777  25.943  1.00  0.00    -0.201 NA
HETATM    6  C3  UNL     1      72.034  45.631  24.798  1.00  0.00     0.139 C 
BRANCH   5   7
HETATM    7  N3  UNL     1      72.880  45.517  26.978  1.00  0.00    -0.165 NA
HETATM    8  C4  UNL     1      72.521  46.902  26.947  1.00  0.00     0.153 C 
ENDBRANCH   5   7
ENDBRANCH   4   5
TORSDOF 2
ENDMDL
MODEL 3
REMARK VINA RESULT: -3.289918669      0.879      3.445
REMARK  2 active torsions:
REMARK  status: ('A' for Active; 'I' for Inactive)
REMARK    1  A    between atoms: C2_4  and  N2_5 
REMARK    2  A    between atoms: N2_5  and  N3_7 
ROOT
HETATM    1  C1  UNL     1      69.031  40.751  18.838  1.00  0.00     0.146 C 
HETATM    2  N1  UNL     1      68.463  42.025  18.498  1.00  0.00    -0.394 N 
ATOM      3  H1  UNL     1      67.566  42.094  18.017  1.00  0.00     0.159 HD
HETATM    4  C2  UNL     1      69.117  43.060  18.818  1.00  0.00     0.162 C 
ENDROOT
BRANCH   4   5
HETATM    5  N2  UNL     1      68.680  44.393  18.546  1.00  0.00    -0.201 NA
HETATM    6  C3  UNL     1      68.296  44.990  19.813  1.00  0.00     0.139 C 
BRANCH   5   7
HETATM    7  N3  UNL     1      67.559  44.256  17.716  1.00  0.00    -0.165 NA
HETATM    8  C4  UNL     1      66.722  45.417  17.712  1.00  0.00     0.153 C 
ENDBRANCH   5   7
ENDBRANCH   4   5
TORSDOF 2
ENDMDL
MODEL 4
REMARK VINA RESULT: -3.077043623      8.287      9.036
REMARK  2 active torsions:
REMARK  status: ('A' for Active; 'I' for Inactive)
REMARK    1  A    between atoms: C2_4  and  N2_5 
REMARK    2  A    between atoms: N2_5  and  N3_7 
ROOT
HETATM    1  C1  UNL     1      72.445  47.185  27.146  1.00  0.00     0.146 C 
HETATM    2  N1  UNL     1      72.866  46.385  26.030  1.00  0.00    -0.394 N 
ATOM      3  H1  UNL     1      72.851  46.754  25.079  1.00  0.00     0.159 HD
HETATM    4  C2  UNL     1      73.256  45.206  26.272  1.00  0.00     0.162 C 
ENDROOT
BRANCH   4   5
HETATM    5  N2  UNL     1      73.703  44.295  25.266  1.00  0.00    -0.201 NA
HETATM    6  C3  UNL     1      72.726  43.224  25.186  1.00  0.00     0.139 C 
BRANCH   5   7
HETATM    7  N3  UNL     1      74.929  43.798  25.730  1.00  0.00    -0.165 NA
HETATM    8  C4  UNL     1      75.394  42.669  24.983  1.00  0.00     0.153 C 
ENDBRANCH   5   7
ENDBRANCH   4   5
TORSDOF 2
ENDMDL
MODEL 5
REMARK VINA RESULT: -2.722159745     15.748     16.474
REMARK  2 active torsions:
REMARK  status: ('A' for Active; 'I' for Inactive)
REMARK    1  A    between atoms: C2_4  and  N2_5 
REMARK    2  A    between atoms: N2_5  and  N3_7 
ROOT
HETATM    1  C1  UNL     1      80.672  36.083  25.119  1.00  0.00     0.146 C 
HETATM    2  N1  UNL     1      80.682  36.622  26.449  1.00  0.00    -0.394 N 
ATOM      3  H1  UNL     1      80.958  36.052  27.249  1.00  0.00     0.159 HD
HETATM    4  C2  UNL     1      80.334  37.830  26.592  1.00  0.00     0.162 C 
ENDROOT
BRANCH   4   5
HETATM    5  N2  UNL     1      80.294  38.502  27.852  1.00  0.00    -0.201 NA
HETATM    6  C3  UNL     1      81.615  39.055  28.091  1.00  0.00     0.139 C 
BRANCH   5   7
HETATM    7  N3  UNL     1      80.007  37.507  28.797  1.00  0.00    -0.165 NA
HETATM    8  C4  UNL     1      80.917  37.508  29.903  1.00  0.00     0.153 C 
ENDBRANCH   5   7
ENDBRANCH   4   5
TORSDOF 2
ENDMDL
