MODEL 1
REMARK VINA RESULT: -8.627033831      0.000      0.000
REMARK  7 active torsions:
REMARK  status: ('A' for Active; 'I' for Inactive)
REMARK    1  A    between atoms: C2_2  and  C3_3 
REMARK    2  A    between atoms: C3_3  and  N1_4 
REMARK    3  A    between atoms: N3_13  and  C7_14 
REMARK    4  A    between atoms: C10_17  and  N4_18 
REMARK       I    between atoms: N4_18  and  C11_20 
REMARK    5  A    between atoms: C11_20  and  C12_22 
REMARK    6  A    between atoms: N5_24  and  O2_25 
REMARK    7  A    between atoms: N8_29  and  O3_30 
ROOT
HETATM    1  C7  UNL     1      62.464 101.767 116.922  1.00  0.00     0.103 A 
HETATM    2  C8  UNL     1      61.218 101.977 116.415  1.00  0.00     0.051 A 
HETATM    3  C9  UNL     1      60.706 103.238 116.324  1.00  0.00     0.035 A 
HETATM    4  C10 UNL     1      61.470 104.343 116.757  1.00  0.00     0.050 A 
HETATM    5  C14 UNL     1      62.719 104.082 117.261  1.00  0.00     0.119 A 
HETATM    6  N9  UNL     1      63.167 102.835 117.327  1.00  0.00    -0.350 N 
ATOM      7  H9  UNL     1      64.100 102.680 117.708  1.00  0.00     0.166 HD
ENDROOT
BRANCH   4   8
HETATM    8  N4  UNL     1      60.878 105.597 116.656  1.00  0.00    -0.323 N 
HETATM    9  C11 UNL     1      61.060 106.515 115.635  1.00  0.00     0.267 C 
HETATM   10  O1  UNL     1      61.811 106.273 114.659  1.00  0.00    -0.269 OA
ATOM     11  H4  UNL     1      60.246 105.869 117.410  1.00  0.00     0.169 HD
BRANCH   9  12
HETATM   12  C12 UNL     1      60.352 107.866 115.651  1.00  0.00     0.230 C 
HETATM   13  C13 UNL     1      58.886 107.641 115.536  1.00  0.00     0.069 C 
HETATM   14  N5  UNL     1      60.773 108.539 116.832  1.00  0.00    -0.056 NA
HETATM   15  N6  UNL     1      60.869 109.871 116.451  1.00  0.00    -0.009 NA
HETATM   16  N7  UNL     1      60.986 109.918 115.078  1.00  0.00    -0.009 NA
HETATM   17  N8  UNL     1      60.930 108.628 114.587  1.00  0.00    -0.056 NA
BRANCH  14  18
HETATM   18  O2  UNL     1      59.952 108.371 117.888  1.00  0.00    -0.293 OA
ATOM     19  H2  UNL     1      59.419 107.585 117.848  1.00  0.00     0.238 HD
ENDBRANCH  14  18
BRANCH  17  20
HETATM   20  O3  UNL     1      60.316 108.510 113.411  1.00  0.00    -0.293 OA
ATOM     21  H3  UNL     1      59.963 109.318 113.059  1.00  0.00     0.238 HD
ENDBRANCH  17  20
ENDBRANCH   9  12
ENDBRANCH   4   8
BRANCH   1  22
HETATM   22  N3  UNL     1      63.076 100.514 117.081  1.00  0.00    -0.353 N 
HETATM   23  C2  UNL     1      62.998  99.594 118.171  1.00  0.00     0.069 C 
HETATM   24  C1  UNL     1      64.461  99.144 118.416  1.00  0.00     0.042 C 
HETATM   25  C4  UNL     1      62.203  98.403 117.668  1.00  0.00     0.146 C 
HETATM   26  N2  UNL     1      62.061  98.438 116.226  1.00  0.00    -0.417 N 
HETATM   27  C5  UNL     1      63.255  98.751 115.510  1.00  0.00     0.133 C 
ATOM     28  H2  UNL     1      61.174  98.253 115.758  1.00  0.00     0.153 HD
HETATM   29  C6  UNL     1      63.908 100.043 115.948  1.00  0.00     0.144 C 
BRANCH  23  30
HETATM   30  C3  UNL     1      62.538 100.132 119.479  1.00  0.00     0.262 C 
BRANCH  30  31
HETATM   31  N1  UNL     1      63.581 100.087 120.492  1.00  0.00    -0.077 N 
ATOM     32  H13 UNL     1      63.985  99.153 120.564  1.00  0.00     0.274 HD
ATOM     33  H12 UNL     1      64.409 100.599 120.190  1.00  0.00     0.274 HD
ATOM     34  H11 UNL     1      63.255 100.418 121.400  1.00  0.00     0.274 HD
ENDBRANCH  30  31
ENDBRANCH  23  30
ENDBRANCH   1  22
TORSDOF 7
ENDMDL
MODEL 2
REMARK VINA RESULT: -8.437708143      1.384      2.136
REMARK  7 active torsions:
REMARK  status: ('A' for Active; 'I' for Inactive)
REMARK    1  A    between atoms: C2_2  and  C3_3 
REMARK    2  A    between atoms: C3_3  and  N1_4 
REMARK    3  A    between atoms: N3_13  and  C7_14 
REMARK    4  A    between atoms: C10_17  and  N4_18 
REMARK       I    between atoms: N4_18  and  C11_20 
REMARK    5  A    between atoms: C11_20  and  C12_22 
REMARK    6  A    between atoms: N5_24  and  O2_25 
REMARK    7  A    between atoms: N8_29  and  O3_30 
ROOT
HETATM    1  C7  UNL     1      61.443 101.679 116.767  1.00  0.00     0.103 A 
HETATM    2  C8  UNL     1      60.474 102.348 117.452  1.00  0.00     0.051 A 
HETATM    3  C9  UNL     1      60.094 103.603 117.074  1.00  0.00     0.035 A 
HETATM    4  C10 UNL     1      60.707 104.221 115.964  1.00  0.00     0.050 A 
HETATM    5  C14 UNL     1      61.677 103.509 115.306  1.00  0.00     0.119 A 
HETATM    6  N9  UNL     1      62.007 102.292 115.716  1.00  0.00    -0.350 N 
ATOM      7  H9  UNL     1      62.734 101.792 115.203  1.00  0.00     0.166 HD
ENDROOT
BRANCH   4   8
HETATM    8  N4  UNL     1      60.287 105.509 115.648  1.00  0.00    -0.323 N 
HETATM    9  C11 UNL     1      60.822 106.692 116.130  1.00  0.00     0.267 C 
HETATM   10  O1  UNL     1      61.788 106.700 116.932  1.00  0.00    -0.269 OA
ATOM     11  H4  UNL     1      59.506 105.591 114.996  1.00  0.00     0.169 HD
BRANCH   9  12
HETATM   12  C12 UNL     1      60.258 108.045 115.708  1.00  0.00     0.230 C 
HETATM   13  C13 UNL     1      58.787 107.914 115.524  1.00  0.00     0.069 C 
HETATM   14  N5  UNL     1      60.665 108.989 116.692  1.00  0.00    -0.056 NA
HETATM   15  N6  UNL     1      60.923 110.146 115.969  1.00  0.00    -0.009 NA
HETATM   16  N7  UNL     1      61.136 109.794 114.654  1.00  0.00    -0.009 NA
HETATM   17  N8  UNL     1      60.981 108.426 114.534  1.00  0.00    -0.056 NA
BRANCH  14  18
HETATM   18  O2  UNL     1      59.762 109.192 117.672  1.00  0.00    -0.293 OA
ATOM     19  H2  UNL     1      59.925 109.967 118.198  1.00  0.00     0.238 HD
ENDBRANCH  14  18
BRANCH  17  20
HETATM   20  O3  UNL     1      60.438 108.030 113.384  1.00  0.00    -0.293 OA
ATOM     21  H3  UNL     1      59.496 108.138 113.326  1.00  0.00     0.238 HD
ENDBRANCH  17  20
ENDBRANCH   9  12
ENDBRANCH   4   8
BRANCH   1  22
HETATM   22  N3  UNL     1      61.923 100.399 117.082  1.00  0.00    -0.353 N 
HETATM   23  C2  UNL     1      61.529  99.127 116.567  1.00  0.00     0.069 C 
HETATM   24  C1  UNL     1      61.402  98.215 117.815  1.00  0.00     0.042 C 
HETATM   25  C4  UNL     1      62.688  98.630 115.721  1.00  0.00     0.146 C 
HETATM   26  N2  UNL     1      63.883  99.417 115.956  1.00  0.00    -0.417 N 
HETATM   27  C5  UNL     1      64.168  99.686 117.327  1.00  0.00     0.133 C 
ATOM     28  H2  UNL     1      64.475  99.754 115.196  1.00  0.00     0.153 HD
HETATM   29  C6  UNL     1      63.024 100.338 118.072  1.00  0.00     0.144 C 
BRANCH  23  30
HETATM   30  C3  UNL     1      60.203  99.047 115.898  1.00  0.00     0.262 C 
BRANCH  30  31
HETATM   31  N1  UNL     1      59.480  97.834 116.246  1.00  0.00    -0.077 N 
ATOM     32  H13 UNL     1      59.201  97.841 117.227  1.00  0.00     0.274 HD
ATOM     33  H12 UNL     1      58.557  97.818 115.815  1.00  0.00     0.274 HD
ATOM     34  H11 UNL     1      60.007  96.990 116.019  1.00  0.00     0.274 HD
ENDBRANCH  30  31
ENDBRANCH  23  30
ENDBRANCH   1  22
TORSDOF 7
ENDMDL
MODEL 3
REMARK VINA RESULT: -8.390032098      0.966      2.095
REMARK  7 active torsions:
REMARK  status: ('A' for Active; 'I' for Inactive)
REMARK    1  A    between atoms: C2_2  and  C3_3 
REMARK    2  A    between atoms: C3_3  and  N1_4 
REMARK    3  A    between atoms: N3_13  and  C7_14 
REMARK    4  A    between atoms: C10_17  and  N4_18 
REMARK       I    between atoms: N4_18  and  C11_20 
REMARK    5  A    between atoms: C11_20  and  C12_22 
REMARK    6  A    between atoms: N5_24  and  O2_25 
REMARK    7  A    between atoms: N8_29  and  O3_30 
ROOT
HETATM    1  C7  UNL     1      61.403 101.650 117.098  1.00  0.00     0.103 A 
HETATM    2  C8  UNL     1      60.348 101.985 116.305  1.00  0.00     0.051 A 
HETATM    3  C9  UNL     1      59.973 103.289 116.159  1.00  0.00     0.035 A 
HETATM    4  C10 UNL     1      60.680 104.306 116.834  1.00  0.00     0.050 A 
HETATM    5  C14 UNL     1      61.736 103.920 117.621  1.00  0.00     0.119 A 
HETATM    6  N9  UNL     1      62.056 102.637 117.727  1.00  0.00    -0.350 N 
ATOM      7  H9  UNL     1      62.846 102.387 118.322  1.00  0.00     0.166 HD
ENDROOT
BRANCH   4   8
HETATM    8  N4  UNL     1      60.230 105.611 116.658  1.00  0.00    -0.323 N 
HETATM    9  C11 UNL     1      60.773 106.563 115.812  1.00  0.00     0.267 C 
HETATM   10  O1  UNL     1      61.768 106.312 115.089  1.00  0.00    -0.269 OA
ATOM     11  H4  UNL     1      59.419 105.894 117.208  1.00  0.00     0.169 HD
BRANCH   9  12
HETATM   12  C12 UNL     1      60.184 107.967 115.721  1.00  0.00     0.230 C 
HETATM   13  C13 UNL     1      58.708 107.858 115.564  1.00  0.00     0.069 C 
HETATM   14  N5  UNL     1      60.621 108.675 116.875  1.00  0.00    -0.056 NA
HETATM   15  N6  UNL     1      60.844 109.968 116.419  1.00  0.00    -0.009 NA
HETATM   16  N7  UNL     1      61.009 109.919 115.051  1.00  0.00    -0.009 NA
HETATM   17  N8  UNL     1      60.859 108.611 114.637  1.00  0.00    -0.056 NA
BRANCH  14  18
HETATM   18  O2  UNL     1      59.755 108.643 117.907  1.00  0.00    -0.293 OA
ATOM     19  H2  UNL     1      59.951 109.260 118.602  1.00  0.00     0.238 HD
ENDBRANCH  14  18
BRANCH  17  20
HETATM   20  O3  UNL     1      60.276 108.471 113.447  1.00  0.00    -0.293 OA
ATOM     21  H3  UNL     1      59.489 108.988 113.323  1.00  0.00     0.238 HD
ENDBRANCH  17  20
ENDBRANCH   9  12
ENDBRANCH   4   8
BRANCH   1  22
HETATM   22  N3  UNL     1      61.858 100.343 117.334  1.00  0.00    -0.353 N 
HETATM   23  C2  UNL     1      62.834  99.577 116.628  1.00  0.00     0.069 C 
HETATM   24  C1  UNL     1      62.192  98.176 116.458  1.00  0.00     0.042 C 
HETATM   25  C4  UNL     1      64.031  99.452 117.553  1.00  0.00     0.146 C 
HETATM   26  N2  UNL     1      63.694  99.856 118.904  1.00  0.00    -0.417 N 
HETATM   27  C5  UNL     1      62.457  99.342 119.395  1.00  0.00     0.133 C 
ATOM     28  H2  UNL     1      64.296 100.462 119.461  1.00  0.00     0.153 HD
HETATM   29  C6  UNL     1      61.273  99.649 118.506  1.00  0.00     0.144 C 
BRANCH  23  30
HETATM   30  C3  UNL     1      63.169 100.015 115.246  1.00  0.00     0.262 C 
BRANCH  30  31
HETATM   31  N1  UNL     1      64.348 100.865 115.207  1.00  0.00    -0.077 N 
ATOM     32  H13 UNL     1      64.495 101.248 114.273  1.00  0.00     0.274 HD
ATOM     33  H12 UNL     1      64.193 101.734 115.716  1.00  0.00     0.274 HD
ATOM     34  H11 UNL     1      65.183 100.386 115.543  1.00  0.00     0.274 HD
ENDBRANCH  30  31
ENDBRANCH  23  30
ENDBRANCH   1  22
TORSDOF 7
ENDMDL
MODEL 4
REMARK VINA RESULT: -7.730105237      4.711      7.463
REMARK  7 active torsions:
REMARK  status: ('A' for Active; 'I' for Inactive)
REMARK    1  A    between atoms: C2_2  and  C3_3 
REMARK    2  A    between atoms: C3_3  and  N1_4 
REMARK    3  A    between atoms: N3_13  and  C7_14 
REMARK    4  A    between atoms: C10_17  and  N4_18 
REMARK       I    between atoms: N4_18  and  C11_20 
REMARK    5  A    between atoms: C11_20  and  C12_22 
REMARK    6  A    between atoms: N5_24  and  O2_25 
REMARK    7  A    between atoms: N8_29  and  O3_30 
ROOT
HETATM    1  C7  UNL     1      65.442  95.501 118.323  1.00  0.00     0.103 A 
HETATM    2  C8  UNL     1      66.302  96.495 117.964  1.00  0.00     0.051 A 
HETATM    3  C9  UNL     1      65.835  97.668 117.449  1.00  0.00     0.035 A 
HETATM    4  C10 UNL     1      64.448  97.864 117.283  1.00  0.00     0.050 A 
HETATM    5  C14 UNL     1      63.621  96.835 117.658  1.00  0.00     0.119 A 
HETATM    6  N9  UNL     1      64.129  95.715 118.153  1.00  0.00    -0.350 N 
ATOM      7  H9  UNL     1      63.484  94.972 118.421  1.00  0.00     0.166 HD
ENDROOT
BRANCH   4   8
HETATM    8  N4  UNL     1      64.043  99.075 116.732  1.00  0.00    -0.323 N 
HETATM    9  C11 UNL     1      63.373 100.095 117.385  1.00  0.00     0.267 C 
HETATM   10  O1  UNL     1      63.063 100.008 118.599  1.00  0.00    -0.269 OA
ATOM     11  H4  UNL     1      64.262  99.227 115.747  1.00  0.00     0.169 HD
BRANCH   9  12
HETATM   12  C12 UNL     1      62.977 101.375 116.656  1.00  0.00     0.230 C 
HETATM   13  C13 UNL     1      62.087 101.023 115.517  1.00  0.00     0.069 C 
HETATM   14  N5  UNL     1      62.407 102.245 117.627  1.00  0.00    -0.056 NA
HETATM   15  N6  UNL     1      62.837 103.510 117.248  1.00  0.00    -0.009 NA
HETATM   16  N7  UNL     1      63.948 103.364 116.446  1.00  0.00    -0.009 NA
HETATM   17  N8  UNL     1      64.202 102.015 116.288  1.00  0.00    -0.056 NA
BRANCH  14  18
HETATM   18  O2  UNL     1      61.063 102.171 117.716  1.00  0.00    -0.293 OA
ATOM     19  H2  UNL     1      60.603 102.870 117.267  1.00  0.00     0.238 HD
ENDBRANCH  14  18
BRANCH  17  20
HETATM   20  O3  UNL     1      64.675 101.679 115.089  1.00  0.00    -0.293 OA
ATOM     21  H3  UNL     1      64.230 102.082 114.353  1.00  0.00     0.238 HD
ENDBRANCH  17  20
ENDBRANCH   9  12
ENDBRANCH   4   8
BRANCH   1  22
HETATM   22  N3  UNL     1      65.815  94.251 118.840  1.00  0.00    -0.353 N 
HETATM   23  C2  UNL     1      66.177  93.053 118.152  1.00  0.00     0.069 C 
HETATM   24  C1  UNL     1      65.403  91.926 118.885  1.00  0.00     0.042 C 
HETATM   25  C4  UNL     1      67.662  92.854 118.391  1.00  0.00     0.146 C 
HETATM   26  N2  UNL     1      68.144  93.723 119.447  1.00  0.00    -0.417 N 
HETATM   27  C5  UNL     1      67.317  93.776 120.608  1.00  0.00     0.133 C 
ATOM     28  H2  UNL     1      69.010  94.255 119.366  1.00  0.00     0.153 HD
HETATM   29  C6  UNL     1      65.879  94.146 120.317  1.00  0.00     0.144 C 
BRANCH  23  30
HETATM   30  C3  UNL     1      65.763  92.938 116.728  1.00  0.00     0.262 C 
BRANCH  30  31
HETATM   31  N1  UNL     1      64.378  92.515 116.588  1.00  0.00    -0.077 N 
ATOM     32  H13 UNL     1      63.741  93.308 116.667  1.00  0.00     0.274 HD
ATOM     33  H12 UNL     1      64.172  92.238 115.629  1.00  0.00     0.274 HD
ATOM     34  H11 UNL     1      64.129  91.777 117.246  1.00  0.00     0.274 HD
ENDBRANCH  30  31
ENDBRANCH  23  30
ENDBRANCH   1  22
TORSDOF 7
ENDMDL
MODEL 5
REMARK VINA RESULT: -7.461767694      5.879      9.007
REMARK  7 active torsions:
REMARK  status: ('A' for Active; 'I' for Inactive)
REMARK    1  A    between atoms: C2_2  and  C3_3 
REMARK    2  A    between atoms: C3_3  and  N1_4 
REMARK    3  A    between atoms: N3_13  and  C7_14 
REMARK    4  A    between atoms: C10_17  and  N4_18 
REMARK       I    between atoms: N4_18  and  C11_20 
REMARK    5  A    between atoms: C11_20  and  C12_22 
REMARK    6  A    between atoms: N5_24  and  O2_25 
REMARK    7  A    between atoms: N8_29  and  O3_30 
ROOT
HETATM    1  C7  UNL     1      65.389  94.075 119.921  1.00  0.00     0.103 A 
HETATM    2  C8  UNL     1      65.016  94.060 118.611  1.00  0.00     0.051 A 
HETATM    3  C9  UNL     1      64.413  95.145 118.045  1.00  0.00     0.035 A 
HETATM    4  C10 UNL     1      64.171  96.300 118.818  1.00  0.00     0.050 A 
HETATM    5  C14 UNL     1      64.563  96.269 120.133  1.00  0.00     0.119 A 
HETATM    6  N9  UNL     1      65.145  95.186 120.631  1.00  0.00    -0.350 N 
ATOM      7  H9  UNL     1      65.423  95.199 121.612  1.00  0.00     0.166 HD
ENDROOT
BRANCH   4   8
HETATM    8  N4  UNL     1      63.533  97.361 118.184  1.00  0.00    -0.323 N 
HETATM    9  C11 UNL     1      64.140  98.473 117.625  1.00  0.00     0.267 C 
HETATM   10  O1  UNL     1      65.387  98.620 117.641  1.00  0.00    -0.269 OA
ATOM     11  H4  UNL     1      62.515  97.316 118.124  1.00  0.00     0.169 HD
BRANCH   9  12
HETATM   12  C12 UNL     1      63.318  99.575 116.963  1.00  0.00     0.230 C 
HETATM   13  C13 UNL     1      62.586  98.995 115.805  1.00  0.00     0.069 C 
HETATM   14  N5  UNL     1      62.498 100.144 117.976  1.00  0.00    -0.056 NA
HETATM   15  N6  UNL     1      62.461 101.497 117.667  1.00  0.00    -0.009 NA
HETATM   16  N7  UNL     1      63.543 101.783 116.861  1.00  0.00    -0.009 NA
HETATM   17  N8  UNL     1      64.243 100.615 116.633  1.00  0.00    -0.056 NA
BRANCH  14  18
HETATM   18  O2  UNL     1      61.263  99.608 118.057  1.00  0.00    -0.293 OA
ATOM     19  H2  UNL     1      60.830  99.497 117.219  1.00  0.00     0.238 HD
ENDBRANCH  14  18
BRANCH  17  20
HETATM   20  O3  UNL     1      64.785 100.523 115.420  1.00  0.00    -0.293 OA
ATOM     21  H3  UNL     1      64.208 100.179 114.748  1.00  0.00     0.238 HD
ENDBRANCH  17  20
ENDBRANCH   9  12
ENDBRANCH   4   8
BRANCH   1  22
HETATM   22  N3  UNL     1      65.993  93.010 120.606  1.00  0.00    -0.353 N 
HETATM   23  C2  UNL     1      67.373  92.660 120.709  1.00  0.00     0.069 C 
HETATM   24  C1  UNL     1      67.412  91.126 120.479  1.00  0.00     0.042 C 
HETATM   25  C4  UNL     1      67.781  92.943 122.143  1.00  0.00     0.146 C 
HETATM   26  N2  UNL     1      66.621  93.165 122.984  1.00  0.00    -0.417 N 
HETATM   27  C5  UNL     1      65.557  92.233 122.801  1.00  0.00     0.133 C 
ATOM     28  H2  UNL     1      66.570  93.930 123.656  1.00  0.00     0.153 HD
HETATM   29  C6  UNL     1      65.083  92.122 121.368  1.00  0.00     0.144 C 
BRANCH  23  30
HETATM   30  C3  UNL     1      68.293  93.223 119.685  1.00  0.00     0.262 C 
BRANCH  30  31
HETATM   31  N1  UNL     1      68.905  92.190 118.864  1.00  0.00    -0.077 N 
ATOM     32  H13 UNL     1      69.911  92.140 119.025  1.00  0.00     0.274 HD
ATOM     33  H12 UNL     1      68.643  91.260 119.187  1.00  0.00     0.274 HD
ATOM     34  H11 UNL     1      68.696  92.309 117.873  1.00  0.00     0.274 HD
ENDBRANCH  30  31
ENDBRANCH  23  30
ENDBRANCH   1  22
TORSDOF 7
ENDMDL
