MODEL 1
REMARK VINA RESULT: -10.098691192      0.000      0.000
REMARK  0 active torsions:
REMARK  status: ('A' for Active; 'I' for Inactive)
ROOT
HETATM    1  O1  UNL     1      -6.138  54.073 163.189  1.00  0.00    -0.247 OA
HETATM    2  C1  UNL     1      -5.855  52.932 163.632  1.00  0.00     0.324 A 
HETATM    3  N1  UNL     1      -6.826  52.009 163.778  1.00  0.00    -0.318 N 
ATOM      4  H1  UNL     1      -7.779  52.266 163.521  1.00  0.00     0.170 HD
HETATM    5  C2  UNL     1      -6.604  50.764 164.246  1.00  0.00     0.106 A 
HETATM    6  C3  UNL     1      -5.306  50.457 164.584  1.00  0.00     0.007 A 
HETATM    7  C4  UNL     1      -5.177  49.167 165.050  1.00  0.00     0.015 C 
HETATM    8  C5  UNL     1      -4.087  48.575 165.632  1.00  0.00     0.002 C 
HETATM    9  C6  UNL     1      -2.765  48.934 165.554  1.00  0.00     0.013 C 
HETATM   10  C7  UNL     1      -2.205  50.164 165.233  1.00  0.00    -0.007 A 
HETATM   11  C8  UNL     1      -1.035  50.889 165.193  1.00  0.00     0.023 A 
HETATM   12  C9  UNL     1      -1.685  52.021 164.691  1.00  0.00     0.101 A 
HETATM   13  O2  UNL     1      -0.782  52.962 164.530  1.00  0.00    -0.308 OA
HETATM   14  C10 UNL     1       0.408  52.513 164.895  1.00  0.00     0.087 A 
HETATM   15  C11 UNL     1       1.665  53.077 164.927  1.00  0.00     0.038 A 
HETATM   16  C12 UNL     1       2.774  52.379 165.362  1.00  0.00     0.003 A 
HETATM   17  C13 UNL     1       2.662  51.091 165.784  1.00  0.00     0.001 A 
HETATM   18  C14 UNL     1       1.417  50.497 165.764  1.00  0.00     0.015 A 
HETATM   19  C15 UNL     1       0.306  51.199 165.326  1.00  0.00     0.012 A 
HETATM   20  C16 UNL     1      -2.883  51.342 164.710  1.00  0.00     0.038 A 
HETATM   21  C17 UNL     1      -4.231  51.434 164.438  1.00  0.00     0.061 A 
HETATM   22  N2  UNL     1      -4.569  52.645 163.960  1.00  0.00    -0.307 N 
ATOM     23  H2  UNL     1      -3.849  53.358 163.842  1.00  0.00     0.170 HD
ENDROOT
TORSDOF 0
ENDMDL
MODEL 2
REMARK VINA RESULT: -9.611571555      1.869      3.005
REMARK  0 active torsions:
REMARK  status: ('A' for Active; 'I' for Inactive)
ROOT
HETATM    1  O1  UNL     1      -6.381  48.888 165.684  1.00  0.00    -0.247 OA
HETATM    2  C1  UNL     1      -6.016  49.917 165.063  1.00  0.00     0.324 A 
HETATM    3  N1  UNL     1      -6.935  50.697 164.460  1.00  0.00    -0.318 N 
ATOM      4  H1  UNL     1      -7.916  50.427 164.525  1.00  0.00     0.170 HD
HETATM    5  C2  UNL     1      -6.625  51.817 163.774  1.00  0.00     0.106 A 
HETATM    6  C3  UNL     1      -5.291  52.147 163.708  1.00  0.00     0.007 A 
HETATM    7  C4  UNL     1      -5.072  53.302 162.990  1.00  0.00     0.015 C 
HETATM    8  C5  UNL     1      -3.881  53.834 162.572  1.00  0.00     0.002 C 
HETATM    9  C6  UNL     1      -2.617  53.615 163.063  1.00  0.00     0.013 C 
HETATM   10  C7  UNL     1      -2.135  52.543 163.801  1.00  0.00    -0.007 A 
HETATM   11  C8  UNL     1      -1.001  51.946 164.307  1.00  0.00     0.023 A 
HETATM   12  C9  UNL     1      -1.735  50.909 164.890  1.00  0.00     0.101 A 
HETATM   13  O2  UNL     1      -0.886  50.109 165.495  1.00  0.00    -0.308 OA
HETATM   14  C10 UNL     1       0.348  50.560 165.340  1.00  0.00     0.087 A 
HETATM   15  C11 UNL     1       1.581  50.112 165.762  1.00  0.00     0.038 A 
HETATM   16  C12 UNL     1       2.750  50.783 165.461  1.00  0.00     0.003 A 
HETATM   17  C13 UNL     1       2.725  51.927 164.725  1.00  0.00     0.001 A 
HETATM   18  C14 UNL     1       1.505  52.403 164.289  1.00  0.00     0.015 A 
HETATM   19  C15 UNL     1       0.334  51.728 164.592  1.00  0.00     0.012 A 
HETATM   20  C16 UNL     1      -2.901  51.463 164.409  1.00  0.00     0.038 A 
HETATM   21  C17 UNL     1      -4.270  51.322 164.350  1.00  0.00     0.061 A 
HETATM   22  N2  UNL     1      -4.696  50.228 165.007  1.00  0.00    -0.307 N 
ATOM     23  H2  UNL     1      -4.017  49.624 165.470  1.00  0.00     0.170 HD
ENDROOT
TORSDOF 0
ENDMDL
MODEL 3
REMARK VINA RESULT: -9.324767135      0.955      1.061
REMARK  0 active torsions:
REMARK  status: ('A' for Active; 'I' for Inactive)
ROOT
HETATM    1  O1  UNL     1      -5.606  54.502 162.037  1.00  0.00    -0.247 OA
HETATM    2  C1  UNL     1      -5.649  53.462 162.739  1.00  0.00     0.324 A 
HETATM    3  N1  UNL     1      -6.838  52.901 163.035  1.00  0.00    -0.318 N 
ATOM      4  H1  UNL     1      -7.684  53.344 162.676  1.00  0.00     0.170 HD
HETATM    5  C2  UNL     1      -6.968  51.785 163.781  1.00  0.00     0.106 A 
HETATM    6  C3  UNL     1      -5.805  51.219 164.249  1.00  0.00     0.007 A 
HETATM    7  C4  UNL     1      -6.037  50.087 164.998  1.00  0.00     0.015 C 
HETATM    8  C5  UNL     1      -5.151  49.369 165.757  1.00  0.00     0.002 C 
HETATM    9  C6  UNL     1      -3.781  49.322 165.672  1.00  0.00     0.013 C 
HETATM   10  C7  UNL     1      -2.903  50.242 165.114  1.00  0.00    -0.007 A 
HETATM   11  C8  UNL     1      -1.577  50.588 164.976  1.00  0.00     0.023 A 
HETATM   12  C9  UNL     1      -1.889  51.708 164.198  1.00  0.00     0.101 A 
HETATM   13  O2  UNL     1      -0.761  52.300 163.880  1.00  0.00    -0.308 OA
HETATM   14  C10 UNL     1       0.260  51.638 164.400  1.00  0.00     0.087 A 
HETATM   15  C11 UNL     1       1.624  51.826 164.372  1.00  0.00     0.038 A 
HETATM   16  C12 UNL     1       2.498  50.970 165.012  1.00  0.00     0.003 A 
HETATM   17  C13 UNL     1       2.035  49.895 165.705  1.00  0.00     0.001 A 
HETATM   18  C14 UNL     1       0.673  49.679 165.752  1.00  0.00     0.015 A 
HETATM   19  C15 UNL     1      -0.202  50.539 165.108  1.00  0.00     0.012 A 
HETATM   20  C16 UNL     1      -3.229  51.408 164.304  1.00  0.00     0.038 A 
HETATM   21  C17 UNL     1      -4.500  51.802 163.946  1.00  0.00     0.061 A 
HETATM   22  N2  UNL     1      -4.491  52.915 163.192  1.00  0.00    -0.307 N 
ATOM     23  H2  UNL     1      -3.601  53.356 162.956  1.00  0.00     0.170 HD
ENDROOT
TORSDOF 0
ENDMDL
MODEL 4
REMARK VINA RESULT: -9.156025635      2.314      6.224
REMARK  0 active torsions:
REMARK  status: ('A' for Active; 'I' for Inactive)
ROOT
HETATM    1  O1  UNL     1       1.995  54.621 164.668  1.00  0.00    -0.247 OA
HETATM    2  C1  UNL     1       1.758  53.417 164.937  1.00  0.00     0.324 A 
HETATM    3  N1  UNL     1       2.765  52.602 165.308  1.00  0.00    -0.318 N 
ATOM      4  H1  UNL     1       3.707  52.990 165.361  1.00  0.00     0.170 HD
HETATM    5  C2  UNL     1       2.594  51.299 165.612  1.00  0.00     0.106 A 
HETATM    6  C3  UNL     1       1.309  50.812 165.527  1.00  0.00     0.007 A 
HETATM    7  C4  UNL     1       1.233  49.477 165.855  1.00  0.00     0.015 C 
HETATM    8  C5  UNL     1       0.169  48.624 165.719  1.00  0.00     0.002 C 
HETATM    9  C6  UNL     1      -1.167  48.921 165.611  1.00  0.00     0.013 C 
HETATM   10  C7  UNL     1      -1.776  50.102 165.208  1.00  0.00    -0.007 A 
HETATM   11  C8  UNL     1      -2.973  50.688 164.862  1.00  0.00     0.023 A 
HETATM   12  C9  UNL     1      -2.370  51.930 164.641  1.00  0.00     0.101 A 
HETATM   13  O2  UNL     1      -3.309  52.771 164.271  1.00  0.00    -0.308 OA
HETATM   14  C10 UNL     1      -4.480  52.154 164.238  1.00  0.00     0.087 A 
HETATM   15  C11 UNL     1      -5.757  52.563 163.925  1.00  0.00     0.038 A 
HETATM   16  C12 UNL     1      -6.837  51.703 163.970  1.00  0.00     0.003 A 
HETATM   17  C13 UNL     1      -6.674  50.402 164.331  1.00  0.00     0.001 A 
HETATM   18  C14 UNL     1      -5.406  49.961 164.652  1.00  0.00     0.015 A 
HETATM   19  C15 UNL     1      -4.325  50.826 164.606  1.00  0.00     0.012 A 
HETATM   20  C16 UNL     1      -1.146  51.396 164.978  1.00  0.00     0.038 A 
HETATM   21  C17 UNL     1       0.196  51.669 165.127  1.00  0.00     0.061 A 
HETATM   22  N2  UNL     1       0.486  52.953 164.848  1.00  0.00    -0.307 N 
ATOM     23  H2  UNL     1      -0.262  53.586 164.565  1.00  0.00     0.170 HD
ENDROOT
TORSDOF 0
ENDMDL
MODEL 5
REMARK VINA RESULT: -9.002727253      1.713      2.325
REMARK  0 active torsions:
REMARK  status: ('A' for Active; 'I' for Inactive)
ROOT
HETATM    1  O1  UNL     1      -4.422  54.892 160.827  1.00  0.00    -0.247 OA
HETATM    2  C1  UNL     1      -4.881  54.110 161.695  1.00  0.00     0.324 A 
HETATM    3  N1  UNL     1      -6.207  54.074 161.931  1.00  0.00    -0.318 N 
ATOM      4  H1  UNL     1      -6.812  54.693 161.391  1.00  0.00     0.170 HD
HETATM    5  C2  UNL     1      -6.778  53.263 162.846  1.00  0.00     0.106 A 
HETATM    6  C3  UNL     1      -5.930  52.445 163.556  1.00  0.00     0.007 A 
HETATM    7  C4  UNL     1      -6.601  51.655 164.463  1.00  0.00     0.015 C 
HETATM    8  C5  UNL     1      -6.082  50.857 165.448  1.00  0.00     0.002 C 
HETATM    9  C6  UNL     1      -4.822  50.322 165.553  1.00  0.00     0.013 C 
HETATM   10  C7  UNL     1      -3.639  50.737 164.956  1.00  0.00    -0.007 A 
HETATM   11  C8  UNL     1      -2.273  50.564 164.930  1.00  0.00     0.023 A 
HETATM   12  C9  UNL     1      -2.110  51.525 163.927  1.00  0.00     0.101 A 
HETATM   13  O2  UNL     1      -0.828  51.607 163.656  1.00  0.00    -0.308 OA
HETATM   14  C10 UNL     1      -0.150  50.762 164.416  1.00  0.00     0.087 A 
HETATM   15  C11 UNL     1       1.188  50.455 164.532  1.00  0.00     0.038 A 
HETATM   16  C12 UNL     1       1.651  49.510 165.426  1.00  0.00     0.003 A 
HETATM   17  C13 UNL     1       0.789  48.840 166.237  1.00  0.00     0.001 A 
HETATM   18  C14 UNL     1      -0.558  49.124 166.145  1.00  0.00     0.015 A 
HETATM   19  C15 UNL     1      -1.020  50.072 165.247  1.00  0.00     0.012 A 
HETATM   20  C16 UNL     1      -3.471  51.738 163.911  1.00  0.00     0.038 A 
HETATM   21  C17 UNL     1      -4.488  52.460 163.324  1.00  0.00     0.061 A 
HETATM   22  N2  UNL     1      -4.031  53.309 162.387  1.00  0.00    -0.307 N 
ATOM     23  H2  UNL     1      -3.030  53.352 162.193  1.00  0.00     0.170 HD
ENDROOT
TORSDOF 0
ENDMDL
