MODEL 1
REMARK VINA RESULT: -3.490532470      0.000      0.000
REMARK  2 active torsions:
REMARK  status: ('A' for Active; 'I' for Inactive)
REMARK    1  A    between atoms: N2_4  and  C1_6 
REMARK    2  A    between atoms: C1_6  and  C2_7 
ROOT
HETATM    1  N1  UNL     1      95.400  61.184  -9.612  1.00  0.00    -0.349 N 
ATOM      2  H11 UNL     1      94.505  61.416  -9.180  1.00  0.00     0.176 HD
ATOM      3  H12 UNL     1      95.527  60.369 -10.212  1.00  0.00     0.176 HD
HETATM    4  N2  UNL     1      96.350  61.953  -9.370  1.00  0.00    -0.341 N 
ATOM      5  H2  UNL     1      96.238  62.772  -8.772  1.00  0.00     0.179 HD
ENDROOT
BRANCH   4   6
HETATM    6  C1  UNL     1      97.608  61.627  -9.977  1.00  0.00     0.164 C 
BRANCH   6   7
HETATM    7  C2  UNL     1      98.409  60.714  -9.098  1.00  0.00     0.151 C 
HETATM    8  C3  UNL     1      99.537  61.332  -8.338  1.00  0.00     0.221 C 
HETATM    9  O1  UNL     1      99.241  60.310  -7.405  1.00  0.00    -0.284 OA
HETATM   10  N3  UNL     1      97.930  60.500  -7.770  1.00  0.00    -0.092 NA
ENDBRANCH   6   7
ENDBRANCH   4   6
TORSDOF 2
ENDMDL
MODEL 2
REMARK VINA RESULT: -3.482817504      2.984      3.635
REMARK  2 active torsions:
REMARK  status: ('A' for Active; 'I' for Inactive)
REMARK    1  A    between atoms: N2_4  and  C1_6 
REMARK    2  A    between atoms: C1_6  and  C2_7 
ROOT
HETATM    1  N1  UNL     1      96.973  60.120  -9.350  1.00  0.00    -0.349 N 
ATOM      2  H11 UNL     1      96.910  59.634  -8.455  1.00  0.00     0.176 HD
ATOM      3  H12 UNL     1      96.340  60.874  -9.613  1.00  0.00     0.176 HD
HETATM    4  N2  UNL     1      97.876  59.744 -10.123  1.00  0.00    -0.341 N 
ATOM      5  H2  UNL     1      98.517  58.991  -9.874  1.00  0.00     0.179 HD
ENDROOT
BRANCH   4   6
HETATM    6  C1  UNL     1      97.965  60.427 -11.381  1.00  0.00     0.164 C 
BRANCH   6   7
HETATM    7  C2  UNL     1      97.983  61.913 -11.188  1.00  0.00     0.151 C 
HETATM    8  C3  UNL     1      98.250  62.746 -12.400  1.00  0.00     0.221 C 
HETATM    9  O1  UNL     1      97.440  63.687 -11.720  1.00  0.00    -0.284 OA
HETATM   10  N3  UNL     1      96.733  62.598 -11.271  1.00  0.00    -0.092 NA
ENDBRANCH   6   7
ENDBRANCH   4   6
TORSDOF 2
ENDMDL
MODEL 3
REMARK VINA RESULT: -3.459776746      3.197      3.970
REMARK  2 active torsions:
REMARK  status: ('A' for Active; 'I' for Inactive)
REMARK    1  A    between atoms: N2_4  and  C1_6 
REMARK    2  A    between atoms: C1_6  and  C2_7 
ROOT
HETATM    1  N1  UNL     1      96.743  60.092  -8.919  1.00  0.00    -0.349 N 
ATOM      2  H11 UNL     1      97.011  59.293  -8.344  1.00  0.00     0.176 HD
ATOM      3  H12 UNL     1      96.104  60.816  -8.592  1.00  0.00     0.176 HD
HETATM    4  N2  UNL     1      97.239  60.147 -10.061  1.00  0.00    -0.341 N 
ATOM      5  H2  UNL     1      97.879  59.430 -10.403  1.00  0.00     0.179 HD
ENDROOT
BRANCH   4   6
HETATM    6  C1  UNL     1      96.862  61.270 -10.870  1.00  0.00     0.164 C 
BRANCH   6   7
HETATM    7  C2  UNL     1      95.792  62.080 -10.201  1.00  0.00     0.151 C 
HETATM    8  C3  UNL     1      95.385  63.347 -10.880  1.00  0.00     0.221 C 
HETATM    9  O1  UNL     1      94.137  63.070 -10.274  1.00  0.00    -0.284 OA
HETATM   10  N3  UNL     1      94.436  61.749 -10.505  1.00  0.00    -0.092 NA
ENDBRANCH   6   7
ENDBRANCH   4   6
TORSDOF 2
ENDMDL
MODEL 4
REMARK VINA RESULT: -3.456984545      1.313      1.402
REMARK  2 active torsions:
REMARK  status: ('A' for Active; 'I' for Inactive)
REMARK    1  A    between atoms: N2_4  and  C1_6 
REMARK    2  A    between atoms: C1_6  and  C2_7 
ROOT
HETATM    1  N1  UNL     1      95.251  62.926 -10.151  1.00  0.00    -0.349 N 
ATOM      2  H11 UNL     1      95.009  63.888  -9.912  1.00  0.00     0.176 HD
ATOM      3  H12 UNL     1      94.587  62.156 -10.071  1.00  0.00     0.176 HD
HETATM    4  N2  UNL     1      96.414  62.728 -10.550  1.00  0.00    -0.341 N 
ATOM      5  H2  UNL     1      97.090  63.487 -10.634  1.00  0.00     0.179 HD
ENDROOT
BRANCH   4   6
HETATM    6  C1  UNL     1      96.754  61.375 -10.885  1.00  0.00     0.164 C 
BRANCH   6   7
HETATM    7  C2  UNL     1      97.347  60.661  -9.708  1.00  0.00     0.151 C 
HETATM    8  C3  UNL     1      98.541  61.293  -9.069  1.00  0.00     0.221 C 
HETATM    9  O1  UNL     1      98.033  60.670  -7.904  1.00  0.00    -0.284 OA
HETATM   10  N3  UNL     1      96.792  60.947  -8.423  1.00  0.00    -0.092 NA
ENDBRANCH   6   7
ENDBRANCH   4   6
TORSDOF 2
ENDMDL
MODEL 5
REMARK VINA RESULT: -3.432985121      2.671      3.189
REMARK  2 active torsions:
REMARK  status: ('A' for Active; 'I' for Inactive)
REMARK    1  A    between atoms: N2_4  and  C1_6 
REMARK    2  A    between atoms: C1_6  and  C2_7 
ROOT
HETATM    1  N1  UNL     1      97.913  60.190  -8.343  1.00  0.00    -0.349 N 
ATOM      2  H11 UNL     1      98.127  59.364  -7.784  1.00  0.00     0.176 HD
ATOM      3  H12 UNL     1      98.569  60.962  -8.459  1.00  0.00     0.176 HD
HETATM    4  N2  UNL     1      96.793  60.216  -8.889  1.00  0.00    -0.341 N 
ATOM      5  H2  UNL     1      96.125  59.452  -8.783  1.00  0.00     0.179 HD
ENDROOT
BRANCH   4   6
HETATM    6  C1  UNL     1      96.492  61.377  -9.676  1.00  0.00     0.164 C 
BRANCH   6   7
HETATM    7  C2  UNL     1      96.968  61.210 -11.088  1.00  0.00     0.151 C 
HETATM    8  C3  UNL     1      98.129  62.051 -11.510  1.00  0.00     0.221 C 
HETATM    9  O1  UNL     1      98.391  60.954 -12.365  1.00  0.00    -0.284 OA
HETATM   10  N3  UNL     1      97.918  60.174 -11.338  1.00  0.00    -0.092 NA
ENDBRANCH   6   7
ENDBRANCH   4   6
TORSDOF 2
ENDMDL
