MODEL 1
REMARK VINA RESULT: -8.039399765      0.000      0.000
REMARK  19 active torsions:
REMARK  status: ('A' for Active; 'I' for Inactive)
REMARK    1  A    between atoms: C2_2  and  C3_3 
REMARK    2  A    between atoms: C2_2  and  C25_37 
REMARK    3  A    between atoms: C3_3  and  C4_4 
REMARK    4  A    between atoms: C4_4  and  O1_5 
REMARK    5  A    between atoms: C4_4  and  O2_7 
REMARK    6  A    between atoms: O2_7  and  C5_8 
REMARK    7  A    between atoms: C5_8  and  C6_9 
REMARK    8  A    between atoms: C5_8  and  C13_18 
REMARK    9  A    between atoms: C7_10  and  C8_11 
REMARK   10  A    between atoms: C8_11  and  C9_12 
REMARK   11  A    between atoms: C9_12  and  O3_13 
REMARK   12  A    between atoms: C9_12  and  C10_15 
REMARK   13  A    between atoms: C13_18  and  C14_19 
REMARK   14  A    between atoms: C14_19  and  C16_21 
REMARK   15  A    between atoms: C17_23  and  C18_24 
REMARK   16  A    between atoms: C18_24  and  C19_25 
REMARK   17  A    between atoms: C23_30  and  O6_31 
REMARK   18  A    between atoms: C24_34  and  O8_35 
REMARK   19  A    between atoms: C25_37  and  C27_39 
ROOT
HETATM    1  C5  UNL     1      34.910  30.605  16.760  1.00  0.00     0.151 C 
ENDROOT
BRANCH   1   2
HETATM    2  O2  UNL     1      35.524  30.921  17.933  1.00  0.00    -0.349 OA
BRANCH   2   3
HETATM    3  C4  UNL     1      35.749  29.856  18.822  1.00  0.00     0.282 C 
BRANCH   3   4
HETATM    4  C3  UNL     1      34.901  29.966  20.021  1.00  0.00     0.040 C 
BRANCH   4   5
HETATM    5  C2  UNL     1      34.289  28.825  20.680  1.00  0.00    -0.053 C 
HETATM    6  C1  UNL     1      32.978  28.928  21.036  1.00  0.00     0.019 C 
BRANCH   5   7
HETATM    7  C25 UNL     1      35.001  27.619  21.117  1.00  0.00     0.115 C 
HETATM    8  C26 UNL     1      34.053  26.493  21.566  1.00  0.00     0.026 C 
BRANCH   7   9
HETATM    9  C27 UNL     1      35.851  27.948  22.329  1.00  0.00     0.181 C 
HETATM   10  O9  UNL     1      35.727  27.265  23.370  1.00  0.00    -0.647 OA
HETATM   11  O10 UNL     1      36.757  28.984  22.307  1.00  0.00    -0.647 OA
ENDBRANCH   7   9
ENDBRANCH   5   7
ENDBRANCH   4   5
ENDBRANCH   3   4
BRANCH   3  12
HETATM   12  O1  UNL     1      37.049  29.624  19.078  1.00  0.00    -0.368 OA
ATOM     13  H1  UNL     1      37.390  28.828  18.688  1.00  0.00     0.213 HD
ENDBRANCH   3  12
ENDBRANCH   2   3
ENDBRANCH   1   2
BRANCH   1  14
HETATM   14  C6  UNL     1      33.406  30.543  17.108  1.00  0.00     0.001 C 
HETATM   15  C7  UNL     1      32.864  31.669  17.505  1.00  0.00    -0.026 C 
BRANCH  15  16
HETATM   16  C8  UNL     1      31.427  31.712  17.862  1.00  0.00     0.059 C 
BRANCH  16  17
HETATM   17  C9  UNL     1      30.701  30.642  17.057  1.00  0.00     0.124 C 
BRANCH  17  18
HETATM   18  O3  UNL     1      29.841  31.225  16.143  1.00  0.00    -0.395 OA
ATOM     19  H3  UNL     1      29.248  30.574  15.785  1.00  0.00     0.210 HD
ENDBRANCH  17  18
BRANCH  17  20
HETATM   20  C10 UNL     1      29.974  29.782  18.065  1.00  0.00     0.006 C 
HETATM   21  C11 UNL     1      28.632  29.309  17.593  1.00  0.00     0.012 C 
HETATM   22  C12 UNL     1      29.897  30.454  19.410  1.00  0.00     0.012 C 
ENDBRANCH  17  20
ENDBRANCH  16  17
ENDBRANCH  15  16
ENDBRANCH   1  14
BRANCH   1  23
HETATM   23  C13 UNL     1      35.012  31.607  15.696  1.00  0.00     0.072 C 
BRANCH  23  24
HETATM   24  C14 UNL     1      34.609  31.284  14.322  1.00  0.00    -0.053 C 
HETATM   25  C15 UNL     1      33.746  32.061  13.691  1.00  0.00     0.017 C 
BRANCH  24  26
HETATM   26  C16 UNL     1      35.103  30.107  13.576  1.00  0.00     0.205 C 
HETATM   27  O4  UNL     1      34.748  28.921  14.268  1.00  0.00    -0.366 OA
HETATM   28  C17 UNL     1      35.444  27.881  13.570  1.00  0.00     0.180 C 
HETATM   29  C23 UNL     1      36.891  27.935  13.959  1.00  0.00     0.289 C 
HETATM   30  O7  UNL     1      37.225  29.302  14.121  1.00  0.00    -0.326 OA
HETATM   31  C24 UNL     1      36.513  30.033  13.209  1.00  0.00     0.293 C 
BRANCH  28  32
HETATM   32  C18 UNL     1      34.842  26.564  13.895  1.00  0.00     0.072 C 
BRANCH  32  33
HETATM   33  C19 UNL     1      33.351  26.595  13.950  1.00  0.00     0.159 A 
HETATM   34  O5  UNL     1      32.713  25.829  12.918  1.00  0.00    -0.370 OA
HETATM   35  C20 UNL     1      32.546  25.393  14.238  1.00  0.00     0.080 A 
HETATM   36  C21 UNL     1      33.158  24.096  14.679  1.00  0.00     0.048 C 
HETATM   37  C22 UNL     1      31.124  25.594  14.722  1.00  0.00     0.048 C 
ENDBRANCH  32  33
ENDBRANCH  28  32
BRANCH  29  38
HETATM   38  O6  UNL     1      37.112  27.390  15.229  1.00  0.00    -0.369 OA
ATOM     39  H6  UNL     1      37.985  27.582  15.551  1.00  0.00     0.212 HD
ENDBRANCH  29  38
BRANCH  31  40
HETATM   40  O8  UNL     1      37.202  31.221  13.015  1.00  0.00    -0.368 OA
ATOM     41  H8  UNL     1      37.709  31.569  13.739  1.00  0.00     0.212 HD
ENDBRANCH  31  40
ENDBRANCH  24  26
ENDBRANCH  23  24
ENDBRANCH   1  23
TORSDOF 19
ENDMDL
MODEL 2
REMARK VINA RESULT: -7.432386816      1.944      3.358
REMARK  19 active torsions:
REMARK  status: ('A' for Active; 'I' for Inactive)
REMARK    1  A    between atoms: C2_2  and  C3_3 
REMARK    2  A    between atoms: C2_2  and  C25_37 
REMARK    3  A    between atoms: C3_3  and  C4_4 
REMARK    4  A    between atoms: C4_4  and  O1_5 
REMARK    5  A    between atoms: C4_4  and  O2_7 
REMARK    6  A    between atoms: O2_7  and  C5_8 
REMARK    7  A    between atoms: C5_8  and  C6_9 
REMARK    8  A    between atoms: C5_8  and  C13_18 
REMARK    9  A    between atoms: C7_10  and  C8_11 
REMARK   10  A    between atoms: C8_11  and  C9_12 
REMARK   11  A    between atoms: C9_12  and  O3_13 
REMARK   12  A    between atoms: C9_12  and  C10_15 
REMARK   13  A    between atoms: C13_18  and  C14_19 
REMARK   14  A    between atoms: C14_19  and  C16_21 
REMARK   15  A    between atoms: C17_23  and  C18_24 
REMARK   16  A    between atoms: C18_24  and  C19_25 
REMARK   17  A    between atoms: C23_30  and  O6_31 
REMARK   18  A    between atoms: C24_34  and  O8_35 
REMARK   19  A    between atoms: C25_37  and  C27_39 
ROOT
HETATM    1  C5  UNL     1      31.968  31.105  18.219  1.00  0.00     0.151 C 
ENDROOT
BRANCH   1   2
HETATM    2  O2  UNL     1      33.069  31.367  18.975  1.00  0.00    -0.349 OA
BRANCH   2   3
HETATM    3  C4  UNL     1      34.144  30.474  18.835  1.00  0.00     0.282 C 
BRANCH   3   4
HETATM    4  C3  UNL     1      34.641  30.018  20.145  1.00  0.00     0.040 C 
BRANCH   4   5
HETATM    5  C2  UNL     1      34.212  28.785  20.783  1.00  0.00    -0.053 C 
HETATM    6  C1  UNL     1      32.922  28.709  21.211  1.00  0.00     0.019 C 
BRANCH   5   7
HETATM    7  C25 UNL     1      35.092  27.663  21.126  1.00  0.00     0.115 C 
HETATM    8  C26 UNL     1      34.318  26.377  21.467  1.00  0.00     0.026 C 
BRANCH   7   9
HETATM    9  C27 UNL     1      35.884  28.007  22.373  1.00  0.00     0.181 C 
HETATM   10  O9  UNL     1      36.651  28.995  22.362  1.00  0.00    -0.647 OA
HETATM   11  O10 UNL     1      35.774  27.253  23.520  1.00  0.00    -0.647 OA
ENDBRANCH   7   9
ENDBRANCH   5   7
ENDBRANCH   4   5
ENDBRANCH   3   4
BRANCH   3  12
HETATM   12  O1  UNL     1      35.103  30.901  17.994  1.00  0.00    -0.368 OA
ATOM     13  H1  UNL     1      34.963  30.663  17.085  1.00  0.00     0.213 HD
ENDBRANCH   3  12
ENDBRANCH   2   3
ENDBRANCH   1   2
BRANCH   1  14
HETATM   14  C6  UNL     1      30.774  31.328  19.173  1.00  0.00     0.001 C 
HETATM   15  C7  UNL     1      29.794  30.462  19.076  1.00  0.00    -0.026 C 
BRANCH  15  16
HETATM   16  C8  UNL     1      28.605  30.592  19.950  1.00  0.00     0.059 C 
BRANCH  16  17
HETATM   17  C9  UNL     1      27.448  29.847  19.298  1.00  0.00     0.124 C 
BRANCH  17  18
HETATM   18  O3  UNL     1      27.408  30.110  17.940  1.00  0.00    -0.395 OA
ATOM     19  H3  UNL     1      26.509  30.129  17.633  1.00  0.00     0.210 HD
ENDBRANCH  17  18
BRANCH  17  20
HETATM   20  C10 UNL     1      26.198  30.309  20.011  1.00  0.00     0.006 C 
HETATM   21  C11 UNL     1      25.271  31.105  19.142  1.00  0.00     0.012 C 
HETATM   22  C12 UNL     1      26.527  31.026  21.294  1.00  0.00     0.012 C 
ENDBRANCH  17  20
ENDBRANCH  16  17
ENDBRANCH  15  16
ENDBRANCH   1  14
BRANCH   1  23
HETATM   23  C13 UNL     1      31.731  32.018  17.097  1.00  0.00     0.072 C 
BRANCH  23  24
HETATM   24  C14 UNL     1      31.516  31.498  15.742  1.00  0.00    -0.053 C 
HETATM   25  C15 UNL     1      30.286  31.260  15.318  1.00  0.00     0.017 C 
BRANCH  24  26
HETATM   26  C16 UNL     1      32.609  31.198  14.793  1.00  0.00     0.205 C 
HETATM   27  O4  UNL     1      33.598  30.413  15.439  1.00  0.00    -0.366 OA
HETATM   28  C17 UNL     1      34.679  30.362  14.499  1.00  0.00     0.180 C 
HETATM   29  C23 UNL     1      35.394  31.680  14.526  1.00  0.00     0.289 C 
HETATM   30  O7  UNL     1      34.412  32.680  14.727  1.00  0.00    -0.326 OA
HETATM   31  C24 UNL     1      33.264  32.294  14.087  1.00  0.00     0.293 C 
BRANCH  28  32
HETATM   32  C18 UNL     1      35.591  29.241  14.840  1.00  0.00     0.072 C 
BRANCH  32  33
HETATM   33  C19 UNL     1      36.180  28.574  13.641  1.00  0.00     0.159 A 
HETATM   34  O5  UNL     1      37.034  27.465  13.952  1.00  0.00    -0.370 OA
HETATM   35  C20 UNL     1      35.846  27.188  13.265  1.00  0.00     0.080 A 
HETATM   36  C21 UNL     1      34.758  26.406  13.940  1.00  0.00     0.048 C 
HETATM   37  C22 UNL     1      36.108  26.762  11.834  1.00  0.00     0.048 C 
ENDBRANCH  32  33
ENDBRANCH  28  32
BRANCH  29  38
HETATM   38  O6  UNL     1      36.222  31.803  15.648  1.00  0.00    -0.369 OA
ATOM     39  H6  UNL     1      36.441  32.709  15.830  1.00  0.00     0.212 HD
ENDBRANCH  29  38
BRANCH  31  40
HETATM   40  O8  UNL     1      32.531  33.445  13.840  1.00  0.00    -0.368 OA
ATOM     41  H8  UNL     1      32.213  33.593  12.958  1.00  0.00     0.212 HD
ENDBRANCH  31  40
ENDBRANCH  24  26
ENDBRANCH  23  24
ENDBRANCH   1  23
TORSDOF 19
ENDMDL
MODEL 3
REMARK VINA RESULT: -7.412673510      2.506      6.371
REMARK  19 active torsions:
REMARK  status: ('A' for Active; 'I' for Inactive)
REMARK    1  A    between atoms: C2_2  and  C3_3 
REMARK    2  A    between atoms: C2_2  and  C25_37 
REMARK    3  A    between atoms: C3_3  and  C4_4 
REMARK    4  A    between atoms: C4_4  and  O1_5 
REMARK    5  A    between atoms: C4_4  and  O2_7 
REMARK    6  A    between atoms: O2_7  and  C5_8 
REMARK    7  A    between atoms: C5_8  and  C6_9 
REMARK    8  A    between atoms: C5_8  and  C13_18 
REMARK    9  A    between atoms: C7_10  and  C8_11 
REMARK   10  A    between atoms: C8_11  and  C9_12 
REMARK   11  A    between atoms: C9_12  and  O3_13 
REMARK   12  A    between atoms: C9_12  and  C10_15 
REMARK   13  A    between atoms: C13_18  and  C14_19 
REMARK   14  A    between atoms: C14_19  and  C16_21 
REMARK   15  A    between atoms: C17_23  and  C18_24 
REMARK   16  A    between atoms: C18_24  and  C19_25 
REMARK   17  A    between atoms: C23_30  and  O6_31 
REMARK   18  A    between atoms: C24_34  and  O8_35 
REMARK   19  A    between atoms: C25_37  and  C27_39 
ROOT
HETATM    1  C5  UNL     1      35.005  30.876  16.937  1.00  0.00     0.151 C 
ENDROOT
BRANCH   1   2
HETATM    2  O2  UNL     1      35.829  30.940  18.019  1.00  0.00    -0.349 OA
BRANCH   2   3
HETATM    3  C4  UNL     1      35.846  29.809  18.852  1.00  0.00     0.282 C 
BRANCH   3   4
HETATM    4  C3  UNL     1      34.897  29.948  19.970  1.00  0.00     0.040 C 
BRANCH   4   5
HETATM    5  C2  UNL     1      34.292  28.821  20.657  1.00  0.00    -0.053 C 
HETATM    6  C1  UNL     1      32.985  28.930  21.025  1.00  0.00     0.019 C 
BRANCH   5   7
HETATM    7  C25 UNL     1      35.009  27.623  21.109  1.00  0.00     0.115 C 
HETATM    8  C26 UNL     1      34.066  26.482  21.528  1.00  0.00     0.026 C 
BRANCH   7   9
HETATM    9  C27 UNL     1      35.820  27.959  22.346  1.00  0.00     0.181 C 
HETATM   10  O9  UNL     1      35.686  27.264  23.377  1.00  0.00    -0.647 OA
HETATM   11  O10 UNL     1      36.703  29.016  22.356  1.00  0.00    -0.647 OA
ENDBRANCH   7   9
ENDBRANCH   5   7
ENDBRANCH   4   5
ENDBRANCH   3   4
BRANCH   3  12
HETATM   12  O1  UNL     1      37.080  29.416  19.215  1.00  0.00    -0.368 OA
ATOM     13  H1  UNL     1      37.680  29.287  18.490  1.00  0.00     0.213 HD
ENDBRANCH   3  12
ENDBRANCH   2   3
ENDBRANCH   1   2
BRANCH   1  14
HETATM   14  C6  UNL     1      35.548  29.698  16.099  1.00  0.00     0.001 C 
HETATM   15  C7  UNL     1      34.983  29.519  14.930  1.00  0.00    -0.026 C 
BRANCH  15  16
HETATM   16  C8  UNL     1      35.435  28.415  14.051  1.00  0.00     0.059 C 
BRANCH  16  17
HETATM   17  C9  UNL     1      34.218  27.591  13.651  1.00  0.00     0.124 C 
BRANCH  17  18
HETATM   18  O3  UNL     1      33.094  28.028  14.331  1.00  0.00    -0.395 OA
ATOM     19  H3  UNL     1      32.332  27.996  13.765  1.00  0.00     0.210 HD
ENDBRANCH  17  18
BRANCH  17  20
HETATM   20  C10 UNL     1      34.562  26.155  13.971  1.00  0.00     0.006 C 
HETATM   21  C11 UNL     1      35.387  25.485  12.913  1.00  0.00     0.012 C 
HETATM   22  C12 UNL     1      33.333  25.358  14.320  1.00  0.00     0.012 C 
ENDBRANCH  17  20
ENDBRANCH  16  17
ENDBRANCH  15  16
ENDBRANCH   1  14
BRANCH   1  23
HETATM   23  C13 UNL     1      33.609  30.529  17.218  1.00  0.00     0.072 C 
BRANCH  23  24
HETATM   24  C14 UNL     1      32.524  31.459  16.884  1.00  0.00    -0.053 C 
HETATM   25  C15 UNL     1      31.796  31.993  17.850  1.00  0.00     0.017 C 
BRANCH  24  26
HETATM   26  C16 UNL     1      32.166  31.841  15.501  1.00  0.00     0.205 C 
HETATM   27  O4  UNL     1      31.789  33.208  15.468  1.00  0.00    -0.366 OA
HETATM   28  C17 UNL     1      31.279  33.402  14.142  1.00  0.00     0.180 C 
HETATM   29  C23 UNL     1      29.910  32.795  14.067  1.00  0.00     0.289 C 
HETATM   30  O7  UNL     1      29.929  31.630  14.872  1.00  0.00    -0.326 OA
HETATM   31  C24 UNL     1      31.169  31.059  14.778  1.00  0.00     0.293 C 
BRANCH  28  32
HETATM   32  C18 UNL     1      31.251  34.851  13.820  1.00  0.00     0.072 C 
BRANCH  32  33
HETATM   33  C19 UNL     1      32.610  35.451  13.681  1.00  0.00     0.159 A 
HETATM   34  O5  UNL     1      32.697  36.475  12.681  1.00  0.00    -0.370 OA
HETATM   35  C20 UNL     1      32.889  36.861  14.013  1.00  0.00     0.080 A 
HETATM   36  C21 UNL     1      31.884  37.747  14.687  1.00  0.00     0.048 C 
HETATM   37  C22 UNL     1      34.329  37.251  14.285  1.00  0.00     0.048 C 
ENDBRANCH  32  33
ENDBRANCH  28  32
BRANCH  29  38
HETATM   38  O6  UNL     1      28.946  33.603  14.683  1.00  0.00    -0.369 OA
ATOM     39  H6  UNL     1      28.493  33.145  15.381  1.00  0.00     0.212 HD
ENDBRANCH  29  38
BRANCH  31  40
HETATM   40  O8  UNL     1      31.026  29.720  15.105  1.00  0.00    -0.368 OA
ATOM     41  H8  UNL     1      30.150  29.350  15.109  1.00  0.00     0.212 HD
ENDBRANCH  31  40
ENDBRANCH  24  26
ENDBRANCH  23  24
ENDBRANCH   1  23
TORSDOF 19
ENDMDL
MODEL 4
REMARK VINA RESULT: -7.341883737      3.207      5.989
REMARK  19 active torsions:
REMARK  status: ('A' for Active; 'I' for Inactive)
REMARK    1  A    between atoms: C2_2  and  C3_3 
REMARK    2  A    between atoms: C2_2  and  C25_37 
REMARK    3  A    between atoms: C3_3  and  C4_4 
REMARK    4  A    between atoms: C4_4  and  O1_5 
REMARK    5  A    between atoms: C4_4  and  O2_7 
REMARK    6  A    between atoms: O2_7  and  C5_8 
REMARK    7  A    between atoms: C5_8  and  C6_9 
REMARK    8  A    between atoms: C5_8  and  C13_18 
REMARK    9  A    between atoms: C7_10  and  C8_11 
REMARK   10  A    between atoms: C8_11  and  C9_12 
REMARK   11  A    between atoms: C9_12  and  O3_13 
REMARK   12  A    between atoms: C9_12  and  C10_15 
REMARK   13  A    between atoms: C13_18  and  C14_19 
REMARK   14  A    between atoms: C14_19  and  C16_21 
REMARK   15  A    between atoms: C17_23  and  C18_24 
REMARK   16  A    between atoms: C18_24  and  C19_25 
REMARK   17  A    between atoms: C23_30  and  O6_31 
REMARK   18  A    between atoms: C24_34  and  O8_35 
REMARK   19  A    between atoms: C25_37  and  C27_39 
ROOT
HETATM    1  C5  UNL     1      32.149  31.086  18.063  1.00  0.00     0.151 C 
ENDROOT
BRANCH   1   2
HETATM    2  O2  UNL     1      33.275  31.391  18.764  1.00  0.00    -0.349 OA
BRANCH   2   3
HETATM    3  C4  UNL     1      34.298  30.428  18.743  1.00  0.00     0.282 C 
BRANCH   3   4
HETATM    4  C3  UNL     1      34.697  30.036  20.106  1.00  0.00     0.040 C 
BRANCH   4   5
HETATM    5  C2  UNL     1      34.246  28.818  20.757  1.00  0.00    -0.053 C 
HETATM    6  C1  UNL     1      32.958  28.775  21.197  1.00  0.00     0.019 C 
BRANCH   5   7
HETATM    7  C25 UNL     1      35.103  27.678  21.101  1.00  0.00     0.115 C 
HETATM    8  C26 UNL     1      34.303  26.400  21.408  1.00  0.00     0.026 C 
BRANCH   7   9
HETATM    9  C27 UNL     1      35.874  27.993  22.368  1.00  0.00     0.181 C 
HETATM   10  O9  UNL     1      35.721  27.269  23.377  1.00  0.00    -0.647 OA
HETATM   11  O10 UNL     1      36.742  29.060  22.430  1.00  0.00    -0.647 OA
ENDBRANCH   7   9
ENDBRANCH   5   7
ENDBRANCH   4   5
ENDBRANCH   3   4
BRANCH   3  12
HETATM   12  O1  UNL     1      35.323  30.738  17.930  1.00  0.00    -0.368 OA
ATOM     13  H1  UNL     1      35.231  31.569  17.480  1.00  0.00     0.213 HD
ENDBRANCH   3  12
ENDBRANCH   2   3
ENDBRANCH   1   2
BRANCH   1  14
HETATM   14  C6  UNL     1      31.027  31.039  19.123  1.00  0.00     0.001 C 
HETATM   15  C7  UNL     1      29.916  30.449  18.755  1.00  0.00    -0.026 C 
BRANCH  15  16
HETATM   16  C8  UNL     1      28.780  30.353  19.703  1.00  0.00     0.059 C 
BRANCH  16  17
HETATM   17  C9  UNL     1      27.613  29.688  18.986  1.00  0.00     0.124 C 
BRANCH  17  18
HETATM   18  O3  UNL     1      27.672  29.942  17.627  1.00  0.00    -0.395 OA
ATOM     19  H3  UNL     1      26.952  30.502  17.363  1.00  0.00     0.210 HD
ENDBRANCH  17  18
BRANCH  17  20
HETATM   20  C10 UNL     1      26.360  30.246  19.621  1.00  0.00     0.006 C 
HETATM   21  C11 UNL     1      26.618  31.026  20.875  1.00  0.00     0.012 C 
HETATM   22  C12 UNL     1      25.321  29.175  19.824  1.00  0.00     0.012 C 
ENDBRANCH  17  20
ENDBRANCH  16  17
ENDBRANCH  15  16
ENDBRANCH   1  14
BRANCH   1  23
HETATM   23  C13 UNL     1      31.710  32.092  17.091  1.00  0.00     0.072 C 
BRANCH  23  24
HETATM   24  C14 UNL     1      32.068  31.969  15.673  1.00  0.00    -0.053 C 
HETATM   25  C15 UNL     1      33.339  32.014  15.311  1.00  0.00     0.017 C 
BRANCH  24  26
HETATM   26  C16 UNL     1      31.079  31.811  14.586  1.00  0.00     0.205 C 
HETATM   27  O4  UNL     1      30.025  32.743  14.762  1.00  0.00    -0.366 OA
HETATM   28  C17 UNL     1      29.048  32.362  13.785  1.00  0.00     0.180 C 
HETATM   29  C23 UNL     1      28.339  31.134  14.277  1.00  0.00     0.289 C 
HETATM   30  O7  UNL     1      29.299  30.347  14.957  1.00  0.00    -0.326 OA
HETATM   31  C24 UNL     1      30.506  30.495  14.327  1.00  0.00     0.293 C 
BRANCH  28  32
HETATM   32  C18 UNL     1      28.101  33.481  13.555  1.00  0.00     0.072 C 
BRANCH  32  33
HETATM   33  C19 UNL     1      28.584  34.462  12.539  1.00  0.00     0.159 A 
HETATM   34  O5  UNL     1      27.811  35.670  12.481  1.00  0.00    -0.370 OA
HETATM   35  C20 UNL     1      29.139  35.777  12.913  1.00  0.00     0.080 A 
HETATM   36  C21 UNL     1      29.434  36.156  14.333  1.00  0.00     0.048 C 
HETATM   37  C22 UNL     1      30.006  36.492  11.895  1.00  0.00     0.048 C 
ENDBRANCH  32  33
ENDBRANCH  28  32
BRANCH  29  38
HETATM   38  O6  UNL     1      27.399  31.436  15.270  1.00  0.00    -0.369 OA
ATOM     39  H6  UNL     1      26.934  32.243  15.084  1.00  0.00     0.212 HD
ENDBRANCH  29  38
BRANCH  31  40
HETATM   40  O8  UNL     1      31.266  29.377  14.638  1.00  0.00    -0.368 OA
ATOM     41  H8  UNL     1      31.643  28.878  13.923  1.00  0.00     0.212 HD
ENDBRANCH  31  40
ENDBRANCH  24  26
ENDBRANCH  23  24
ENDBRANCH   1  23
TORSDOF 19
ENDMDL
MODEL 5
REMARK VINA RESULT: -7.341776683      1.818      6.125
REMARK  19 active torsions:
REMARK  status: ('A' for Active; 'I' for Inactive)
REMARK    1  A    between atoms: C2_2  and  C3_3 
REMARK    2  A    between atoms: C2_2  and  C25_37 
REMARK    3  A    between atoms: C3_3  and  C4_4 
REMARK    4  A    between atoms: C4_4  and  O1_5 
REMARK    5  A    between atoms: C4_4  and  O2_7 
REMARK    6  A    between atoms: O2_7  and  C5_8 
REMARK    7  A    between atoms: C5_8  and  C6_9 
REMARK    8  A    between atoms: C5_8  and  C13_18 
REMARK    9  A    between atoms: C7_10  and  C8_11 
REMARK   10  A    between atoms: C8_11  and  C9_12 
REMARK   11  A    between atoms: C9_12  and  O3_13 
REMARK   12  A    between atoms: C9_12  and  C10_15 
REMARK   13  A    between atoms: C13_18  and  C14_19 
REMARK   14  A    between atoms: C14_19  and  C16_21 
REMARK   15  A    between atoms: C17_23  and  C18_24 
REMARK   16  A    between atoms: C18_24  and  C19_25 
REMARK   17  A    between atoms: C23_30  and  O6_31 
REMARK   18  A    between atoms: C24_34  and  O8_35 
REMARK   19  A    between atoms: C25_37  and  C27_39 
ROOT
HETATM    1  C5  UNL     1      35.089  30.265  17.908  1.00  0.00     0.151 C 
ENDROOT
BRANCH   1   2
HETATM    2  O2  UNL     1      35.966  30.826  17.030  1.00  0.00    -0.349 OA
BRANCH   2   3
HETATM    3  C4  UNL     1      35.505  30.993  15.714  1.00  0.00     0.282 C 
BRANCH   3   4
HETATM    4  C3  UNL     1      35.221  29.698  15.073  1.00  0.00     0.040 C 
BRANCH   4   5
HETATM    5  C2  UNL     1      36.249  28.825  14.533  1.00  0.00    -0.053 C 
HETATM    6  C1  UNL     1      37.005  28.115  15.416  1.00  0.00     0.019 C 
BRANCH   5   7
HETATM    7  C25 UNL     1      36.631  28.745  13.119  1.00  0.00     0.115 C 
HETATM    8  C26 UNL     1      37.024  27.322  12.684  1.00  0.00     0.026 C 
BRANCH   7   9
HETATM    9  C27 UNL     1      37.861  29.600  12.881  1.00  0.00     0.181 C 
HETATM   10  O9  UNL     1      37.732  30.836  12.734  1.00  0.00    -0.647 OA
HETATM   11  O10 UNL     1      39.119  29.043  12.825  1.00  0.00    -0.647 OA
ENDBRANCH   7   9
ENDBRANCH   5   7
ENDBRANCH   4   5
ENDBRANCH   3   4
BRANCH   3  12
HETATM   12  O1  UNL     1      36.255  31.828  14.974  1.00  0.00    -0.368 OA
ATOM     13  H1  UNL     1      37.075  32.083  15.379  1.00  0.00     0.213 HD
ENDBRANCH   3  12
ENDBRANCH   2   3
ENDBRANCH   1   2
BRANCH   1  14
HETATM   14  C6  UNL     1      35.874  30.161  19.234  1.00  0.00     0.001 C 
HETATM   15  C7  UNL     1      35.694  29.058  19.920  1.00  0.00    -0.026 C 
BRANCH  15  16
HETATM   16  C8  UNL     1      36.403  28.864  21.207  1.00  0.00     0.059 C 
BRANCH  16  17
HETATM   17  C9  UNL     1      35.880  27.589  21.855  1.00  0.00     0.124 C 
BRANCH  17  18
HETATM   18  O3  UNL     1      36.630  26.498  21.450  1.00  0.00    -0.395 OA
ATOM     19  H3  UNL     1      36.101  25.909  20.926  1.00  0.00     0.210 HD
ENDBRANCH  17  18
BRANCH  17  20
HETATM   20  C10 UNL     1      34.430  27.475  21.443  1.00  0.00     0.006 C 
HETATM   21  C11 UNL     1      33.513  28.370  22.220  1.00  0.00     0.012 C 
HETATM   22  C12 UNL     1      33.966  26.043  21.450  1.00  0.00     0.012 C 
ENDBRANCH  17  20
ENDBRANCH  16  17
ENDBRANCH  15  16
ENDBRANCH   1  14
BRANCH   1  23
HETATM   23  C13 UNL     1      33.907  31.069  18.230  1.00  0.00     0.072 C 
BRANCH  23  24
HETATM   24  C14 UNL     1      32.573  30.459  18.262  1.00  0.00    -0.053 C 
HETATM   25  C15 UNL     1      32.166  29.825  19.349  1.00  0.00     0.017 C 
BRANCH  24  26
HETATM   26  C16 UNL     1      31.628  30.489  17.125  1.00  0.00     0.205 C 
HETATM   27  O4  UNL     1      32.187  29.796  16.022  1.00  0.00    -0.366 OA
HETATM   28  C17 UNL     1      31.286  30.065  14.940  1.00  0.00     0.180 C 
HETATM   29  C23 UNL     1      31.525  31.466  14.461  1.00  0.00     0.289 C 
HETATM   30  O7  UNL     1      31.834  32.246  15.602  1.00  0.00    -0.326 OA
HETATM   31  C24 UNL     1      31.109  31.771  16.661  1.00  0.00     0.293 C 
BRANCH  28  32
HETATM   32  C18 UNL     1      31.493  29.075  13.853  1.00  0.00     0.072 C 
BRANCH  32  33
HETATM   33  C19 UNL     1      32.111  27.801  14.325  1.00  0.00     0.159 A 
HETATM   34  O5  UNL     1      31.564  26.625  13.713  1.00  0.00    -0.370 OA
HETATM   35  C20 UNL     1      32.902  26.930  13.435  1.00  0.00     0.080 A 
HETATM   36  C21 UNL     1      33.302  27.340  12.049  1.00  0.00     0.048 C 
HETATM   37  C22 UNL     1      33.851  25.938  14.079  1.00  0.00     0.048 C 
ENDBRANCH  32  33
ENDBRANCH  28  32
BRANCH  29  38
HETATM   38  O6  UNL     1      32.681  31.560  13.676  1.00  0.00    -0.369 OA
ATOM     39  H6  UNL     1      33.126  32.390  13.799  1.00  0.00     0.212 HD
ENDBRANCH  29  38
BRANCH  31  40
HETATM   40  O8  UNL     1      31.005  32.806  17.578  1.00  0.00    -0.368 OA
ATOM     41  H8  UNL     1      31.657  33.496  17.551  1.00  0.00     0.212 HD
ENDBRANCH  31  40
ENDBRANCH  24  26
ENDBRANCH  23  24
ENDBRANCH   1  23
TORSDOF 19
ENDMDL
