MODEL 1
REMARK VINA RESULT: -6.159829997      0.000      0.000
REMARK  2 active torsions:
REMARK  status: ('A' for Active; 'I' for Inactive)
REMARK    1  A    between atoms: C2_3  and  C5_8 
REMARK    2  A    between atoms: C5_8  and  C6_9 
ROOT
HETATM    1  N1  UNL     1      50.130  25.517  38.313  1.00  0.00    -0.194 NA
HETATM    2  C1  UNL     1      49.381  25.323  39.180  1.00  0.00     0.100 C 
HETATM    3  C2  UNL     1      48.445  25.047  40.249  1.00  0.00     0.225 C 
HETATM    4  C3  UNL     1      49.148  24.441  41.417  1.00  0.00     0.100 C 
HETATM    5  N2  UNL     1      49.696  23.956  42.312  1.00  0.00    -0.194 NA
HETATM    6  C4  UNL     1      47.529  23.999  39.718  1.00  0.00     0.100 C 
HETATM    7  N3  UNL     1      46.814  23.189  39.304  1.00  0.00    -0.194 NA
ENDROOT
BRANCH   3   8
HETATM    8  C5  UNL     1      47.696  26.200  40.785  1.00  0.00     0.060 C 
BRANCH   8   9
HETATM    9  C6  UNL     1      46.604  25.969  41.746  1.00  0.00    -0.011 A 
HETATM   10  C7  UNL     1      46.187  26.831  42.842  1.00  0.00     0.005 A 
HETATM   11  C8  UNL     1      45.371  26.875  41.545  1.00  0.00     0.005 A 
ENDBRANCH   8   9
ENDBRANCH   3   8
TORSDOF 2
ENDMDL
MODEL 2
REMARK VINA RESULT: -6.106086701      0.381      2.574
REMARK  2 active torsions:
REMARK  status: ('A' for Active; 'I' for Inactive)
REMARK    1  A    between atoms: C2_3  and  C5_8 
REMARK    2  A    between atoms: C5_8  and  C6_9 
ROOT
HETATM    1  N1  UNL     1      46.798  23.077  39.351  1.00  0.00    -0.194 NA
HETATM    2  C1  UNL     1      47.502  23.930  39.709  1.00  0.00     0.100 C 
HETATM    3  C2  UNL     1      48.402  24.966  40.166  1.00  0.00     0.225 C 
HETATM    4  C3  UNL     1      49.416  25.279  39.116  1.00  0.00     0.100 C 
HETATM    5  N2  UNL     1      50.209  25.504  38.306  1.00  0.00    -0.194 NA
HETATM    6  C4  UNL     1      49.150  24.371  41.310  1.00  0.00     0.100 C 
HETATM    7  N3  UNL     1      49.726  23.911  42.201  1.00  0.00    -0.194 NA
ENDROOT
BRANCH   3   8
HETATM    8  C5  UNL     1      47.792  26.259  40.532  1.00  0.00     0.060 C 
BRANCH   8   9
HETATM    9  C6  UNL     1      46.529  26.274  41.290  1.00  0.00    -0.011 A 
HETATM   10  C7  UNL     1      46.335  26.637  42.685  1.00  0.00     0.005 A 
HETATM   11  C8  UNL     1      45.995  27.683  41.617  1.00  0.00     0.005 A 
ENDBRANCH   8   9
ENDBRANCH   3   8
TORSDOF 2
ENDMDL
MODEL 3
REMARK VINA RESULT: -6.101029123      0.227      2.550
REMARK  2 active torsions:
REMARK  status: ('A' for Active; 'I' for Inactive)
REMARK    1  A    between atoms: C2_3  and  C5_8 
REMARK    2  A    between atoms: C5_8  and  C6_9 
ROOT
HETATM    1  N1  UNL     1      49.808  23.936  42.216  1.00  0.00    -0.194 NA
HETATM    2  C1  UNL     1      49.185  24.412  41.358  1.00  0.00     0.100 C 
HETATM    3  C2  UNL     1      48.432  24.991  40.267  1.00  0.00     0.225 C 
HETATM    4  C3  UNL     1      47.468  23.997  39.710  1.00  0.00     0.100 C 
HETATM    5  N2  UNL     1      46.736  23.216  39.273  1.00  0.00    -0.194 NA
HETATM    6  C4  UNL     1      49.428  25.259  39.191  1.00  0.00     0.100 C 
HETATM    7  N3  UNL     1      50.203  25.473  38.359  1.00  0.00    -0.194 NA
ENDROOT
BRANCH   3   8
HETATM    8  C5  UNL     1      47.634  26.193  40.577  1.00  0.00     0.060 C 
BRANCH   8   9
HETATM    9  C6  UNL     1      46.481  26.080  41.485  1.00  0.00    -0.011 A 
HETATM   10  C7  UNL     1      46.326  26.676  42.804  1.00  0.00     0.005 A 
HETATM   11  C8  UNL     1      45.642  27.368  41.619  1.00  0.00     0.005 A 
ENDBRANCH   8   9
ENDBRANCH   3   8
TORSDOF 2
ENDMDL
MODEL 4
REMARK VINA RESULT: -5.803560904      2.097      4.447
REMARK  2 active torsions:
REMARK  status: ('A' for Active; 'I' for Inactive)
REMARK    1  A    between atoms: C2_3  and  C5_8 
REMARK    2  A    between atoms: C5_8  and  C6_9 
ROOT
HETATM    1  N1  UNL     1      48.717  25.497  42.610  1.00  0.00    -0.194 NA
HETATM    2  C1  UNL     1      48.968  24.843  41.683  1.00  0.00     0.100 C 
HETATM    3  C2  UNL     1      49.251  24.041  40.513  1.00  0.00     0.225 C 
HETATM    4  C3  UNL     1      50.055  24.821  39.526  1.00  0.00     0.100 C 
HETATM    5  N2  UNL     1      50.662  25.437  38.759  1.00  0.00    -0.194 NA
HETATM    6  C4  UNL     1      47.930  23.786  39.872  1.00  0.00     0.100 C 
HETATM    7  N3  UNL     1      46.904  23.584  39.378  1.00  0.00    -0.194 NA
ENDROOT
BRANCH   3   8
HETATM    8  C5  UNL     1      49.996  22.786  40.734  1.00  0.00     0.060 C 
BRANCH   8   9
HETATM    9  C6  UNL     1      50.960  22.704  41.844  1.00  0.00    -0.011 A 
HETATM   10  C7  UNL     1      51.006  21.715  42.910  1.00  0.00     0.005 A 
HETATM   11  C8  UNL     1      51.971  21.544  41.731  1.00  0.00     0.005 A 
ENDBRANCH   8   9
ENDBRANCH   3   8
TORSDOF 2
ENDMDL
MODEL 5
REMARK VINA RESULT: -5.782738676      2.063      4.447
REMARK  2 active torsions:
REMARK  status: ('A' for Active; 'I' for Inactive)
REMARK    1  A    between atoms: C2_3  and  C5_8 
REMARK    2  A    between atoms: C5_8  and  C6_9 
ROOT
HETATM    1  N1  UNL     1      50.644  25.453  38.886  1.00  0.00    -0.194 NA
HETATM    2  C1  UNL     1      50.006  24.795  39.601  1.00  0.00     0.100 C 
HETATM    3  C2  UNL     1      49.196  24.006  40.503  1.00  0.00     0.225 C 
HETATM    4  C3  UNL     1      47.881  23.679  39.876  1.00  0.00     0.100 C 
HETATM    5  N2  UNL     1      46.858  23.445  39.391  1.00  0.00    -0.194 NA
HETATM    6  C4  UNL     1      48.900  24.897  41.660  1.00  0.00     0.100 C 
HETATM    7  N3  UNL     1      48.676  25.587  42.561  1.00  0.00    -0.194 NA
ENDROOT
BRANCH   3   8
HETATM    8  C5  UNL     1      49.762  22.716  40.944  1.00  0.00     0.060 C 
BRANCH   8   9
HETATM    9  C6  UNL     1      50.889  22.706  41.891  1.00  0.00    -0.011 A 
HETATM   10  C7  UNL     1      51.143  21.753  42.960  1.00  0.00     0.005 A 
HETATM   11  C8  UNL     1      51.920  21.585  41.649  1.00  0.00     0.005 A 
ENDBRANCH   8   9
ENDBRANCH   3   8
TORSDOF 2
ENDMDL
