MODEL 1
REMARK VINA RESULT: -4.605338908      0.000      0.000
REMARK  2 active torsions:
REMARK  status: ('A' for Active; 'I' for Inactive)
REMARK    1  A    between atoms: C3_3  and  C4_4 
REMARK    2  A    between atoms: C4_4  and  N1_5 
ROOT
HETATM    1  N1  UNL     1      48.682  23.644  41.129  1.00  0.00    -0.239 NA
HETATM    2  C5  UNL     1      49.016  25.031  41.241  1.00  0.00     0.190 C 
HETATM    3  S1  UNL     1      47.247  25.477  41.355  1.00  0.00    -0.066 SA
HETATM    4  S2  UNL     1      47.563  24.051  39.823  1.00  0.00    -0.006 SA
ENDROOT
BRANCH   1   5
HETATM    5  C4  UNL     1      49.732  22.785  40.620  1.00  0.00     0.109 C 
BRANCH   5   6
HETATM    6  C3  UNL     1      50.894  22.758  41.593  1.00  0.00    -0.001 A 
HETATM    7  C1  UNL     1      50.818  21.723  42.655  1.00  0.00     0.006 A 
HETATM    8  C2  UNL     1      51.842  21.617  41.560  1.00  0.00     0.006 A 
ENDBRANCH   5   6
ENDBRANCH   1   5
TORSDOF 2
ENDMDL
MODEL 2
REMARK VINA RESULT: -4.495886805      0.773      1.069
REMARK  2 active torsions:
REMARK  status: ('A' for Active; 'I' for Inactive)
REMARK    1  A    between atoms: C3_3  and  C4_4 
REMARK    2  A    between atoms: C4_4  and  N1_5 
ROOT
HETATM    1  N1  UNL     1      48.896  24.169  41.270  1.00  0.00    -0.239 NA
HETATM    2  C5  UNL     1      48.714  25.428  41.924  1.00  0.00     0.190 C 
HETATM    3  S1  UNL     1      47.036  25.585  41.219  1.00  0.00    -0.066 SA
HETATM    4  S2  UNL     1      48.408  24.924  39.749  1.00  0.00    -0.006 SA
ENDROOT
BRANCH   1   5
HETATM    5  C4  UNL     1      50.267  23.707  41.166  1.00  0.00     0.109 C 
BRANCH   5   6
HETATM    6  C3  UNL     1      50.366  22.272  41.643  1.00  0.00    -0.001 A 
HETATM    7  C1  UNL     1      51.735  21.696  41.665  1.00  0.00     0.006 A 
HETATM    8  C2  UNL     1      51.009  21.984  42.949  1.00  0.00     0.006 A 
ENDBRANCH   5   6
ENDBRANCH   1   5
TORSDOF 2
ENDMDL
MODEL 3
REMARK VINA RESULT: -4.415162913      2.871      4.288
REMARK  2 active torsions:
REMARK  status: ('A' for Active; 'I' for Inactive)
REMARK    1  A    between atoms: C3_3  and  C4_4 
REMARK    2  A    between atoms: C4_4  and  N1_5 
ROOT
HETATM    1  N1  UNL     1      50.997  24.089  40.376  1.00  0.00    -0.239 NA
HETATM    2  C5  UNL     1      51.332  22.892  39.668  1.00  0.00     0.190 C 
HETATM    3  S1  UNL     1      52.800  23.699  38.938  1.00  0.00    -0.066 SA
HETATM    4  S2  UNL     1      51.120  24.984  38.858  1.00  0.00    -0.006 SA
ENDROOT
BRANCH   1   5
HETATM    5  C4  UNL     1      49.639  24.163  40.877  1.00  0.00     0.109 C 
BRANCH   5   6
HETATM    6  C3  UNL     1      48.714  24.669  39.789  1.00  0.00    -0.001 A 
HETATM    7  C1  UNL     1      47.425  23.943  39.652  1.00  0.00     0.006 A 
HETATM    8  C2  UNL     1      47.453  25.354  40.168  1.00  0.00     0.006 A 
ENDBRANCH   5   6
ENDBRANCH   1   5
TORSDOF 2
ENDMDL
MODEL 4
REMARK VINA RESULT: -4.331995288      1.174      1.621
REMARK  2 active torsions:
REMARK  status: ('A' for Active; 'I' for Inactive)
REMARK    1  A    between atoms: C3_3  and  C4_4 
REMARK    2  A    between atoms: C4_4  and  N1_5 
ROOT
HETATM    1  N1  UNL     1      49.641  24.193  40.269  1.00  0.00    -0.239 NA
HETATM    2  C5  UNL     1      48.525  23.301  40.330  1.00  0.00     0.190 C 
HETATM    3  S1  UNL     1      47.364  24.689  40.072  1.00  0.00    -0.066 SA
HETATM    4  S2  UNL     1      48.855  25.210  41.481  1.00  0.00    -0.006 SA
ENDROOT
BRANCH   1   5
HETATM    5  C4  UNL     1      50.887  23.677  40.801  1.00  0.00     0.109 C 
BRANCH   5   6
HETATM    6  C3  UNL     1      50.665  22.300  41.392  1.00  0.00    -0.001 A 
HETATM    7  C1  UNL     1      51.892  21.490  41.613  1.00  0.00     0.006 A 
HETATM    8  C2  UNL     1      51.112  22.026  42.781  1.00  0.00     0.006 A 
ENDBRANCH   5   6
ENDBRANCH   1   5
TORSDOF 2
ENDMDL
MODEL 5
REMARK VINA RESULT: -4.327441901      2.697      4.196
REMARK  2 active torsions:
REMARK  status: ('A' for Active; 'I' for Inactive)
REMARK    1  A    between atoms: C3_3  and  C4_4 
REMARK    2  A    between atoms: C4_4  and  N1_5 
ROOT
HETATM    1  N1  UNL     1      50.228  23.641  40.354  1.00  0.00    -0.239 NA
HETATM    2  C5  UNL     1      51.633  23.501  40.129  1.00  0.00     0.190 C 
HETATM    3  S1  UNL     1      51.621  21.844  40.900  1.00  0.00    -0.066 SA
HETATM    4  S2  UNL     1      50.488  23.214  42.048  1.00  0.00    -0.006 SA
ENDROOT
BRANCH   1   5
HETATM    5  C4  UNL     1      49.710  24.992  40.267  1.00  0.00     0.109 C 
BRANCH   5   6
HETATM    6  C3  UNL     1      48.390  24.992  39.521  1.00  0.00    -0.001 A 
HETATM    7  C1  UNL     1      47.517  23.814  39.761  1.00  0.00     0.006 A 
HETATM    8  C2  UNL     1      47.127  25.170  40.280  1.00  0.00     0.006 A 
ENDBRANCH   5   6
ENDBRANCH   1   5
TORSDOF 2
ENDMDL
