MODEL 1
REMARK VINA RESULT: -5.309903964      0.000      0.000
REMARK  2 active torsions:
REMARK  status: ('A' for Active; 'I' for Inactive)
REMARK    1  A    between atoms: N1_1  and  N2_4 
REMARK    2  A    between atoms: N3_6  and  C1_8 
ROOT
HETATM    1  C1  UNL     1      49.507  23.363  40.979  1.00  0.00     0.133 C 
HETATM    2  C2  UNL     1      50.572  23.851  40.042  1.00  0.00     0.046 C 
HETATM    3  C3  UNL     1      50.311  25.226  39.498  1.00  0.00     0.123 C 
HETATM    4  N4  UNL     1      48.866  25.451  39.322  1.00  0.00    -0.196 NA
HETATM    5  C4  UNL     1      48.319  25.956  40.556  1.00  0.00     0.123 C 
HETATM    6  C5  UNL     1      47.467  24.820  41.080  1.00  0.00     0.053 C 
HETATM    7  C6  UNL     1      48.161  23.647  40.377  1.00  0.00     0.171 C 
HETATM    8  O1  UNL     1      48.333  24.238  39.102  1.00  0.00    -0.296 OA
ENDROOT
BRANCH   1   9
HETATM    9  N3  UNL     1      49.654  23.839  42.323  1.00  0.00    -0.315 N 
HETATM   10  N2  UNL     1      50.385  23.179  43.090  1.00  0.00    -0.253 N 
ATOM     11  H2  UNL     1      51.288  23.236  42.620  1.00  0.00     0.207 HD
ATOM     12  H3  UNL     1      49.180  24.685  42.640  1.00  0.00     0.182 HD
BRANCH  10  13
HETATM   13  N1  UNL     1      50.658  22.499  44.081  1.00  0.00    -0.331 N 
ATOM     14  H12 UNL     1      51.526  22.957  44.359  1.00  0.00     0.178 HD
ATOM     15  H11 UNL     1      50.527  21.760  44.772  1.00  0.00     0.178 HD
ENDBRANCH  10  13
ENDBRANCH   1   9
TORSDOF 2
ENDMDL
MODEL 2
REMARK VINA RESULT: -5.248969300      2.047      3.419
REMARK  2 active torsions:
REMARK  status: ('A' for Active; 'I' for Inactive)
REMARK    1  A    between atoms: N1_1  and  N2_4 
REMARK    2  A    between atoms: N3_6  and  C1_8 
ROOT
HETATM    1  C1  UNL     1      50.448  24.918  40.257  1.00  0.00     0.133 C 
HETATM    2  C2  UNL     1      50.695  23.518  40.735  1.00  0.00     0.046 C 
HETATM    3  C3  UNL     1      49.484  22.633  40.655  1.00  0.00     0.123 C 
HETATM    4  N4  UNL     1      48.256  23.405  40.908  1.00  0.00    -0.196 NA
HETATM    5  C4  UNL     1      47.792  23.964  39.663  1.00  0.00     0.123 C 
HETATM    6  C5  UNL     1      48.038  25.450  39.806  1.00  0.00     0.053 C 
HETATM    7  C6  UNL     1      49.161  25.415  40.850  1.00  0.00     0.171 C 
HETATM    8  O1  UNL     1      48.624  24.423  41.703  1.00  0.00    -0.296 OA
ENDROOT
BRANCH   1   9
HETATM    9  N3  UNL     1      50.528  25.067  38.833  1.00  0.00    -0.315 N 
HETATM   10  N2  UNL     1      51.421  24.431  38.237  1.00  0.00    -0.253 N 
ATOM     11  H2  UNL     1      51.170  23.466  38.454  1.00  0.00     0.207 HD
ATOM     12  H3  UNL     1      49.879  25.671  38.327  1.00  0.00     0.182 HD
BRANCH  10  13
HETATM   13  N1  UNL     1      52.428  24.281  37.542  1.00  0.00    -0.331 N 
ATOM     14  H12 UNL     1      51.998  24.343  36.619  1.00  0.00     0.178 HD
ATOM     15  H11 UNL     1      53.419  24.134  37.353  1.00  0.00     0.178 HD
ENDBRANCH  10  13
ENDBRANCH   1   9
TORSDOF 2
ENDMDL
MODEL 3
REMARK VINA RESULT: -5.242467134      1.539      2.303
REMARK  2 active torsions:
REMARK  status: ('A' for Active; 'I' for Inactive)
REMARK    1  A    between atoms: N1_1  and  N2_4 
REMARK    2  A    between atoms: N3_6  and  C1_8 
ROOT
HETATM    1  C1  UNL     1      49.428  25.055  41.382  1.00  0.00     0.133 C 
HETATM    2  C2  UNL     1      48.547  25.772  42.362  1.00  0.00     0.046 C 
HETATM    3  C3  UNL     1      47.086  25.704  42.019  1.00  0.00     0.123 C 
HETATM    4  N4  UNL     1      46.894  25.699  40.558  1.00  0.00    -0.196 NA
HETATM    5  C4  UNL     1      46.954  24.340  40.085  1.00  0.00     0.123 C 
HETATM    6  C5  UNL     1      48.252  24.272  39.309  1.00  0.00     0.053 C 
HETATM    7  C6  UNL     1      49.006  25.422  39.988  1.00  0.00     0.171 C 
HETATM    8  O1  UNL     1      47.947  26.359  40.051  1.00  0.00    -0.296 OA
ENDROOT
BRANCH   1   9
HETATM    9  N3  UNL     1      49.519  23.643  41.610  1.00  0.00    -0.315 N 
HETATM   10  N2  UNL     1      50.009  23.265  42.694  1.00  0.00    -0.253 N 
ATOM     11  H2  UNL     1      49.358  23.667  43.369  1.00  0.00     0.207 HD
ATOM     12  H3  UNL     1      49.195  22.972  40.912  1.00  0.00     0.182 HD
BRANCH  10  13
HETATM   13  N1  UNL     1      50.816  22.694  43.429  1.00  0.00    -0.331 N 
ATOM     14  H12 UNL     1      50.907  23.405  44.155  1.00  0.00     0.178 HD
ATOM     15  H11 UNL     1      51.435  21.941  43.730  1.00  0.00     0.178 HD
ENDBRANCH  10  13
ENDBRANCH   1   9
TORSDOF 2
ENDMDL
MODEL 4
REMARK VINA RESULT: -4.917492586      2.946      4.855
REMARK  2 active torsions:
REMARK  status: ('A' for Active; 'I' for Inactive)
REMARK    1  A    between atoms: N1_1  and  N2_4 
REMARK    2  A    between atoms: N3_6  and  C1_8 
ROOT
HETATM    1  C1  UNL     1      46.475  26.601  41.566  1.00  0.00     0.133 C 
HETATM    2  C2  UNL     1      47.021  26.485  42.959  1.00  0.00     0.046 C 
HETATM    3  C3  UNL     1      48.442  26.001  43.010  1.00  0.00     0.123 C 
HETATM    4  N4  UNL     1      48.707  25.047  41.919  1.00  0.00    -0.196 NA
HETATM    5  C4  UNL     1      49.117  25.781  40.748  1.00  0.00     0.123 C 
HETATM    6  C5  UNL     1      47.956  25.631  39.789  1.00  0.00     0.053 C 
HETATM    7  C6  UNL     1      46.833  25.361  40.798  1.00  0.00     0.171 C 
HETATM    8  O1  UNL     1      47.526  24.467  41.649  1.00  0.00    -0.296 OA
ENDROOT
BRANCH   1   9
HETATM    9  N3  UNL     1      46.834  27.820  40.903  1.00  0.00    -0.315 N 
HETATM   10  N2  UNL     1      46.056  28.789  41.019  1.00  0.00    -0.253 N 
ATOM     11  H2  UNL     1      46.068  28.946  42.027  1.00  0.00     0.207 HD
ATOM     12  H3  UNL     1      47.693  27.892  40.356  1.00  0.00     0.182 HD
BRANCH  10  13
HETATM   13  N1  UNL     1      45.282  29.667  40.634  1.00  0.00    -0.331 N 
ATOM     14  H12 UNL     1      45.474  30.375  41.343  1.00  0.00     0.178 HD
ATOM     15  H11 UNL     1      44.575  30.091  40.034  1.00  0.00     0.178 HD
ENDBRANCH  10  13
ENDBRANCH   1   9
TORSDOF 2
ENDMDL
MODEL 5
REMARK VINA RESULT: -4.874825569      2.521      4.004
REMARK  2 active torsions:
REMARK  status: ('A' for Active; 'I' for Inactive)
REMARK    1  A    between atoms: N1_1  and  N2_4 
REMARK    2  A    between atoms: N3_6  and  C1_8 
ROOT
HETATM    1  C1  UNL     1      50.301  23.788  39.661  1.00  0.00     0.133 C 
HETATM    2  C2  UNL     1      49.404  24.711  40.431  1.00  0.00     0.046 C 
HETATM    3  C3  UNL     1      49.558  24.594  41.921  1.00  0.00     0.123 C 
HETATM    4  N4  UNL     1      49.870  23.207  42.306  1.00  0.00    -0.196 NA
HETATM    5  C4  UNL     1      51.298  23.020  42.256  1.00  0.00     0.123 C 
HETATM    6  C5  UNL     1      51.513  22.104  41.071  1.00  0.00     0.053 C 
HETATM    7  C6  UNL     1      50.239  22.421  40.279  1.00  0.00     0.171 C 
HETATM    8  O1  UNL     1      49.321  22.434  41.356  1.00  0.00    -0.296 OA
ENDROOT
BRANCH   1   9
HETATM    9  N3  UNL     1      51.634  24.286  39.486  1.00  0.00    -0.315 N 
HETATM   10  N2  UNL     1      52.100  24.288  38.328  1.00  0.00    -0.253 N 
ATOM     11  H2  UNL     1      51.450  24.906  37.842  1.00  0.00     0.207 HD
ATOM     12  H3  UNL     1      52.180  24.627  40.278  1.00  0.00     0.182 HD
BRANCH  10  13
HETATM   13  N1  UNL     1      52.882  23.982  37.426  1.00  0.00    -0.331 N 
ATOM     14  H12 UNL     1      53.098  23.028  37.714  1.00  0.00     0.178 HD
ATOM     15  H11 UNL     1      53.429  24.123  36.577  1.00  0.00     0.178 HD
ENDBRANCH  10  13
ENDBRANCH   1   9
TORSDOF 2
ENDMDL
