MODEL 1
REMARK VINA RESULT: -8.809207024      0.000      0.000
REMARK  9 active torsions:
REMARK  status: ('A' for Active; 'I' for Inactive)
REMARK    1  A    between atoms: N1_1  and  C1_4 
REMARK    2  A    between atoms: C2_7  and  N3_8 
REMARK    3  A    between atoms: N3_8  and  C3_10 
REMARK    4  A    between atoms: C3_10  and  C4_11 
REMARK    5  A    between atoms: C4_11  and  C5_12 
REMARK    6  A    between atoms: C9_18  and  C10_19 
REMARK    7  A    between atoms: N7_27  and  C13_28 
REMARK    8  A    between atoms: C13_28  and  C14_29 
REMARK    9  A    between atoms: C14_29  and  C15_30 
ROOT
HETATM    1  C1  UNL     1      21.120  27.561  19.817  1.00  0.00     0.679 A 
HETATM    2  N2  UNL     1      21.063  27.588  18.458  1.00  0.00    -0.175 N 
ATOM      3  H2  UNL     1      21.932  27.517  17.928  1.00  0.00     0.186 HD
HETATM    4  C2  UNL     1      19.908  27.705  17.790  1.00  0.00     0.147 A 
HETATM    5  C11 UNL     1      18.730  27.800  18.533  1.00  0.00     0.126 A 
HETATM    6  N6  UNL     1      17.443  27.925  18.192  1.00  0.00    -0.302 N 
ATOM      7  H6  UNL     1      17.086  27.974  17.237  1.00  0.00     0.171 HD
HETATM    8  C12 UNL     1      16.693  27.976  19.308  1.00  0.00     0.328 A 
HETATM    9  O2  UNL     1      15.422  28.093  19.354  1.00  0.00    -0.246 OA
HETATM   10  N7  UNL     1      17.525  27.882  20.361  1.00  0.00    -0.282 N 
HETATM   11  C16 UNL     1      18.775  27.774  19.907  1.00  0.00     0.158 A 
HETATM   12  N9  UNL     1      19.988  27.653  20.518  1.00  0.00    -0.174 N 
ATOM     13  H9  UNL     1      20.031  27.633  21.537  1.00  0.00     0.186 HD
ENDROOT
BRANCH   4  14
HETATM   14  N3  UNL     1      19.777  27.733  16.520  1.00  0.00    -0.374 N 
ATOM     15  H3  UNL     1      19.916  26.848  16.032  1.00  0.00     0.161 HD
BRANCH  14  16
HETATM   16  C3  UNL     1      19.459  28.865  15.701  1.00  0.00     0.126 C 
BRANCH  16  17
HETATM   17  C4  UNL     1      20.687  29.734  15.459  1.00  0.00     0.060 C 
BRANCH  17  18
HETATM   18  C5  UNL     1      20.669  31.002  16.174  1.00  0.00    -0.025 A 
HETATM   19  C6  UNL     1      19.589  31.891  16.029  1.00  0.00     0.011 A 
HETATM   20  C7  UNL     1      19.557  33.112  16.656  1.00  0.00     0.018 A 
HETATM   21  C8  UNL     1      20.620  33.475  17.454  1.00  0.00     0.088 A 
HETATM   22  N4  UNL     1      21.637  32.616  17.580  1.00  0.00    -0.361 N 
HETATM   23  C9  UNL     1      21.692  31.395  16.966  1.00  0.00     0.104 A 
ATOM     24  H4  UNL     1      22.422  32.889  18.172  1.00  0.00     0.165 HD
BRANCH  23  25
HETATM   25  C10 UNL     1      22.826  30.561  17.227  1.00  0.00     0.281 C 
HETATM   26  N5  UNL     1      24.048  30.818  16.482  1.00  0.00    -0.056 NA
HETATM   27  O1  UNL     1      22.955  29.620  18.007  1.00  0.00    -0.269 OA
ENDBRANCH  23  25
ENDBRANCH  17  18
ENDBRANCH  16  17
ENDBRANCH  14  16
ENDBRANCH   4  14
BRANCH   1  28
HETATM   28  N1  UNL     1      22.264  27.450  20.381  1.00  0.00    -0.234 N 
ATOM     29  H12 UNL     1      22.940  28.215  20.393  1.00  0.00     0.174 HD
ATOM     30  H11 UNL     1      22.505  26.566  20.830  1.00  0.00     0.174 HD
ENDBRANCH   1  28
BRANCH  10  31
HETATM   31  C13 UNL     1      17.155  27.894  21.756  1.00  0.00     0.144 C 
BRANCH  31  32
HETATM   32  C14 UNL     1      16.814  29.317  22.210  1.00  0.00     0.120 C 
BRANCH  32  33
HETATM   33  C15 UNL     1      15.419  29.373  22.713  1.00  0.00     0.232 C 
HETATM   34  N8  UNL     1      14.970  30.503  23.445  1.00  0.00    -0.062 NA
HETATM   35  O3  UNL     1      14.611  28.435  22.505  1.00  0.00    -0.277 OA
ENDBRANCH  32  33
ENDBRANCH  31  32
ENDBRANCH  10  31
TORSDOF 9
ENDMDL
MODEL 2
REMARK VINA RESULT: -8.079055496      1.912      6.472
REMARK  9 active torsions:
REMARK  status: ('A' for Active; 'I' for Inactive)
REMARK    1  A    between atoms: N1_1  and  C1_4 
REMARK    2  A    between atoms: C2_7  and  N3_8 
REMARK    3  A    between atoms: N3_8  and  C3_10 
REMARK    4  A    between atoms: C3_10  and  C4_11 
REMARK    5  A    between atoms: C4_11  and  C5_12 
REMARK    6  A    between atoms: C9_18  and  C10_19 
REMARK    7  A    between atoms: N7_27  and  C13_28 
REMARK    8  A    between atoms: C13_28  and  C14_29 
REMARK    9  A    between atoms: C14_29  and  C15_30 
ROOT
HETATM    1  C1  UNL     1      22.851  28.556  19.132  1.00  0.00     0.679 A 
HETATM    2  N2  UNL     1      22.054  28.003  20.085  1.00  0.00    -0.175 N 
ATOM      3  H2  UNL     1      22.444  27.824  21.010  1.00  0.00     0.186 HD
HETATM    4  C2  UNL     1      20.773  27.685  19.853  1.00  0.00     0.147 A 
HETATM    5  C11 UNL     1      20.257  27.939  18.581  1.00  0.00     0.126 A 
HETATM    6  N6  UNL     1      19.053  27.746  18.029  1.00  0.00    -0.302 N 
ATOM      7  H6  UNL     1      18.243  27.344  18.502  1.00  0.00     0.171 HD
HETATM    8  C12 UNL     1      19.081  28.167  16.751  1.00  0.00     0.328 A 
HETATM    9  O2  UNL     1      18.105  28.133  15.928  1.00  0.00    -0.246 OA
HETATM   10  N7  UNL     1      20.320  28.629  16.503  1.00  0.00    -0.282 N 
HETATM   11  C16 UNL     1      21.053  28.496  17.609  1.00  0.00     0.158 A 
HETATM   12  N9  UNL     1      22.348  28.793  17.918  1.00  0.00    -0.174 N 
ATOM     13  H9  UNL     1      22.947  29.207  17.204  1.00  0.00     0.186 HD
ENDROOT
BRANCH   4  14
HETATM   14  N3  UNL     1      19.965  27.169  20.697  1.00  0.00    -0.374 N 
ATOM     15  H3  UNL     1      19.896  26.151  20.692  1.00  0.00     0.161 HD
BRANCH  14  16
HETATM   16  C3  UNL     1      19.145  27.855  21.650  1.00  0.00     0.126 C 
BRANCH  16  17
HETATM   17  C4  UNL     1      17.664  27.642  21.358  1.00  0.00     0.060 C 
BRANCH  17  18
HETATM   18  C5  UNL     1      16.861  28.853  21.442  1.00  0.00    -0.025 A 
HETATM   19  C6  UNL     1      17.077  29.785  22.473  1.00  0.00     0.011 A 
HETATM   20  C7  UNL     1      16.313  30.918  22.607  1.00  0.00     0.018 A 
HETATM   21  C8  UNL     1      15.301  31.147  21.699  1.00  0.00     0.088 A 
HETATM   22  N4  UNL     1      15.113  30.250  20.725  1.00  0.00    -0.361 N 
HETATM   23  C9  UNL     1      15.860  29.115  20.571  1.00  0.00     0.104 A 
ATOM     24  H4  UNL     1      14.364  30.423  20.054  1.00  0.00     0.165 HD
BRANCH  23  25
HETATM   25  C10 UNL     1      15.572  28.266  19.455  1.00  0.00     0.281 C 
HETATM   26  N5  UNL     1      14.178  28.066  19.091  1.00  0.00    -0.056 NA
HETATM   27  O1  UNL     1      16.331  27.644  18.715  1.00  0.00    -0.269 OA
ENDBRANCH  23  25
ENDBRANCH  17  18
ENDBRANCH  16  17
ENDBRANCH  14  16
ENDBRANCH   4  14
BRANCH   1  28
HETATM   28  N1  UNL     1      24.066  28.828  19.430  1.00  0.00    -0.234 N 
ATOM     29  H12 UNL     1      24.848  28.274  19.081  1.00  0.00     0.174 HD
ATOM     30  H11 UNL     1      24.253  29.623  20.041  1.00  0.00     0.174 HD
ENDBRANCH   1  28
BRANCH  10  31
HETATM   31  C13 UNL     1      20.802  29.178  15.258  1.00  0.00     0.144 C 
BRANCH  31  32
HETATM   32  C14 UNL     1      20.324  30.623  15.086  1.00  0.00     0.120 C 
BRANCH  32  33
HETATM   33  C15 UNL     1      21.368  31.567  15.554  1.00  0.00     0.232 C 
HETATM   34  N8  UNL     1      21.118  32.964  15.554  1.00  0.00    -0.062 NA
HETATM   35  O3  UNL     1      22.485  31.159  15.958  1.00  0.00    -0.277 OA
ENDBRANCH  32  33
ENDBRANCH  31  32
ENDBRANCH  10  31
TORSDOF 9
ENDMDL
MODEL 3
REMARK VINA RESULT: -7.903830904      1.188      2.126
REMARK  9 active torsions:
REMARK  status: ('A' for Active; 'I' for Inactive)
REMARK    1  A    between atoms: N1_1  and  C1_4 
REMARK    2  A    between atoms: C2_7  and  N3_8 
REMARK    3  A    between atoms: N3_8  and  C3_10 
REMARK    4  A    between atoms: C3_10  and  C4_11 
REMARK    5  A    between atoms: C4_11  and  C5_12 
REMARK    6  A    between atoms: C9_18  and  C10_19 
REMARK    7  A    between atoms: N7_27  and  C13_28 
REMARK    8  A    between atoms: C13_28  and  C14_29 
REMARK    9  A    between atoms: C14_29  and  C15_30 
ROOT
HETATM    1  C1  UNL     1      20.980  27.412  20.001  1.00  0.00     0.679 A 
HETATM    2  N2  UNL     1      20.945  27.478  18.643  1.00  0.00    -0.175 N 
ATOM      3  H2  UNL     1      21.818  27.382  18.123  1.00  0.00     0.186 HD
HETATM    4  C2  UNL     1      19.807  27.665  17.962  1.00  0.00     0.147 A 
HETATM    5  C11 UNL     1      18.623  27.793  18.691  1.00  0.00     0.126 A 
HETATM    6  N6  UNL     1      17.348  27.985  18.335  1.00  0.00    -0.302 N 
ATOM      7  H6  UNL     1      17.009  28.075  17.377  1.00  0.00     0.171 HD
HETATM    8  C12 UNL     1      16.584  28.039  19.441  1.00  0.00     0.328 A 
HETATM    9  O2  UNL     1      15.319  28.211  19.472  1.00  0.00    -0.246 OA
HETATM   10  N7  UNL     1      17.395  27.879  20.502  1.00  0.00    -0.282 N 
HETATM   11  C16 UNL     1      18.645  27.728  20.064  1.00  0.00     0.158 A 
HETATM   12  N9  UNL     1      19.842  27.536  20.688  1.00  0.00    -0.174 N 
ATOM     13  H9  UNL     1      19.869  27.487  21.707  1.00  0.00     0.186 HD
ENDROOT
BRANCH   4  14
HETATM   14  N3  UNL     1      19.697  27.733  16.691  1.00  0.00    -0.374 N 
ATOM     15  H3  UNL     1      19.845  26.864  16.178  1.00  0.00     0.161 HD
BRANCH  14  16
HETATM   16  C3  UNL     1      19.391  28.890  15.904  1.00  0.00     0.126 C 
BRANCH  16  17
HETATM   17  C4  UNL     1      20.640  29.444  15.228  1.00  0.00     0.060 C 
BRANCH  17  18
HETATM   18  C5  UNL     1      21.671  29.885  16.156  1.00  0.00    -0.025 A 
HETATM   19  C6  UNL     1      22.754  29.045  16.475  1.00  0.00     0.011 A 
HETATM   20  C7  UNL     1      23.723  29.411  17.376  1.00  0.00     0.018 A 
HETATM   21  C8  UNL     1      23.629  30.643  17.987  1.00  0.00     0.088 A 
HETATM   22  N4  UNL     1      22.594  31.428  17.669  1.00  0.00    -0.361 N 
HETATM   23  C9  UNL     1      21.617  31.086  16.775  1.00  0.00     0.104 A 
ATOM     24  H4  UNL     1      22.528  32.339  18.122  1.00  0.00     0.165 HD
BRANCH  23  25
HETATM   25  C10 UNL     1      20.589  32.045  16.501  1.00  0.00     0.281 C 
HETATM   26  N5  UNL     1      19.536  32.217  17.489  1.00  0.00    -0.056 NA
HETATM   27  O1  UNL     1      20.432  32.782  15.531  1.00  0.00    -0.269 OA
ENDBRANCH  23  25
ENDBRANCH  17  18
ENDBRANCH  16  17
ENDBRANCH  14  16
ENDBRANCH   4  14
BRANCH   1  28
HETATM   28  N1  UNL     1      22.109  27.235  20.578  1.00  0.00    -0.234 N 
ATOM     29  H12 UNL     1      22.988  27.533  20.155  1.00  0.00     0.174 HD
ATOM     30  H11 UNL     1      22.125  26.778  21.490  1.00  0.00     0.174 HD
ENDBRANCH   1  28
BRANCH  10  31
HETATM   31  C13 UNL     1      17.004  27.871  21.892  1.00  0.00     0.144 C 
BRANCH  31  32
HETATM   32  C14 UNL     1      16.798  29.300  22.403  1.00  0.00     0.120 C 
BRANCH  32  33
HETATM   33  C15 UNL     1      15.383  29.503  22.798  1.00  0.00     0.232 C 
HETATM   34  N8  UNL     1      14.967  30.746  23.345  1.00  0.00    -0.062 NA
HETATM   35  O3  UNL     1      14.528  28.594  22.660  1.00  0.00    -0.277 OA
ENDBRANCH  32  33
ENDBRANCH  31  32
ENDBRANCH  10  31
TORSDOF 9
ENDMDL
MODEL 4
REMARK VINA RESULT: -7.682462643      1.220      1.562
REMARK  9 active torsions:
REMARK  status: ('A' for Active; 'I' for Inactive)
REMARK    1  A    between atoms: N1_1  and  C1_4 
REMARK    2  A    between atoms: C2_7  and  N3_8 
REMARK    3  A    between atoms: N3_8  and  C3_10 
REMARK    4  A    between atoms: C3_10  and  C4_11 
REMARK    5  A    between atoms: C4_11  and  C5_12 
REMARK    6  A    between atoms: C9_18  and  C10_19 
REMARK    7  A    between atoms: N7_27  and  C13_28 
REMARK    8  A    between atoms: C13_28  and  C14_29 
REMARK    9  A    between atoms: C14_29  and  C15_30 
ROOT
HETATM    1  C1  UNL     1      21.167  27.512  19.942  1.00  0.00     0.679 A 
HETATM    2  N2  UNL     1      21.159  27.590  18.584  1.00  0.00    -0.175 N 
ATOM      3  H2  UNL     1      22.045  27.530  18.083  1.00  0.00     0.186 HD
HETATM    4  C2  UNL     1      20.029  27.744  17.880  1.00  0.00     0.147 A 
HETATM    5  C11 UNL     1      18.827  27.824  18.585  1.00  0.00     0.126 A 
HETATM    6  N6  UNL     1      17.554  27.975  18.203  1.00  0.00    -0.302 N 
ATOM      7  H6  UNL     1      17.232  28.064  17.239  1.00  0.00     0.171 HD
HETATM    8  C12 UNL     1      16.765  27.992  19.294  1.00  0.00     0.328 A 
HETATM    9  O2  UNL     1      15.494  28.120  19.299  1.00  0.00    -0.246 OA
HETATM   10  N7  UNL     1      17.558  27.850  20.370  1.00  0.00    -0.282 N 
HETATM   11  C16 UNL     1      18.822  27.746  19.957  1.00  0.00     0.158 A 
HETATM   12  N9  UNL     1      20.011  27.590  20.606  1.00  0.00    -0.174 N 
ATOM     13  H9  UNL     1      20.018  27.532  21.624  1.00  0.00     0.186 HD
ENDROOT
BRANCH   4  14
HETATM   14  N3  UNL     1      19.944  27.821  16.609  1.00  0.00    -0.374 N 
ATOM     15  H3  UNL     1      19.090  27.452  16.190  1.00  0.00     0.161 HD
BRANCH  14  16
HETATM   16  C3  UNL     1      20.910  28.367  15.702  1.00  0.00     0.126 C 
BRANCH  16  17
HETATM   17  C4  UNL     1      21.432  29.712  16.194  1.00  0.00     0.060 C 
BRANCH  17  18
HETATM   18  C5  UNL     1      20.803  30.861  15.560  1.00  0.00    -0.025 A 
HETATM   19  C6  UNL     1      20.103  30.717  14.348  1.00  0.00     0.011 A 
HETATM   20  C7  UNL     1      19.533  31.785  13.701  1.00  0.00     0.018 A 
HETATM   21  C8  UNL     1      19.652  33.040  14.260  1.00  0.00     0.088 A 
HETATM   22  N4  UNL     1      20.319  33.156  15.413  1.00  0.00    -0.361 N 
HETATM   23  C9  UNL     1      20.896  32.108  16.076  1.00  0.00     0.104 A 
ATOM     24  H4  UNL     1      20.405  34.086  15.824  1.00  0.00     0.165 HD
BRANCH  23  25
HETATM   25  C10 UNL     1      21.544  32.376  17.324  1.00  0.00     0.281 C 
HETATM   26  N5  UNL     1      20.967  33.394  18.188  1.00  0.00    -0.056 NA
HETATM   27  O1  UNL     1      22.551  31.874  17.818  1.00  0.00    -0.269 OA
ENDBRANCH  23  25
ENDBRANCH  17  18
ENDBRANCH  16  17
ENDBRANCH  14  16
ENDBRANCH   4  14
BRANCH   1  28
HETATM   28  N1  UNL     1      22.289  27.368  20.542  1.00  0.00    -0.234 N 
ATOM     29  H12 UNL     1      22.356  26.972  21.480  1.00  0.00     0.174 HD
ATOM     30  H11 UNL     1      23.140  27.664  20.064  1.00  0.00     0.174 HD
ENDBRANCH   1  28
BRANCH  10  31
HETATM   31  C13 UNL     1      17.138  27.814  21.751  1.00  0.00     0.144 C 
BRANCH  31  32
HETATM   32  C14 UNL     1      16.813  29.225  22.252  1.00  0.00     0.120 C 
BRANCH  32  33
HETATM   33  C15 UNL     1      15.401  29.295  22.702  1.00  0.00     0.232 C 
HETATM   34  N8  UNL     1      14.944  30.416  23.443  1.00  0.00    -0.062 NA
HETATM   35  O3  UNL     1      14.585  28.377  22.440  1.00  0.00    -0.277 OA
ENDBRANCH  32  33
ENDBRANCH  31  32
ENDBRANCH  10  31
TORSDOF 9
ENDMDL
MODEL 5
REMARK VINA RESULT: -7.673475974      2.129      3.094
REMARK  9 active torsions:
REMARK  status: ('A' for Active; 'I' for Inactive)
REMARK    1  A    between atoms: N1_1  and  C1_4 
REMARK    2  A    between atoms: C2_7  and  N3_8 
REMARK    3  A    between atoms: N3_8  and  C3_10 
REMARK    4  A    between atoms: C3_10  and  C4_11 
REMARK    5  A    between atoms: C4_11  and  C5_12 
REMARK    6  A    between atoms: C9_18  and  C10_19 
REMARK    7  A    between atoms: N7_27  and  C13_28 
REMARK    8  A    between atoms: C13_28  and  C14_29 
REMARK    9  A    between atoms: C14_29  and  C15_30 
ROOT
HETATM    1  C1  UNL     1      23.521  28.357  19.552  1.00  0.00     0.679 A 
HETATM    2  N2  UNL     1      23.630  29.021  18.370  1.00  0.00    -0.175 N 
ATOM      3  H2  UNL     1      24.550  29.345  18.071  1.00  0.00     0.186 HD
HETATM    4  C2  UNL     1      22.573  29.266  17.583  1.00  0.00     0.147 A 
HETATM    5  C11 UNL     1      21.323  28.813  18.010  1.00  0.00     0.126 A 
HETATM    6  N6  UNL     1      20.096  28.888  17.482  1.00  0.00    -0.302 N 
ATOM      7  H6  UNL     1      19.860  29.332  16.594  1.00  0.00     0.171 HD
HETATM    8  C12 UNL     1      19.222  28.285  18.308  1.00  0.00     0.328 A 
HETATM    9  O2  UNL     1      17.965  28.170  18.116  1.00  0.00    -0.246 OA
HETATM   10  N7  UNL     1      19.914  27.827  19.367  1.00  0.00    -0.282 N 
HETATM   11  C16 UNL     1      21.200  28.141  19.203  1.00  0.00     0.158 A 
HETATM   12  N9  UNL     1      22.320  27.930  19.951  1.00  0.00    -0.174 N 
ATOM     13  H9  UNL     1      22.239  27.433  20.837  1.00  0.00     0.186 HD
ENDROOT
BRANCH   4  14
HETATM   14  N3  UNL     1      22.599  29.877  16.463  1.00  0.00    -0.374 N 
ATOM     15  H3  UNL     1      22.008  29.493  15.725  1.00  0.00     0.161 HD
BRANCH  14  16
HETATM   16  C3  UNL     1      23.364  31.039  16.121  1.00  0.00     0.126 C 
BRANCH  16  17
HETATM   17  C4  UNL     1      22.507  32.071  15.397  1.00  0.00     0.060 C 
BRANCH  17  18
HETATM   18  C5  UNL     1      21.221  32.324  16.030  1.00  0.00    -0.025 A 
HETATM   19  C6  UNL     1      21.140  33.091  17.207  1.00  0.00     0.011 A 
HETATM   20  C7  UNL     1      19.950  33.317  17.853  1.00  0.00     0.018 A 
HETATM   21  C8  UNL     1      18.797  32.772  17.329  1.00  0.00     0.088 A 
HETATM   22  N4  UNL     1      18.894  32.047  16.209  1.00  0.00    -0.361 N 
HETATM   23  C9  UNL     1      20.067  31.809  15.548  1.00  0.00     0.104 A 
ATOM     24  H4  UNL     1      18.039  31.646  15.824  1.00  0.00     0.165 HD
BRANCH  23  25
HETATM   25  C10 UNL     1      20.014  31.049  14.335  1.00  0.00     0.281 C 
HETATM   26  N5  UNL     1      20.230  29.613  14.419  1.00  0.00    -0.056 NA
HETATM   27  O1  UNL     1      19.809  31.414  13.180  1.00  0.00    -0.269 OA
ENDBRANCH  23  25
ENDBRANCH  17  18
ENDBRANCH  16  17
ENDBRANCH  14  16
ENDBRANCH   4  14
BRANCH   1  28
HETATM   28  N1  UNL     1      24.578  28.166  20.248  1.00  0.00    -0.234 N 
ATOM     29  H12 UNL     1      24.705  28.589  21.168  1.00  0.00     0.174 HD
ATOM     30  H11 UNL     1      25.315  27.575  19.866  1.00  0.00     0.174 HD
ENDBRANCH   1  28
BRANCH  10  31
HETATM   31  C13 UNL     1      19.380  27.115  20.503  1.00  0.00     0.144 C 
BRANCH  31  32
HETATM   32  C14 UNL     1      19.096  28.080  21.659  1.00  0.00     0.120 C 
BRANCH  32  33
HETATM   33  C15 UNL     1      17.669  28.484  21.649  1.00  0.00     0.232 C 
HETATM   34  N8  UNL     1      16.677  27.610  22.167  1.00  0.00    -0.062 NA
HETATM   35  O3  UNL     1      17.307  29.596  21.191  1.00  0.00    -0.277 OA
ENDBRANCH  32  33
ENDBRANCH  31  32
ENDBRANCH  10  31
TORSDOF 9
ENDMDL
