MODEL 1
REMARK VINA RESULT: -8.954461358      0.000      0.000
REMARK  7 active torsions:
REMARK  status: ('A' for Active; 'I' for Inactive)
REMARK       I    between atoms: C1_2  and  N2_4 
REMARK    1  A    between atoms: N2_4  and  C2_6 
REMARK    2  A    between atoms: C2_6  and  C3_7 
REMARK    3  A    between atoms: C3_7  and  N3_8 
REMARK    4  A    between atoms: N3_8  and  S1_10 
REMARK    5  A    between atoms: S1_10  and  N4_13 
REMARK    6  A    between atoms: N4_13  and  N5_15 
REMARK       I    between atoms: N5_15  and  C4_16 
REMARK    7  A    between atoms: C4_16  and  C5_18 
REMARK       I    between atoms: N6_23  and  C10_24 
ROOT
HETATM    1  N4  UNL     1      18.267  27.422  18.913  1.00  0.00    -0.139 N 
ATOM      2  H4  UNL     1      18.098  26.425  18.777  1.00  0.00     0.217 HD
ENDROOT
BRANCH   1   3
HETATM    3  S1  UNL     1      19.050  28.326  17.709  1.00  0.00     0.342 S 
HETATM    4  O2  UNL     1      18.388  28.100  16.354  1.00  0.00    -0.180 OA
HETATM    5  O3  UNL     1      18.872  29.785  18.074  1.00  0.00    -0.180 OA
BRANCH   3   6
HETATM    6  N3  UNL     1      20.673  27.852  17.545  1.00  0.00    -0.299 N 
ATOM      7  H3  UNL     1      21.168  27.241  18.194  1.00  0.00     0.173 HD
BRANCH   6   8
HETATM    8  C3  UNL     1      21.250  28.431  16.366  1.00  0.00     0.153 C 
BRANCH   8   9
HETATM    9  C2  UNL     1      22.341  29.417  16.802  1.00  0.00     0.144 C 
BRANCH   9  10
HETATM   10  N2  UNL     1      23.038  28.964  17.987  1.00  0.00    -0.344 N 
HETATM   11  C1  UNL     1      24.127  29.617  18.513  1.00  0.00     0.328 C 
HETATM   12  N1  UNL     1      24.762  29.030  19.698  1.00  0.00    -0.040 NA
HETATM   13  O1  UNL     1      24.646  30.654  18.108  1.00  0.00    -0.251 OA
ATOM     14  H2  UNL     1      22.705  28.120  18.454  1.00  0.00     0.163 HD
ENDBRANCH   9  10
ENDBRANCH   8   9
ENDBRANCH   6   8
ENDBRANCH   3   6
ENDBRANCH   1   3
BRANCH   1  15
HETATM   15  N5  UNL     1      17.874  28.020  20.038  1.00  0.00    -0.269 NA
HETATM   16  C4  UNL     1      17.532  28.615  21.172  1.00  0.00     0.353 C 
HETATM   17  O4  UNL     1      18.344  28.993  22.079  1.00  0.00    -0.248 OA
BRANCH  16  18
HETATM   18  C5  UNL     1      16.085  28.924  21.508  1.00  0.00     0.092 A 
HETATM   19  C6  UNL     1      15.665  29.698  22.569  1.00  0.00     0.040 A 
HETATM   20  C7  UNL     1      14.326  29.832  22.674  1.00  0.00     0.001 A 
HETATM   21  C8  UNL     1      13.431  30.489  23.551  1.00  0.00     0.032 A 
HETATM   22  C11 UNL     1      13.527  29.224  21.769  1.00  0.00     0.095 A 
HETATM   23  C9  UNL     1      12.145  30.256  23.147  1.00  0.00     0.103 A 
HETATM   24  N6  UNL     1      12.222  29.482  22.058  1.00  0.00    -0.270 N 
HETATM   25  C10 UNL     1      11.128  28.988  21.264  1.00  0.00     0.340 C 
HETATM   26  N7  UNL     1      11.399  28.170  20.148  1.00  0.00    -0.039 NA
HETATM   27  O5  UNL     1       9.943  29.281  21.556  1.00  0.00    -0.250 OA
HETATM   28  S2  UNL     1      14.675  28.447  20.737  1.00  0.00    -0.064 SA
ENDBRANCH  16  18
ENDBRANCH   1  15
TORSDOF 7
ENDMDL
MODEL 2
REMARK VINA RESULT: -8.918740686      1.135      1.826
REMARK  7 active torsions:
REMARK  status: ('A' for Active; 'I' for Inactive)
REMARK       I    between atoms: C1_2  and  N2_4 
REMARK    1  A    between atoms: N2_4  and  C2_6 
REMARK    2  A    between atoms: C2_6  and  C3_7 
REMARK    3  A    between atoms: C3_7  and  N3_8 
REMARK    4  A    between atoms: N3_8  and  S1_10 
REMARK    5  A    between atoms: S1_10  and  N4_13 
REMARK    6  A    between atoms: N4_13  and  N5_15 
REMARK       I    between atoms: N5_15  and  C4_16 
REMARK    7  A    between atoms: C4_16  and  C5_18 
REMARK       I    between atoms: N6_23  and  C10_24 
ROOT
HETATM    1  N4  UNL     1      18.842  27.633  19.517  1.00  0.00    -0.139 N 
ATOM      2  H4  UNL     1      19.299  26.779  19.838  1.00  0.00     0.217 HD
ENDROOT
BRANCH   1   3
HETATM    3  S1  UNL     1      19.175  28.252  17.972  1.00  0.00     0.342 S 
HETATM    4  O2  UNL     1      18.182  27.707  16.952  1.00  0.00    -0.180 OA
HETATM    5  O3  UNL     1      18.983  29.752  18.052  1.00  0.00    -0.180 OA
BRANCH   3   6
HETATM    6  N3  UNL     1      20.722  27.785  17.447  1.00  0.00    -0.299 N 
ATOM      7  H3  UNL     1      21.290  27.059  17.884  1.00  0.00     0.173 HD
BRANCH   6   8
HETATM    8  C3  UNL     1      21.118  28.555  16.302  1.00  0.00     0.153 C 
BRANCH   8   9
HETATM    9  C2  UNL     1      22.272  29.474  16.720  1.00  0.00     0.144 C 
BRANCH   9  10
HETATM   10  N2  UNL     1      22.967  28.974  17.888  1.00  0.00    -0.344 N 
HETATM   11  C1  UNL     1      24.033  29.625  18.464  1.00  0.00     0.328 C 
HETATM   12  N1  UNL     1      24.669  28.989  19.623  1.00  0.00    -0.040 NA
HETATM   13  O1  UNL     1      24.530  30.695  18.123  1.00  0.00    -0.251 OA
ATOM     14  H2  UNL     1      22.651  28.097  18.303  1.00  0.00     0.163 HD
ENDBRANCH   9  10
ENDBRANCH   8   9
ENDBRANCH   6   8
ENDBRANCH   3   6
ENDBRANCH   1   3
BRANCH   1  15
HETATM   15  N5  UNL     1      17.978  28.269  20.311  1.00  0.00    -0.269 NA
HETATM   16  C4  UNL     1      17.160  28.916  21.129  1.00  0.00     0.353 C 
HETATM   17  O4  UNL     1      17.523  29.643  22.111  1.00  0.00    -0.248 OA
BRANCH  16  18
HETATM   18  C5  UNL     1      15.654  28.860  20.960  1.00  0.00     0.092 A 
HETATM   19  C6  UNL     1      14.998  28.393  19.840  1.00  0.00     0.040 A 
HETATM   20  C7  UNL     1      13.652  28.443  19.913  1.00  0.00     0.001 A 
HETATM   21  C8  UNL     1      12.570  28.105  19.066  1.00  0.00     0.032 A 
HETATM   22  C11 UNL     1      13.067  28.926  21.032  1.00  0.00     0.095 A 
HETATM   23  C9  UNL     1      11.390  28.392  19.697  1.00  0.00     0.103 A 
HETATM   24  N6  UNL     1      11.712  28.893  20.896  1.00  0.00    -0.270 N 
HETATM   25  C10 UNL     1      10.808  29.324  21.929  1.00  0.00     0.340 C 
HETATM   26  N7  UNL     1      11.330  29.838  23.134  1.00  0.00    -0.039 NA
HETATM   27  O5  UNL     1       9.566  29.243  21.765  1.00  0.00    -0.250 OA
HETATM   28  S2  UNL     1      14.433  29.316  22.014  1.00  0.00    -0.064 SA
ENDBRANCH  16  18
ENDBRANCH   1  15
TORSDOF 7
ENDMDL
MODEL 3
REMARK VINA RESULT: -8.883725950      1.879      2.070
REMARK  7 active torsions:
REMARK  status: ('A' for Active; 'I' for Inactive)
REMARK       I    between atoms: C1_2  and  N2_4 
REMARK    1  A    between atoms: N2_4  and  C2_6 
REMARK    2  A    between atoms: C2_6  and  C3_7 
REMARK    3  A    between atoms: C3_7  and  N3_8 
REMARK    4  A    between atoms: N3_8  and  S1_10 
REMARK    5  A    between atoms: S1_10  and  N4_13 
REMARK    6  A    between atoms: N4_13  and  N5_15 
REMARK       I    between atoms: N5_15  and  C4_16 
REMARK    7  A    between atoms: C4_16  and  C5_18 
REMARK       I    between atoms: N6_23  and  C10_24 
ROOT
HETATM    1  N4  UNL     1      18.427  27.361  19.665  1.00  0.00    -0.139 N 
ATOM      2  H4  UNL     1      18.917  26.511  19.943  1.00  0.00     0.217 HD
ENDROOT
BRANCH   1   3
HETATM    3  S1  UNL     1      18.919  28.217  18.284  1.00  0.00     0.342 S 
HETATM    4  O2  UNL     1      18.142  27.750  17.059  1.00  0.00    -0.180 OA
HETATM    5  O3  UNL     1      18.572  29.672  18.525  1.00  0.00    -0.180 OA
BRANCH   3   6
HETATM    6  N3  UNL     1      20.564  27.950  17.952  1.00  0.00    -0.299 N 
ATOM      7  H3  UNL     1      21.213  27.475  18.579  1.00  0.00     0.173 HD
BRANCH   6   8
HETATM    8  C3  UNL     1      20.911  28.485  16.667  1.00  0.00     0.153 C 
BRANCH   8   9
HETATM    9  C2  UNL     1      22.218  29.274  16.814  1.00  0.00     0.144 C 
BRANCH   9  10
HETATM   10  N2  UNL     1      22.937  28.911  18.018  1.00  0.00    -0.344 N 
HETATM   11  C1  UNL     1      24.057  29.577  18.453  1.00  0.00     0.328 C 
HETATM   12  N1  UNL     1      24.710  29.082  19.670  1.00  0.00    -0.040 NA
HETATM   13  O1  UNL     1      24.591  30.558  17.941  1.00  0.00    -0.251 OA
ATOM     14  H2  UNL     1      22.596  28.122  18.568  1.00  0.00     0.163 HD
ENDBRANCH   9  10
ENDBRANCH   8   9
ENDBRANCH   6   8
ENDBRANCH   3   6
ENDBRANCH   1   3
BRANCH   1  15
HETATM   15  N5  UNL     1      17.395  27.806  20.385  1.00  0.00    -0.269 NA
HETATM   16  C4  UNL     1      16.392  28.227  21.142  1.00  0.00     0.353 C 
HETATM   17  O4  UNL     1      16.322  28.101  22.408  1.00  0.00    -0.248 OA
BRANCH  16  18
HETATM   18  C5  UNL     1      15.189  28.937  20.550  1.00  0.00     0.092 A 
HETATM   19  C6  UNL     1      14.975  30.299  20.585  1.00  0.00     0.040 A 
HETATM   20  C7  UNL     1      13.830  30.705  19.998  1.00  0.00     0.001 A 
HETATM   21  C8  UNL     1      13.177  31.941  19.781  1.00  0.00     0.032 A 
HETATM   22  C11 UNL     1      13.010  29.787  19.440  1.00  0.00     0.095 A 
HETATM   23  C9  UNL     1      12.004  31.724  19.111  1.00  0.00     0.103 A 
HETATM   24  N6  UNL     1      11.917  30.404  18.911  1.00  0.00    -0.270 N 
HETATM   25  C10 UNL     1      10.867  29.695  18.230  1.00  0.00     0.340 C 
HETATM   26  N7  UNL     1      10.938  28.291  18.123  1.00  0.00    -0.039 NA
HETATM   27  O5  UNL     1       9.896  30.315  17.732  1.00  0.00    -0.250 OA
HETATM   28  S2  UNL     1      13.862  28.313  19.738  1.00  0.00    -0.064 SA
ENDBRANCH  16  18
ENDBRANCH   1  15
TORSDOF 7
ENDMDL
MODEL 4
REMARK VINA RESULT: -8.852627923      2.124      2.639
REMARK  7 active torsions:
REMARK  status: ('A' for Active; 'I' for Inactive)
REMARK       I    between atoms: C1_2  and  N2_4 
REMARK    1  A    between atoms: N2_4  and  C2_6 
REMARK    2  A    between atoms: C2_6  and  C3_7 
REMARK    3  A    between atoms: C3_7  and  N3_8 
REMARK    4  A    between atoms: N3_8  and  S1_10 
REMARK    5  A    between atoms: S1_10  and  N4_13 
REMARK    6  A    between atoms: N4_13  and  N5_15 
REMARK       I    between atoms: N5_15  and  C4_16 
REMARK    7  A    between atoms: C4_16  and  C5_18 
REMARK       I    between atoms: N6_23  and  C10_24 
ROOT
HETATM    1  N4  UNL     1      18.488  27.373  19.647  1.00  0.00    -0.139 N 
ATOM      2  H4  UNL     1      19.016  26.559  19.960  1.00  0.00     0.217 HD
ENDROOT
BRANCH   1   3
HETATM    3  S1  UNL     1      18.946  28.196  18.235  1.00  0.00     0.342 S 
HETATM    4  O2  UNL     1      18.113  27.728  17.047  1.00  0.00    -0.180 OA
HETATM    5  O3  UNL     1      18.641  29.662  18.465  1.00  0.00    -0.180 OA
BRANCH   3   6
HETATM    6  N3  UNL     1      20.570  27.886  17.845  1.00  0.00    -0.299 N 
ATOM      7  H3  UNL     1      21.215  27.349  18.425  1.00  0.00     0.173 HD
BRANCH   6   8
HETATM    8  C3  UNL     1      20.909  28.486  16.586  1.00  0.00     0.153 C 
BRANCH   8   9
HETATM    9  C2  UNL     1      22.184  29.315  16.779  1.00  0.00     0.144 C 
BRANCH   9  10
HETATM   10  N2  UNL     1      22.901  28.937  17.978  1.00  0.00    -0.344 N 
HETATM   11  C1  UNL     1      24.027  29.590  18.418  1.00  0.00     0.328 C 
HETATM   12  N1  UNL     1      24.677  29.080  19.630  1.00  0.00    -0.040 NA
HETATM   13  O1  UNL     1      24.570  30.570  17.914  1.00  0.00    -0.251 OA
ATOM     14  H2  UNL     1      22.553  28.147  18.523  1.00  0.00     0.163 HD
ENDBRANCH   9  10
ENDBRANCH   8   9
ENDBRANCH   6   8
ENDBRANCH   3   6
ENDBRANCH   1   3
BRANCH   1  15
HETATM   15  N5  UNL     1      17.433  27.797  20.346  1.00  0.00    -0.269 NA
HETATM   16  C4  UNL     1      16.407  28.199  21.082  1.00  0.00     0.353 C 
HETATM   17  O4  UNL     1      16.330  28.105  22.351  1.00  0.00    -0.248 OA
BRANCH  16  18
HETATM   18  C5  UNL     1      15.183  28.844  20.461  1.00  0.00     0.092 A 
HETATM   19  C6  UNL     1      14.320  28.225  19.582  1.00  0.00     0.040 A 
HETATM   20  C7  UNL     1      13.300  28.998  19.154  1.00  0.00     0.001 A 
HETATM   21  C8  UNL     1      12.197  28.843  18.282  1.00  0.00     0.032 A 
HETATM   22  C11 UNL     1      13.201  30.270  19.601  1.00  0.00     0.095 A 
HETATM   23  C9  UNL     1      11.484  30.010  18.236  1.00  0.00     0.103 A 
HETATM   24  N6  UNL     1      12.111  30.871  19.047  1.00  0.00    -0.270 N 
HETATM   25  C10 UNL     1      11.725  32.225  19.342  1.00  0.00     0.340 C 
HETATM   26  N7  UNL     1      12.518  32.994  20.219  1.00  0.00    -0.039 NA
HETATM   27  O5  UNL     1      10.694  32.722  18.828  1.00  0.00    -0.250 OA
HETATM   28  S2  UNL     1      14.566  30.391  20.652  1.00  0.00    -0.064 SA
ENDBRANCH  16  18
ENDBRANCH   1  15
TORSDOF 7
ENDMDL
MODEL 5
REMARK VINA RESULT: -8.789903391      1.880      1.932
REMARK  7 active torsions:
REMARK  status: ('A' for Active; 'I' for Inactive)
REMARK       I    between atoms: C1_2  and  N2_4 
REMARK    1  A    between atoms: N2_4  and  C2_6 
REMARK    2  A    between atoms: C2_6  and  C3_7 
REMARK    3  A    between atoms: C3_7  and  N3_8 
REMARK    4  A    between atoms: N3_8  and  S1_10 
REMARK    5  A    between atoms: S1_10  and  N4_13 
REMARK    6  A    between atoms: N4_13  and  N5_15 
REMARK       I    between atoms: N5_15  and  C4_16 
REMARK    7  A    between atoms: C4_16  and  C5_18 
REMARK       I    between atoms: N6_23  and  C10_24 
ROOT
HETATM    1  N4  UNL     1      19.469  27.748  19.694  1.00  0.00    -0.139 N 
ATOM      2  H4  UNL     1      20.362  27.608  20.167  1.00  0.00     0.217 HD
ENDROOT
BRANCH   1   3
HETATM    3  S1  UNL     1      19.409  27.861  18.002  1.00  0.00     0.342 S 
HETATM    4  O2  UNL     1      20.108  26.669  17.360  1.00  0.00    -0.180 OA
HETATM    5  O3  UNL     1      17.947  27.806  17.612  1.00  0.00    -0.180 OA
BRANCH   3   6
HETATM    6  N3  UNL     1      20.213  29.254  17.453  1.00  0.00    -0.299 N 
ATOM      7  H3  UNL     1      20.000  30.204  17.754  1.00  0.00     0.173 HD
BRANCH   6   8
HETATM    8  C3  UNL     1      21.234  28.905  16.507  1.00  0.00     0.153 C 
BRANCH   8   9
HETATM    9  C2  UNL     1      22.525  29.630  16.906  1.00  0.00     0.144 C 
BRANCH   9  10
HETATM   10  N2  UNL     1      23.163  29.011  18.048  1.00  0.00    -0.344 N 
HETATM   11  C1  UNL     1      24.223  29.578  18.715  1.00  0.00     0.328 C 
HETATM   12  N1  UNL     1      24.800  28.826  19.835  1.00  0.00    -0.040 NA
HETATM   13  O1  UNL     1      24.759  30.659  18.488  1.00  0.00    -0.251 OA
ATOM     14  H2  UNL     1      22.811  28.110  18.373  1.00  0.00     0.163 HD
ENDBRANCH   9  10
ENDBRANCH   8   9
ENDBRANCH   6   8
ENDBRANCH   3   6
ENDBRANCH   1   3
BRANCH   1  15
HETATM   15  N5  UNL     1      18.342  27.842  20.403  1.00  0.00    -0.269 NA
HETATM   16  C4  UNL     1      17.242  27.900  21.138  1.00  0.00     0.353 C 
HETATM   17  O4  UNL     1      17.049  27.265  22.227  1.00  0.00    -0.248 OA
BRANCH  16  18
HETATM   18  C5  UNL     1      16.063  28.770  20.745  1.00  0.00     0.092 A 
HETATM   19  C6  UNL     1      15.890  30.086  21.118  1.00  0.00     0.040 A 
HETATM   20  C7  UNL     1      14.761  30.661  20.654  1.00  0.00     0.001 A 
HETATM   21  C8  UNL     1      14.145  31.931  20.754  1.00  0.00     0.032 A 
HETATM   22  C11 UNL     1      13.916  29.935  19.887  1.00  0.00     0.095 A 
HETATM   23  C9  UNL     1      12.970  31.923  20.053  1.00  0.00     0.103 A 
HETATM   24  N6  UNL     1      12.845  30.697  19.531  1.00  0.00    -0.270 N 
HETATM   25  C10 UNL     1      11.778  30.212  18.697  1.00  0.00     0.340 C 
HETATM   26  N7  UNL     1      11.808  28.878  18.243  1.00  0.00    -0.039 NA
HETATM   27  O5  UNL     1      10.829  30.966  18.372  1.00  0.00    -0.250 OA
HETATM   28  S2  UNL     1      14.723  28.409  19.806  1.00  0.00    -0.064 SA
ENDBRANCH  16  18
ENDBRANCH   1  15
TORSDOF 7
ENDMDL
