MODEL 1
REMARK VINA RESULT: -7.495349108      0.000      0.000
REMARK  14 active torsions:
REMARK  status: ('A' for Active; 'I' for Inactive)
REMARK    1  A    between atoms: N1_1  and  C1_4 
REMARK    2  A    between atoms: C2_7  and  C3_8 
REMARK    3  A    between atoms: C3_8  and  N3_9 
REMARK    4  A    between atoms: C4_10  and  O1_11 
REMARK    5  A    between atoms: C5_13  and  C6_14 
REMARK    6  A    between atoms: N4_15  and  C7_17 
REMARK    7  A    between atoms: C7_17  and  C8_18 
REMARK    8  A    between atoms: C12_25  and  O2_26 
REMARK    9  A    between atoms: C13_28  and  O3_29 
REMARK   10  A    between atoms: C14_31  and  N6_32 
REMARK   11  A    between atoms: N6_32  and  C15_34 
REMARK   12  A    between atoms: C17_38  and  C18_39 
REMARK   13  A    between atoms: C18_39  and  O4_40 
REMARK   14  A    between atoms: O4_40  and  N8_41 
ROOT
HETATM    1  N3  UNL     1     162.728   9.886  33.928  1.00  0.00    -0.305 N 
HETATM    2  C4  UNL     1     163.322  10.991  33.443  1.00  0.00     0.159 A 
HETATM    3  C5  UNL     1     162.626  12.079  32.965  1.00  0.00     0.066 A 
HETATM    4  C12 UNL     1     161.239  12.015  32.992  1.00  0.00     0.118 A 
HETATM    5  C13 UNL     1     160.632  10.881  33.491  1.00  0.00     0.144 A 
HETATM    6  C14 UNL     1     161.355   9.811  33.962  1.00  0.00     0.144 A 
ENDROOT
BRANCH   6   7
HETATM    7  N6  UNL     1     160.808   8.793  34.454  1.00  0.00    -0.346 N 
ATOM      8  H6  UNL     1     160.916   8.729  35.466  1.00  0.00     0.163 HD
BRANCH   7   9
HETATM    9  C15 UNL     1     160.080   7.725  33.908  1.00  0.00     0.248 C 
HETATM   10  C16 UNL     1     160.796   6.393  33.896  1.00  0.00     0.175 C 
HETATM   11  N7  UNL     1     161.500   6.461  32.624  1.00  0.00    -0.368 N 
HETATM   12  C17 UNL     1     160.984   7.327  31.853  1.00  0.00     0.143 C 
ATOM     13  H7  UNL     1     162.306   5.884  32.383  1.00  0.00     0.161 HD
HETATM   14  O7  UNL     1     159.914   7.923  32.486  1.00  0.00    -0.310 OA
BRANCH  12  15
HETATM   15  C18 UNL     1     161.497   7.619  30.473  1.00  0.00     0.291 C 
BRANCH  15  16
HETATM   16  O4  UNL     1     160.441   8.054  29.638  1.00  0.00    -0.213 OA
BRANCH  16  17
HETATM   17  N8  UNL     1     160.150   9.358  29.425  1.00  0.00     0.005 N 
HETATM   18  O5  UNL     1     160.439   9.915  28.353  1.00  0.00    -0.511 OA
HETATM   19  O6  UNL     1     159.525  10.091  30.401  1.00  0.00    -0.511 OA
ENDBRANCH  16  17
ENDBRANCH  15  16
ENDBRANCH  12  15
ENDBRANCH   7   9
ENDBRANCH   6   7
BRANCH   1  20
HETATM   20  C3  UNL     1     163.479   8.786  34.434  1.00  0.00     0.190 C 
BRANCH  20  21
HETATM   21  C2  UNL     1     163.993   9.038  35.850  1.00  0.00     0.036 A 
HETATM   22  N2  UNL     1     165.175   9.597  36.037  1.00  0.00    -0.339 N 
HETATM   23  C1  UNL     1     165.596   9.804  37.283  1.00  0.00     0.142 A 
ATOM     24  H2  UNL     1     165.754   9.866  35.241  1.00  0.00     0.168 HD
HETATM   25  S1  UNL     1     164.325   9.213  38.232  1.00  0.00    -0.064 SA
HETATM   26  C19 UNL     1     163.281   8.712  36.971  1.00  0.00     0.080 A 
BRANCH  23  27
HETATM   27  N1  UNL     1     166.726  10.340  37.683  1.00  0.00    -0.380 N 
ATOM     28  H12 UNL     1     167.677  10.040  37.465  1.00  0.00     0.158 HD
ATOM     29  H11 UNL     1     166.864  11.151  38.285  1.00  0.00     0.158 HD
ENDBRANCH  23  27
ENDBRANCH  20  21
ENDBRANCH   1  20
BRANCH   5  30
HETATM   30  O3  UNL     1     159.236  10.852  33.504  1.00  0.00    -0.355 OA
ATOM     31  H3  UNL     1     158.815  10.007  33.387  1.00  0.00     0.218 HD
ENDBRANCH   5  30
BRANCH   2  32
HETATM   32  O1  UNL     1     164.708  11.112  33.395  1.00  0.00    -0.345 OA
ATOM     33  H1  UNL     1     165.243  10.506  32.897  1.00  0.00     0.219 HD
ENDBRANCH   2  32
BRANCH   4  34
HETATM   34  O2  UNL     1     160.548  13.113  32.507  1.00  0.00    -0.357 OA
ATOM     35  H2  UNL     1     161.061  13.798  32.096  1.00  0.00     0.217 HD
ENDBRANCH   4  34
BRANCH   3  36
HETATM   36  C6  UNL     1     163.268  13.276  32.438  1.00  0.00     0.101 C 
HETATM   37  N4  UNL     1     163.098  14.423  32.963  1.00  0.00    -0.397 N 
ATOM     38  H4  UNL     1     162.495  14.529  33.779  1.00  0.00     0.158 HD
BRANCH  37  39
HETATM   39  C7  UNL     1     163.762  15.575  32.396  1.00  0.00     0.125 C 
BRANCH  39  40
HETATM   40  C8  UNL     1     163.822  15.454  30.870  1.00  0.00     0.030 C 
HETATM   41  C9  UNL     1     164.937  16.305  30.326  1.00  0.00     0.035 C 
HETATM   42  C10 UNL     1     164.292  17.608  29.926  1.00  0.00     0.232 C 
HETATM   43  N5  UNL     1     162.911  17.540  30.370  1.00  0.00    -0.075 N 
HETATM   44  C11 UNL     1     162.589  16.114  30.295  1.00  0.00     0.238 C 
ATOM     45  H52 UNL     1     162.742  17.962  31.283  1.00  0.00     0.277 HD
ATOM     46  H51 UNL     1     162.273  18.143  29.850  1.00  0.00     0.277 HD
ENDBRANCH  39  40
ENDBRANCH  37  39
ENDBRANCH   3  36
TORSDOF 14
ENDMDL
MODEL 2
REMARK VINA RESULT: -7.488223998      1.319      1.695
REMARK  14 active torsions:
REMARK  status: ('A' for Active; 'I' for Inactive)
REMARK    1  A    between atoms: N1_1  and  C1_4 
REMARK    2  A    between atoms: C2_7  and  C3_8 
REMARK    3  A    between atoms: C3_8  and  N3_9 
REMARK    4  A    between atoms: C4_10  and  O1_11 
REMARK    5  A    between atoms: C5_13  and  C6_14 
REMARK    6  A    between atoms: N4_15  and  C7_17 
REMARK    7  A    between atoms: C7_17  and  C8_18 
REMARK    8  A    between atoms: C12_25  and  O2_26 
REMARK    9  A    between atoms: C13_28  and  O3_29 
REMARK   10  A    between atoms: C14_31  and  N6_32 
REMARK   11  A    between atoms: N6_32  and  C15_34 
REMARK   12  A    between atoms: C17_38  and  C18_39 
REMARK   13  A    between atoms: C18_39  and  O4_40 
REMARK   14  A    between atoms: O4_40  and  N8_41 
ROOT
HETATM    1  N3  UNL     1     163.007   9.610  33.450  1.00  0.00    -0.305 N 
HETATM    2  C4  UNL     1     162.855  10.896  33.086  1.00  0.00     0.159 A 
HETATM    3  C5  UNL     1     161.629  11.481  32.858  1.00  0.00     0.066 A 
HETATM    4  C12 UNL     1     160.502  10.688  33.018  1.00  0.00     0.118 A 
HETATM    5  C13 UNL     1     160.659   9.369  33.393  1.00  0.00     0.144 A 
HETATM    6  C14 UNL     1     161.897   8.815  33.613  1.00  0.00     0.144 A 
ENDROOT
BRANCH   6   7
HETATM    7  N6  UNL     1     162.044   7.626  33.992  1.00  0.00    -0.346 N 
ATOM      8  H6  UNL     1     162.502   7.549  34.901  1.00  0.00     0.163 HD
BRANCH   7   9
HETATM    9  C15 UNL     1     161.713   6.382  33.434  1.00  0.00     0.248 C 
HETATM   10  C16 UNL     1     162.882   5.571  32.923  1.00  0.00     0.175 C 
HETATM   11  N7  UNL     1     162.997   6.064  31.559  1.00  0.00    -0.368 N 
HETATM   12  C17 UNL     1     161.924   6.625  31.176  1.00  0.00     0.143 C 
ATOM     13  H7  UNL     1     163.833   5.970  30.983  1.00  0.00     0.161 HD
HETATM   14  O7  UNL     1     160.996   6.579  32.195  1.00  0.00    -0.310 OA
BRANCH  12  15
HETATM   15  C18 UNL     1     161.745   7.230  29.814  1.00  0.00     0.291 C 
BRANCH  15  16
HETATM   16  O4  UNL     1     160.391   7.584  29.609  1.00  0.00    -0.213 OA
BRANCH  16  17
HETATM   17  N8  UNL     1     159.944   8.861  29.634  1.00  0.00     0.005 N 
HETATM   18  O5  UNL     1     159.085   9.227  30.455  1.00  0.00    -0.511 OA
HETATM   19  O6  UNL     1     160.439   9.780  28.744  1.00  0.00    -0.511 OA
ENDBRANCH  16  17
ENDBRANCH  15  16
ENDBRANCH  12  15
ENDBRANCH   7   9
ENDBRANCH   6   7
BRANCH   1  20
HETATM   20  C3  UNL     1     164.290   9.042  33.697  1.00  0.00     0.190 C 
BRANCH  20  21
HETATM   21  C2  UNL     1     164.853   9.452  35.055  1.00  0.00     0.036 A 
HETATM   22  N2  UNL     1     165.630  10.516  35.157  1.00  0.00    -0.339 N 
HETATM   23  C1  UNL     1     166.107  10.849  36.355  1.00  0.00     0.142 A 
ATOM     24  H2  UNL     1     165.860  11.072  34.333  1.00  0.00     0.168 HD
HETATM   25  S1  UNL     1     165.465   9.664  37.378  1.00  0.00    -0.064 SA
HETATM   26  C19 UNL     1     164.593   8.767  36.209  1.00  0.00     0.080 A 
BRANCH  23  27
HETATM   27  N1  UNL     1     166.887  11.857  36.670  1.00  0.00    -0.380 N 
ATOM     28  H12 UNL     1     167.500  12.395  36.057  1.00  0.00     0.158 HD
ATOM     29  H11 UNL     1     167.027  12.288  37.584  1.00  0.00     0.158 HD
ENDBRANCH  23  27
ENDBRANCH  20  21
ENDBRANCH   1  20
BRANCH   5  30
HETATM   30  O3  UNL     1     159.502   8.601  33.544  1.00  0.00    -0.355 OA
ATOM     31  H3  UNL     1     159.598   7.736  33.927  1.00  0.00     0.218 HD
ENDBRANCH   5  30
BRANCH   2  32
HETATM   32  O1  UNL     1     163.950  11.739  32.915  1.00  0.00    -0.345 OA
ATOM     33  H1  UNL     1     164.254  11.990  32.051  1.00  0.00     0.219 HD
ENDBRANCH   2  32
BRANCH   4  34
HETATM   34  O2  UNL     1     159.274  11.285  32.786  1.00  0.00    -0.357 OA
ATOM     35  H2  UNL     1     158.938  11.861  33.462  1.00  0.00     0.217 HD
ENDBRANCH   4  34
BRANCH   3  36
HETATM   36  C6  UNL     1     161.464  12.874  32.463  1.00  0.00     0.101 C 
HETATM   37  N4  UNL     1     162.173  13.408  31.551  1.00  0.00    -0.397 N 
ATOM     38  H4  UNL     1     162.885  12.860  31.069  1.00  0.00     0.158 HD
BRANCH  37  39
HETATM   39  C7  UNL     1     161.963  14.794  31.202  1.00  0.00     0.125 C 
BRANCH  39  40
HETATM   40  C8  UNL     1     163.018  15.676  31.878  1.00  0.00     0.030 C 
HETATM   41  C9  UNL     1     163.077  17.021  31.207  1.00  0.00     0.035 C 
HETATM   42  C10 UNL     1     164.196  16.923  30.201  1.00  0.00     0.232 C 
HETATM   43  N5  UNL     1     164.636  15.540  30.205  1.00  0.00    -0.075 N 
HETATM   44  C11 UNL     1     164.381  15.095  31.577  1.00  0.00     0.238 C 
ATOM     45  H52 UNL     1     164.203  14.958  29.488  1.00  0.00     0.277 HD
ATOM     46  H51 UNL     1     165.597  15.404  29.891  1.00  0.00     0.277 HD
ENDBRANCH  39  40
ENDBRANCH  37  39
ENDBRANCH   3  36
TORSDOF 14
ENDMDL
MODEL 3
REMARK VINA RESULT: -7.477204361      3.068      4.666
REMARK  14 active torsions:
REMARK  status: ('A' for Active; 'I' for Inactive)
REMARK    1  A    between atoms: N1_1  and  C1_4 
REMARK    2  A    between atoms: C2_7  and  C3_8 
REMARK    3  A    between atoms: C3_8  and  N3_9 
REMARK    4  A    between atoms: C4_10  and  O1_11 
REMARK    5  A    between atoms: C5_13  and  C6_14 
REMARK    6  A    between atoms: N4_15  and  C7_17 
REMARK    7  A    between atoms: C7_17  and  C8_18 
REMARK    8  A    between atoms: C12_25  and  O2_26 
REMARK    9  A    between atoms: C13_28  and  O3_29 
REMARK   10  A    between atoms: C14_31  and  N6_32 
REMARK   11  A    between atoms: N6_32  and  C15_34 
REMARK   12  A    between atoms: C17_38  and  C18_39 
REMARK   13  A    between atoms: C18_39  and  O4_40 
REMARK   14  A    between atoms: O4_40  and  N8_41 
ROOT
HETATM    1  N3  UNL     1     161.442   7.874  32.926  1.00  0.00    -0.305 N 
HETATM    2  C4  UNL     1     161.303   9.209  33.012  1.00  0.00     0.159 A 
HETATM    3  C5  UNL     1     160.952  10.006  31.945  1.00  0.00     0.066 A 
HETATM    4  C12 UNL     1     160.735   9.383  30.724  1.00  0.00     0.118 A 
HETATM    5  C13 UNL     1     160.877   8.013  30.638  1.00  0.00     0.144 A 
HETATM    6  C14 UNL     1     161.227   7.245  31.722  1.00  0.00     0.144 A 
ENDROOT
BRANCH   6   7
HETATM    7  N6  UNL     1     161.320   5.993  31.658  1.00  0.00    -0.346 N 
ATOM      8  H6  UNL     1     160.429   5.518  31.807  1.00  0.00     0.163 HD
BRANCH   7   9
HETATM    9  C15 UNL     1     162.385   5.110  31.425  1.00  0.00     0.248 C 
HETATM   10  C16 UNL     1     163.606   5.725  30.781  1.00  0.00     0.175 C 
HETATM   11  N7  UNL     1     163.285   5.584  29.369  1.00  0.00    -0.368 N 
HETATM   12  C17 UNL     1     162.391   4.702  29.182  1.00  0.00     0.143 C 
ATOM     13  H7  UNL     1     163.722   6.126  28.623  1.00  0.00     0.161 HD
HETATM   14  O7  UNL     1     162.019   4.165  30.396  1.00  0.00    -0.310 OA
BRANCH  12  15
HETATM   15  C18 UNL     1     161.856   4.338  27.827  1.00  0.00     0.291 C 
BRANCH  15  16
HETATM   16  O4  UNL     1     160.541   4.834  27.669  1.00  0.00    -0.213 OA
BRANCH  16  17
HETATM   17  N8  UNL     1     159.475   4.345  28.344  1.00  0.00     0.005 N 
HETATM   18  O5  UNL     1     159.278   3.121  28.434  1.00  0.00    -0.511 OA
HETATM   19  O6  UNL     1     158.588   5.201  28.943  1.00  0.00    -0.511 OA
ENDBRANCH  16  17
ENDBRANCH  15  16
ENDBRANCH  12  15
ENDBRANCH   7   9
ENDBRANCH   6   7
BRANCH   1  20
HETATM   20  C3  UNL     1     161.786   7.076  34.055  1.00  0.00     0.190 C 
BRANCH  20  21
HETATM   21  C2  UNL     1     160.566   6.409  34.686  1.00  0.00     0.036 A 
HETATM   22  N2  UNL     1     160.540   5.100  34.857  1.00  0.00    -0.339 N 
HETATM   23  C1  UNL     1     159.462   4.548  35.410  1.00  0.00     0.142 A 
ATOM     24  H2  UNL     1     161.331   4.523  34.571  1.00  0.00     0.168 HD
HETATM   25  S1  UNL     1     158.450   5.871  35.709  1.00  0.00    -0.064 SA
HETATM   26  C19 UNL     1     159.467   7.107  35.101  1.00  0.00     0.080 A 
BRANCH  23  27
HETATM   27  N1  UNL     1     159.236   3.279  35.665  1.00  0.00    -0.380 N 
ATOM     28  H12 UNL     1     158.848   2.571  35.043  1.00  0.00     0.158 HD
ATOM     29  H11 UNL     1     159.404   2.768  36.532  1.00  0.00     0.158 HD
ENDBRANCH  23  27
ENDBRANCH  20  21
ENDBRANCH   1  20
BRANCH   5  30
HETATM   30  O3  UNL     1     160.650   7.420  29.393  1.00  0.00    -0.355 OA
ATOM     31  H3  UNL     1     161.406   7.261  28.840  1.00  0.00     0.218 HD
ENDBRANCH   5  30
BRANCH   2  32
HETATM   32  O1  UNL     1     161.504   9.886  34.211  1.00  0.00    -0.345 OA
ATOM     33  H1  UNL     1     161.075  10.714  34.393  1.00  0.00     0.219 HD
ENDBRANCH   2  32
BRANCH   4  34
HETATM   34  O2  UNL     1     160.385  10.193  29.657  1.00  0.00    -0.357 OA
ATOM     35  H2  UNL     1     159.458  10.350  29.520  1.00  0.00     0.217 HD
ENDBRANCH   4  34
BRANCH   3  36
HETATM   36  C6  UNL     1     160.803  11.453  32.038  1.00  0.00     0.101 C 
HETATM   37  N4  UNL     1     161.793  12.244  31.933  1.00  0.00    -0.397 N 
ATOM     38  H4  UNL     1     162.731  11.874  31.779  1.00  0.00     0.158 HD
BRANCH  37  39
HETATM   39  C7  UNL     1     161.582  13.671  32.034  1.00  0.00     0.125 C 
BRANCH  39  40
HETATM   40  C8  UNL     1     162.606  14.291  32.990  1.00  0.00     0.030 C 
HETATM   41  C9  UNL     1     162.961  15.681  32.539  1.00  0.00     0.035 C 
HETATM   42  C10 UNL     1     164.220  15.531  31.722  1.00  0.00     0.232 C 
HETATM   43  N5  UNL     1     164.466  14.106  31.597  1.00  0.00    -0.075 N 
HETATM   44  C11 UNL     1     163.912  13.546  32.832  1.00  0.00     0.238 C 
ATOM     45  H52 UNL     1     164.095  13.689  30.744  1.00  0.00     0.277 HD
ATOM     46  H51 UNL     1     165.441  13.861  31.425  1.00  0.00     0.277 HD
ENDBRANCH  39  40
ENDBRANCH  37  39
ENDBRANCH   3  36
TORSDOF 14
ENDMDL
MODEL 4
REMARK VINA RESULT: -7.438789733      1.139      1.340
REMARK  14 active torsions:
REMARK  status: ('A' for Active; 'I' for Inactive)
REMARK    1  A    between atoms: N1_1  and  C1_4 
REMARK    2  A    between atoms: C2_7  and  C3_8 
REMARK    3  A    between atoms: C3_8  and  N3_9 
REMARK    4  A    between atoms: C4_10  and  O1_11 
REMARK    5  A    between atoms: C5_13  and  C6_14 
REMARK    6  A    between atoms: N4_15  and  C7_17 
REMARK    7  A    between atoms: C7_17  and  C8_18 
REMARK    8  A    between atoms: C12_25  and  O2_26 
REMARK    9  A    between atoms: C13_28  and  O3_29 
REMARK   10  A    between atoms: C14_31  and  N6_32 
REMARK   11  A    between atoms: N6_32  and  C15_34 
REMARK   12  A    between atoms: C17_38  and  C18_39 
REMARK   13  A    between atoms: C18_39  and  O4_40 
REMARK   14  A    between atoms: O4_40  and  N8_41 
ROOT
HETATM    1  N3  UNL     1     162.691  10.072  33.821  1.00  0.00    -0.305 N 
HETATM    2  C4  UNL     1     163.236  11.165  33.256  1.00  0.00     0.159 A 
HETATM    3  C5  UNL     1     162.492  12.180  32.697  1.00  0.00     0.066 A 
HETATM    4  C12 UNL     1     161.110  12.053  32.725  1.00  0.00     0.118 A 
HETATM    5  C13 UNL     1     160.554  10.932  33.306  1.00  0.00     0.144 A 
HETATM    6  C14 UNL     1     161.324   9.936  33.858  1.00  0.00     0.144 A 
ENDROOT
BRANCH   6   7
HETATM    7  N6  UNL     1     160.822   8.932  34.422  1.00  0.00    -0.346 N 
ATOM      8  H6  UNL     1     160.917   8.954  35.438  1.00  0.00     0.163 HD
BRANCH   7   9
HETATM    9  C15 UNL     1     160.158   7.788  33.955  1.00  0.00     0.248 C 
HETATM   10  C16 UNL     1     160.961   6.508  34.006  1.00  0.00     0.175 C 
HETATM   11  N7  UNL     1     161.637   6.545  32.719  1.00  0.00    -0.368 N 
HETATM   12  C17 UNL     1     161.052   7.327  31.908  1.00  0.00     0.143 C 
ATOM     13  H7  UNL     1     162.475   6.009  32.495  1.00  0.00     0.161 HD
HETATM   14  O7  UNL     1     159.955   7.889  32.528  1.00  0.00    -0.310 OA
BRANCH  12  15
HETATM   15  C18 UNL     1     161.521   7.570  30.504  1.00  0.00     0.291 C 
BRANCH  15  16
HETATM   16  O4  UNL     1     160.435   7.955  29.682  1.00  0.00    -0.213 OA
BRANCH  16  17
HETATM   17  N8  UNL     1     160.090   9.244  29.462  1.00  0.00     0.005 N 
HETATM   18  O5  UNL     1     160.451   9.839  28.431  1.00  0.00    -0.511 OA
HETATM   19  O6  UNL     1     159.330   9.920  30.381  1.00  0.00    -0.511 OA
ENDBRANCH  16  17
ENDBRANCH  15  16
ENDBRANCH  12  15
ENDBRANCH   7   9
ENDBRANCH   6   7
BRANCH   1  20
HETATM   20  C3  UNL     1     163.490   9.049  34.410  1.00  0.00     0.190 C 
BRANCH  20  21
HETATM   21  C2  UNL     1     163.340   9.000  35.929  1.00  0.00     0.036 A 
HETATM   22  N2  UNL     1     163.148   7.844  36.539  1.00  0.00    -0.339 N 
HETATM   23  C1  UNL     1     163.021   7.833  37.864  1.00  0.00     0.142 A 
ATOM     24  H2  UNL     1     163.099   6.977  36.004  1.00  0.00     0.168 HD
HETATM   25  S1  UNL     1     163.172   9.465  38.289  1.00  0.00    -0.064 SA
HETATM   26  C19 UNL     1     163.397  10.113  36.720  1.00  0.00     0.080 A 
BRANCH  23  27
HETATM   27  N1  UNL     1     162.825   6.803  38.655  1.00  0.00    -0.380 N 
ATOM     28  H12 UNL     1     161.965   6.275  38.800  1.00  0.00     0.158 HD
ATOM     29  H11 UNL     1     163.494   6.343  39.272  1.00  0.00     0.158 HD
ENDBRANCH  23  27
ENDBRANCH  20  21
ENDBRANCH   1  20
BRANCH   5  30
HETATM   30  O3  UNL     1     159.160  10.838  33.317  1.00  0.00    -0.355 OA
ATOM     31  H3  UNL     1     158.678  11.545  33.730  1.00  0.00     0.218 HD
ENDBRANCH   5  30
BRANCH   2  32
HETATM   32  O1  UNL     1     164.615  11.348  33.203  1.00  0.00    -0.345 OA
ATOM     33  H1  UNL     1     164.999  12.116  32.798  1.00  0.00     0.219 HD
ENDBRANCH   2  32
BRANCH   4  34
HETATM   34  O2  UNL     1     160.372  13.078  32.158  1.00  0.00    -0.357 OA
ATOM     35  H2  UNL     1     160.648  13.966  32.349  1.00  0.00     0.217 HD
ENDBRANCH   4  34
BRANCH   3  36
HETATM   36  C6  UNL     1     163.081  13.364  32.084  1.00  0.00     0.101 C 
HETATM   37  N4  UNL     1     163.923  14.096  32.696  1.00  0.00    -0.397 N 
ATOM     38  H4  UNL     1     164.208  13.864  33.647  1.00  0.00     0.158 HD
BRANCH  37  39
HETATM   39  C7  UNL     1     164.473  15.258  32.036  1.00  0.00     0.125 C 
BRANCH  39  40
HETATM   40  C8  UNL     1     163.391  15.960  31.208  1.00  0.00     0.030 C 
HETATM   41  C9  UNL     1     163.980  16.495  29.932  1.00  0.00     0.035 C 
HETATM   42  C10 UNL     1     164.316  17.937  30.215  1.00  0.00     0.232 C 
HETATM   43  N5  UNL     1     164.068  18.150  31.629  1.00  0.00    -0.075 N 
HETATM   44  C11 UNL     1     162.981  17.219  31.939  1.00  0.00     0.238 C 
ATOM     45  H52 UNL     1     164.892  18.045  32.221  1.00  0.00     0.277 HD
ATOM     46  H51 UNL     1     163.875  19.120  31.881  1.00  0.00     0.277 HD
ENDBRANCH  39  40
ENDBRANCH  37  39
ENDBRANCH   3  36
TORSDOF 14
ENDMDL
MODEL 5
REMARK VINA RESULT: -7.393641531      1.581      2.081
REMARK  14 active torsions:
REMARK  status: ('A' for Active; 'I' for Inactive)
REMARK    1  A    between atoms: N1_1  and  C1_4 
REMARK    2  A    between atoms: C2_7  and  C3_8 
REMARK    3  A    between atoms: C3_8  and  N3_9 
REMARK    4  A    between atoms: C4_10  and  O1_11 
REMARK    5  A    between atoms: C5_13  and  C6_14 
REMARK    6  A    between atoms: N4_15  and  C7_17 
REMARK    7  A    between atoms: C7_17  and  C8_18 
REMARK    8  A    between atoms: C12_25  and  O2_26 
REMARK    9  A    between atoms: C13_28  and  O3_29 
REMARK   10  A    between atoms: C14_31  and  N6_32 
REMARK   11  A    between atoms: N6_32  and  C15_34 
REMARK   12  A    between atoms: C17_38  and  C18_39 
REMARK   13  A    between atoms: C18_39  and  O4_40 
REMARK   14  A    between atoms: O4_40  and  N8_41 
ROOT
HETATM    1  N3  UNL     1     162.648  10.134  34.428  1.00  0.00    -0.305 N 
HETATM    2  C4  UNL     1     163.253  11.236  33.950  1.00  0.00     0.159 A 
HETATM    3  C5  UNL     1     162.598  12.212  33.232  1.00  0.00     0.066 A 
HETATM    4  C12 UNL     1     161.241  12.032  32.998  1.00  0.00     0.118 A 
HETATM    5  C13 UNL     1     160.622  10.902  33.491  1.00  0.00     0.144 A 
HETATM    6  C14 UNL     1     161.304   9.946  34.205  1.00  0.00     0.144 A 
ENDROOT
BRANCH   6   7
HETATM    7  N6  UNL     1     160.737   8.935  34.689  1.00  0.00    -0.346 N 
ATOM      8  H6  UNL     1     160.809   8.884  35.706  1.00  0.00     0.163 HD
BRANCH   7   9
HETATM    9  C15 UNL     1     160.026   7.862  34.131  1.00  0.00     0.248 C 
HETATM   10  C16 UNL     1     160.745   6.532  34.147  1.00  0.00     0.175 C 
HETATM   11  N7  UNL     1     161.483   6.593  32.894  1.00  0.00    -0.368 N 
HETATM   12  C17 UNL     1     160.986   7.452  32.104  1.00  0.00     0.143 C 
ATOM     13  H7  UNL     1     162.296   6.016  32.678  1.00  0.00     0.161 HD
HETATM   14  O7  UNL     1     159.899   8.050  32.704  1.00  0.00    -0.310 OA
BRANCH  12  15
HETATM   15  C18 UNL     1     161.536   7.737  30.736  1.00  0.00     0.291 C 
BRANCH  15  16
HETATM   16  O4  UNL     1     160.487   8.060  29.843  1.00  0.00    -0.213 OA
BRANCH  16  17
HETATM   17  N8  UNL     1     160.112   9.330  29.565  1.00  0.00     0.005 N 
HETATM   18  O5  UNL     1     159.463  10.004  30.385  1.00  0.00    -0.511 OA
HETATM   19  O6  UNL     1     160.445   9.899  28.363  1.00  0.00    -0.511 OA
ENDBRANCH  16  17
ENDBRANCH  15  16
ENDBRANCH  12  15
ENDBRANCH   7   9
ENDBRANCH   6   7
BRANCH   1  20
HETATM   20  C3  UNL     1     163.353   9.154  35.186  1.00  0.00     0.190 C 
BRANCH  20  21
HETATM   21  C2  UNL     1     164.112   8.172  34.296  1.00  0.00     0.036 A 
HETATM   22  N2  UNL     1     164.452   8.517  33.067  1.00  0.00    -0.339 N 
HETATM   23  C1  UNL     1     165.112   7.639  32.315  1.00  0.00     0.142 A 
ATOM     24  H2  UNL     1     164.212   9.438  32.701  1.00  0.00     0.168 HD
HETATM   25  S1  UNL     1     165.276   6.294  33.330  1.00  0.00    -0.064 SA
HETATM   26  C19 UNL     1     164.474   6.920  34.708  1.00  0.00     0.080 A 
BRANCH  23  27
HETATM   27  N1  UNL     1     165.538   7.780  31.081  1.00  0.00    -0.380 N 
ATOM     28  H12 UNL     1     165.415   7.142  30.295  1.00  0.00     0.158 HD
ATOM     29  H11 UNL     1     166.071   8.552  30.680  1.00  0.00     0.158 HD
ENDBRANCH  23  27
ENDBRANCH  20  21
ENDBRANCH   1  20
BRANCH   5  30
HETATM   30  O3  UNL     1     159.256  10.755  33.237  1.00  0.00    -0.355 OA
ATOM     31  H3  UNL     1     158.688  11.483  33.461  1.00  0.00     0.218 HD
ENDBRANCH   5  30
BRANCH   2  32
HETATM   32  O1  UNL     1     164.610  11.470  34.157  1.00  0.00    -0.345 OA
ATOM     33  H1  UNL     1     165.236  11.425  33.444  1.00  0.00     0.219 HD
ENDBRANCH   2  32
BRANCH   4  34
HETATM   34  O2  UNL     1     160.591  13.017  32.274  1.00  0.00    -0.357 OA
ATOM     35  H2  UNL     1     159.734  13.286  32.583  1.00  0.00     0.217 HD
ENDBRANCH   4  34
BRANCH   3  36
HETATM   36  C6  UNL     1     163.253  13.405  32.712  1.00  0.00     0.101 C 
HETATM   37  N4  UNL     1     162.926  14.575  33.089  1.00  0.00    -0.397 N 
ATOM     38  H4  UNL     1     162.183  14.704  33.775  1.00  0.00     0.158 HD
BRANCH  37  39
HETATM   39  C7  UNL     1     163.612  15.722  32.538  1.00  0.00     0.125 C 
BRANCH  39  40
HETATM   40  C8  UNL     1     163.862  15.521  31.039  1.00  0.00     0.030 C 
HETATM   41  C9  UNL     1     164.995  16.397  30.580  1.00  0.00     0.035 C 
HETATM   42  C10 UNL     1     164.346  17.641  30.029  1.00  0.00     0.232 C 
HETATM   43  N5  UNL     1     162.927  17.528  30.310  1.00  0.00    -0.075 N 
HETATM   44  C11 UNL     1     162.679  16.084  30.285  1.00  0.00     0.238 C 
ATOM     45  H52 UNL     1     162.630  17.990  31.170  1.00  0.00     0.277 HD
ATOM     46  H51 UNL     1     162.330  18.068  29.684  1.00  0.00     0.277 HD
ENDBRANCH  39  40
ENDBRANCH  37  39
ENDBRANCH   3  36
TORSDOF 14
ENDMDL
