MODEL 1
REMARK VINA RESULT: -7.902628730      0.000      0.000
REMARK  11 active torsions:
REMARK  status: ('A' for Active; 'I' for Inactive)
REMARK       I    between atoms: C1_4  and  N3_6 
REMARK    1  A    between atoms: N3_6  and  C2_8 
REMARK    2  A    between atoms: C2_8  and  C3_9 
REMARK    3  A    between atoms: C3_9  and  C4_10 
REMARK    4  A    between atoms: C4_10  and  C5_11 
REMARK    5  A    between atoms: C5_11  and  C6_12 
REMARK    6  A    between atoms: C6_12  and  O1_13 
REMARK    7  A    between atoms: O1_13  and  C7_14 
REMARK       I    between atoms: C7_14  and  N4_16 
REMARK    8  A    between atoms: C11_21  and  C12_22 
REMARK    9  A    between atoms: C12_22  and  C13_23 
REMARK   10  A    between atoms: C13_23  and  C14_24 
REMARK   11  A    between atoms: C14_24  and  N5_25 
REMARK       I    between atoms: N5_25  and  C15_27 
ROOT
HETATM    1  O1  UNL     1      26.267  40.234  34.741  1.00  0.00    -0.265 OA
ENDROOT
BRANCH   1   2
HETATM    2  C6  UNL     1      25.920  39.506  33.590  1.00  0.00     0.065 C 
HETATM    3  C16 UNL     1      26.406  38.278  33.493  1.00  0.00    -0.025 A 
HETATM    4  C17 UNL     1      27.255  37.766  34.560  1.00  0.00     0.010 A 
HETATM    5  C21 UNL     1      26.045  37.440  32.315  1.00  0.00     0.068 A 
HETATM    6  C18 UNL     1      27.721  36.537  34.502  1.00  0.00     0.000 A 
HETATM    7  C19 UNL     1      27.395  35.687  33.383  1.00  0.00    -0.004 A 
HETATM    8  C20 UNL     1      26.641  36.101  32.406  1.00  0.00    -0.022 A 
BRANCH   2   9
HETATM    9  C5  UNL     1      25.043  40.129  32.553  1.00  0.00     0.066 C 
BRANCH   9  10
HETATM   10  C4  UNL     1      25.733  41.069  31.643  1.00  0.00     0.008 C 
BRANCH  10  11
HETATM   11  C3  UNL     1      26.335  40.565  30.397  1.00  0.00     0.020 C 
BRANCH  11  12
HETATM   12  C2  UNL     1      27.811  40.380  30.368  1.00  0.00     0.122 C 
BRANCH  12  13
HETATM   13  N3  UNL     1      28.442  41.686  30.619  1.00  0.00    -0.365 N 
HETATM   14  C1  UNL     1      28.488  42.639  29.564  1.00  0.00     0.181 C 
HETATM   15  N1  UNL     1      28.189  43.882  29.747  1.00  0.00    -0.374 N 
HETATM   16  N2  UNL     1      28.875  42.214  28.262  1.00  0.00    -0.064 NA
ATOM     17  H12 UNL     1      28.222  44.565  28.992  1.00  0.00     0.158 HD
ATOM     18  H11 UNL     1      27.912  44.186  30.680  1.00  0.00     0.158 HD
ATOM     19  H3  UNL     1      28.840  41.903  31.533  1.00  0.00     0.162 HD
ENDBRANCH  12  13
ENDBRANCH  11  12
ENDBRANCH  10  11
ENDBRANCH   9  10
ENDBRANCH   2   9
ENDBRANCH   1   2
BRANCH   1  20
HETATM   20  C7  UNL     1      27.474  40.913  34.773  1.00  0.00     0.374 C 
HETATM   21  O2  UNL     1      27.857  41.444  33.684  1.00  0.00    -0.237 OA
HETATM   22  N4  UNL     1      28.267  41.031  35.927  1.00  0.00    -0.259 N 
HETATM   23  C8  UNL     1      28.046  40.537  37.230  1.00  0.00     0.228 C 
HETATM   24  C11 UNL     1      29.582  41.757  35.977  1.00  0.00     0.098 C 
HETATM   25  O3  UNL     1      26.982  40.003  37.666  1.00  0.00    -0.273 OA
HETATM   26  C9  UNL     1      29.272  40.743  38.025  1.00  0.00     0.105 C 
HETATM   27  C10 UNL     1      30.335  40.887  36.957  1.00  0.00     0.035 C 
BRANCH  24  28
HETATM   28  C12 UNL     1      29.336  43.125  36.514  1.00  0.00     0.028 C 
BRANCH  28  29
HETATM   29  C13 UNL     1      30.351  44.159  36.431  1.00  0.00     0.022 C 
BRANCH  29  30
HETATM   30  C14 UNL     1      30.368  45.213  35.405  1.00  0.00     0.122 C 
BRANCH  30  31
HETATM   31  N5  UNL     1      30.917  44.834  34.144  1.00  0.00    -0.365 N 
HETATM   32  C15 UNL     1      30.086  44.484  33.069  1.00  0.00     0.181 C 
HETATM   33  N6  UNL     1      28.982  45.093  32.880  1.00  0.00    -0.374 N 
HETATM   34  N7  UNL     1      30.481  43.449  32.192  1.00  0.00    -0.064 NA
ATOM     35  H62 UNL     1      28.697  45.840  33.513  1.00  0.00     0.158 HD
ATOM     36  H61 UNL     1      28.379  44.838  32.098  1.00  0.00     0.158 HD
ATOM     37  H5  UNL     1      31.929  44.817  34.022  1.00  0.00     0.162 HD
ENDBRANCH  30  31
ENDBRANCH  29  30
ENDBRANCH  28  29
ENDBRANCH  24  28
ENDBRANCH   1  20
TORSDOF 11
ENDMDL
MODEL 2
REMARK VINA RESULT: -7.703262799      3.737      6.738
REMARK  11 active torsions:
REMARK  status: ('A' for Active; 'I' for Inactive)
REMARK       I    between atoms: C1_4  and  N3_6 
REMARK    1  A    between atoms: N3_6  and  C2_8 
REMARK    2  A    between atoms: C2_8  and  C3_9 
REMARK    3  A    between atoms: C3_9  and  C4_10 
REMARK    4  A    between atoms: C4_10  and  C5_11 
REMARK    5  A    between atoms: C5_11  and  C6_12 
REMARK    6  A    between atoms: C6_12  and  O1_13 
REMARK    7  A    between atoms: O1_13  and  C7_14 
REMARK       I    between atoms: C7_14  and  N4_16 
REMARK    8  A    between atoms: C11_21  and  C12_22 
REMARK    9  A    between atoms: C12_22  and  C13_23 
REMARK   10  A    between atoms: C13_23  and  C14_24 
REMARK   11  A    between atoms: C14_24  and  N5_25 
REMARK       I    between atoms: N5_25  and  C15_27 
ROOT
HETATM    1  O1  UNL     1      29.598  44.546  32.718  1.00  0.00    -0.265 OA
ENDROOT
BRANCH   1   2
HETATM    2  C6  UNL     1      28.907  43.324  32.780  1.00  0.00     0.065 C 
HETATM    3  C16 UNL     1      28.568  42.773  31.625  1.00  0.00    -0.025 A 
HETATM    4  C17 UNL     1      28.920  43.451  30.386  1.00  0.00     0.010 A 
HETATM    5  C21 UNL     1      27.866  41.458  31.621  1.00  0.00     0.068 A 
HETATM    6  C18 UNL     1      28.623  42.905  29.225  1.00  0.00     0.000 A 
HETATM    7  C19 UNL     1      27.948  41.632  29.172  1.00  0.00    -0.004 A 
HETATM    8  C20 UNL     1      27.613  40.988  30.253  1.00  0.00    -0.022 A 
BRANCH   2   9
HETATM    9  C5  UNL     1      28.593  42.715  34.108  1.00  0.00     0.066 C 
BRANCH   9  10
HETATM   10  C4  UNL     1      29.764  42.512  34.988  1.00  0.00     0.008 C 
BRANCH  10  11
HETATM   11  C3  UNL     1      29.609  42.642  36.446  1.00  0.00     0.020 C 
BRANCH  11  12
HETATM   12  C2  UNL     1      28.709  41.677  37.134  1.00  0.00     0.122 C 
BRANCH  12  13
HETATM   13  N3  UNL     1      29.545  40.721  37.878  1.00  0.00    -0.365 N 
HETATM   14  C1  UNL     1      29.966  39.528  37.229  1.00  0.00     0.181 C 
HETATM   15  N1  UNL     1      31.182  39.098  37.301  1.00  0.00    -0.374 N 
HETATM   16  N2  UNL     1      29.020  38.779  36.474  1.00  0.00    -0.064 NA
ATOM     17  H12 UNL     1      31.483  38.243  36.835  1.00  0.00     0.158 HD
ATOM     18  H11 UNL     1      31.859  39.634  37.842  1.00  0.00     0.158 HD
ATOM     19  H3  UNL     1      29.818  40.911  38.843  1.00  0.00     0.162 HD
ENDBRANCH  12  13
ENDBRANCH  11  12
ENDBRANCH  10  11
ENDBRANCH   9  10
ENDBRANCH   2   9
ENDBRANCH   1   2
BRANCH   1  20
HETATM   20  C7  UNL     1      30.780  44.691  33.427  1.00  0.00     0.374 C 
HETATM   21  O2  UNL     1      31.738  43.926  33.095  1.00  0.00    -0.237 OA
HETATM   22  N4  UNL     1      30.952  45.621  34.465  1.00  0.00    -0.259 N 
HETATM   23  C8  UNL     1      30.046  46.564  34.995  1.00  0.00     0.228 C 
HETATM   24  C11 UNL     1      32.225  45.787  35.248  1.00  0.00     0.098 C 
HETATM   25  O3  UNL     1      28.911  46.870  34.521  1.00  0.00    -0.273 OA
HETATM   26  C9  UNL     1      30.637  47.151  36.213  1.00  0.00     0.105 C 
HETATM   27  C10 UNL     1      31.664  46.114  36.612  1.00  0.00     0.035 C 
BRANCH  24  28
HETATM   28  C12 UNL     1      32.984  46.928  34.663  1.00  0.00     0.028 C 
BRANCH  28  29
HETATM   29  C13 UNL     1      34.435  46.929  34.634  1.00  0.00     0.022 C 
BRANCH  29  30
HETATM   30  C14 UNL     1      35.279  46.907  35.839  1.00  0.00     0.122 C 
BRANCH  30  31
HETATM   31  N5  UNL     1      36.182  45.807  35.936  1.00  0.00    -0.365 N 
HETATM   32  C15 UNL     1      37.409  45.935  36.604  1.00  0.00     0.181 C 
HETATM   33  N6  UNL     1      37.501  46.647  37.658  1.00  0.00    -0.374 N 
HETATM   34  N7  UNL     1      38.549  45.268  36.102  1.00  0.00    -0.064 NA
ATOM     35  H62 UNL     1      36.677  47.129  38.020  1.00  0.00     0.158 HD
ATOM     36  H61 UNL     1      38.393  46.740  38.144  1.00  0.00     0.158 HD
ATOM     37  H5  UNL     1      35.932  44.913  35.513  1.00  0.00     0.162 HD
ENDBRANCH  30  31
ENDBRANCH  29  30
ENDBRANCH  28  29
ENDBRANCH  24  28
ENDBRANCH   1  20
TORSDOF 11
ENDMDL
MODEL 3
REMARK VINA RESULT: -7.617073193      3.749      6.777
REMARK  11 active torsions:
REMARK  status: ('A' for Active; 'I' for Inactive)
REMARK       I    between atoms: C1_4  and  N3_6 
REMARK    1  A    between atoms: N3_6  and  C2_8 
REMARK    2  A    between atoms: C2_8  and  C3_9 
REMARK    3  A    between atoms: C3_9  and  C4_10 
REMARK    4  A    between atoms: C4_10  and  C5_11 
REMARK    5  A    between atoms: C5_11  and  C6_12 
REMARK    6  A    between atoms: C6_12  and  O1_13 
REMARK    7  A    between atoms: O1_13  and  C7_14 
REMARK       I    between atoms: C7_14  and  N4_16 
REMARK    8  A    between atoms: C11_21  and  C12_22 
REMARK    9  A    between atoms: C12_22  and  C13_23 
REMARK   10  A    between atoms: C13_23  and  C14_24 
REMARK   11  A    between atoms: C14_24  and  N5_25 
REMARK       I    between atoms: N5_25  and  C15_27 
ROOT
HETATM    1  O1  UNL     1      29.419  43.556  33.858  1.00  0.00    -0.265 OA
ENDROOT
BRANCH   1   2
HETATM    2  C6  UNL     1      28.839  42.507  34.591  1.00  0.00     0.065 C 
HETATM    3  C16 UNL     1      28.011  41.709  33.935  1.00  0.00    -0.025 A 
HETATM    4  C17 UNL     1      27.754  41.961  32.524  1.00  0.00     0.010 A 
HETATM    5  C21 UNL     1      27.391  40.555  34.645  1.00  0.00     0.068 A 
HETATM    6  C18 UNL     1      26.962  41.160  31.842  1.00  0.00     0.000 A 
HETATM    7  C19 UNL     1      26.343  40.028  32.487  1.00  0.00    -0.004 A 
HETATM    8  C20 UNL     1      26.542  39.763  33.746  1.00  0.00    -0.022 A 
BRANCH   2   9
HETATM    9  C5  UNL     1      29.169  42.340  36.039  1.00  0.00     0.066 C 
BRANCH   9  10
HETATM   10  C4  UNL     1      30.272  41.394  36.316  1.00  0.00     0.008 C 
BRANCH  10  11
HETATM   11  C3  UNL     1      29.978  40.107  36.968  1.00  0.00     0.020 C 
BRANCH  11  12
HETATM   12  C2  UNL     1      30.882  39.665  38.065  1.00  0.00     0.122 C 
BRANCH  12  13
HETATM   13  N3  UNL     1      31.929  38.812  37.479  1.00  0.00    -0.365 N 
HETATM   14  C1  UNL     1      32.947  38.296  38.327  1.00  0.00     0.181 C 
HETATM   15  N1  UNL     1      33.328  37.064  38.273  1.00  0.00    -0.374 N 
HETATM   16  N2  UNL     1      33.572  39.164  39.266  1.00  0.00    -0.064 NA
ATOM     17  H12 UNL     1      34.058  36.694  38.881  1.00  0.00     0.158 HD
ATOM     18  H11 UNL     1      32.881  36.442  37.600  1.00  0.00     0.158 HD
ATOM     19  H3  UNL     1      31.924  38.595  36.482  1.00  0.00     0.162 HD
ENDBRANCH  12  13
ENDBRANCH  11  12
ENDBRANCH  10  11
ENDBRANCH   9  10
ENDBRANCH   2   9
ENDBRANCH   1   2
BRANCH   1  20
HETATM   20  C7  UNL     1      30.658  44.044  34.242  1.00  0.00     0.374 C 
HETATM   21  O2  UNL     1      31.673  43.381  33.859  1.00  0.00    -0.237 OA
HETATM   22  N4  UNL     1      30.830  45.205  35.014  1.00  0.00    -0.259 N 
HETATM   23  C8  UNL     1      29.866  46.092  35.540  1.00  0.00     0.228 C 
HETATM   24  C11 UNL     1      32.166  45.744  35.444  1.00  0.00     0.098 C 
HETATM   25  O3  UNL     1      28.625  46.099  35.281  1.00  0.00    -0.273 OA
HETATM   26  C9  UNL     1      30.542  47.030  36.456  1.00  0.00     0.105 C 
HETATM   27  C10 UNL     1      31.812  46.287  36.808  1.00  0.00     0.035 C 
BRANCH  24  28
HETATM   28  C12 UNL     1      32.559  46.821  34.493  1.00  0.00     0.028 C 
BRANCH  28  29
HETATM   29  C13 UNL     1      33.953  47.157  34.272  1.00  0.00     0.022 C 
BRANCH  29  30
HETATM   30  C14 UNL     1      34.753  47.983  35.190  1.00  0.00     0.122 C 
BRANCH  30  31
HETATM   31  N5  UNL     1      35.264  47.308  36.338  1.00  0.00    -0.365 N 
HETATM   32  C15 UNL     1      35.462  47.988  37.549  1.00  0.00     0.181 C 
HETATM   33  N6  UNL     1      34.646  48.893  37.923  1.00  0.00    -0.374 N 
HETATM   34  N7  UNL     1      36.575  47.663  38.356  1.00  0.00    -0.064 NA
ATOM     35  H62 UNL     1      33.843  49.128  37.340  1.00  0.00     0.158 HD
ATOM     36  H61 UNL     1      34.790  49.388  38.804  1.00  0.00     0.158 HD
ATOM     37  H5  UNL     1      35.488  46.315  36.278  1.00  0.00     0.162 HD
ENDBRANCH  30  31
ENDBRANCH  29  30
ENDBRANCH  28  29
ENDBRANCH  24  28
ENDBRANCH   1  20
TORSDOF 11
ENDMDL
MODEL 4
REMARK VINA RESULT: -7.534723911      1.303      1.702
REMARK  11 active torsions:
REMARK  status: ('A' for Active; 'I' for Inactive)
REMARK       I    between atoms: C1_4  and  N3_6 
REMARK    1  A    between atoms: N3_6  and  C2_8 
REMARK    2  A    between atoms: C2_8  and  C3_9 
REMARK    3  A    between atoms: C3_9  and  C4_10 
REMARK    4  A    between atoms: C4_10  and  C5_11 
REMARK    5  A    between atoms: C5_11  and  C6_12 
REMARK    6  A    between atoms: C6_12  and  O1_13 
REMARK    7  A    between atoms: O1_13  and  C7_14 
REMARK       I    between atoms: C7_14  and  N4_16 
REMARK    8  A    between atoms: C11_21  and  C12_22 
REMARK    9  A    between atoms: C12_22  and  C13_23 
REMARK   10  A    between atoms: C13_23  and  C14_24 
REMARK   11  A    between atoms: C14_24  and  N5_25 
REMARK       I    between atoms: N5_25  and  C15_27 
ROOT
HETATM    1  O1  UNL     1      26.323  40.141  35.377  1.00  0.00    -0.265 OA
ENDROOT
BRANCH   1   2
HETATM    2  C6  UNL     1      25.939  39.254  34.357  1.00  0.00     0.065 C 
HETATM    3  C16 UNL     1      26.383  38.010  34.452  1.00  0.00    -0.025 A 
HETATM    4  C17 UNL     1      27.225  37.642  35.581  1.00  0.00     0.010 A 
HETATM    5  C21 UNL     1      25.981  37.010  33.422  1.00  0.00     0.068 A 
HETATM    6  C18 UNL     1      27.649  36.403  35.714  1.00  0.00     0.000 A 
HETATM    7  C19 UNL     1      27.283  35.400  34.745  1.00  0.00    -0.004 A 
HETATM    8  C20 UNL     1      26.532  35.681  33.719  1.00  0.00    -0.022 A 
BRANCH   2   9
HETATM    9  C5  UNL     1      25.072  39.736  33.240  1.00  0.00     0.066 C 
BRANCH   9  10
HETATM   10  C4  UNL     1      25.806  40.188  32.038  1.00  0.00     0.008 C 
BRANCH  10  11
HETATM   11  C3  UNL     1      25.574  41.544  31.511  1.00  0.00     0.020 C 
BRANCH  11  12
HETATM   12  C2  UNL     1      26.705  42.222  30.823  1.00  0.00     0.122 C 
BRANCH  12  13
HETATM   13  N3  UNL     1      27.412  43.052  31.813  1.00  0.00    -0.365 N 
HETATM   14  C1  UNL     1      28.742  43.468  31.534  1.00  0.00     0.181 C 
HETATM   15  N1  UNL     1      29.139  44.681  31.730  1.00  0.00    -0.374 N 
HETATM   16  N2  UNL     1      29.673  42.520  31.023  1.00  0.00    -0.064 NA
ATOM     17  H12 UNL     1      30.093  44.980  31.530  1.00  0.00     0.158 HD
ATOM     18  H11 UNL     1      28.473  45.361  32.097  1.00  0.00     0.158 HD
ATOM     19  H3  UNL     1      26.954  43.324  32.683  1.00  0.00     0.162 HD
ENDBRANCH  12  13
ENDBRANCH  11  12
ENDBRANCH  10  11
ENDBRANCH   9  10
ENDBRANCH   2   9
ENDBRANCH   1   2
BRANCH   1  20
HETATM   20  C7  UNL     1      27.537  40.801  35.278  1.00  0.00     0.374 C 
HETATM   21  O2  UNL     1      27.820  41.302  34.145  1.00  0.00    -0.237 OA
HETATM   22  N4  UNL     1      28.439  40.930  36.347  1.00  0.00    -0.259 N 
HETATM   23  C8  UNL     1      28.338  40.466  37.676  1.00  0.00     0.228 C 
HETATM   24  C11 UNL     1      29.763  41.636  36.255  1.00  0.00     0.098 C 
HETATM   25  O3  UNL     1      27.314  39.959  38.224  1.00  0.00    -0.273 OA
HETATM   26  C9  UNL     1      29.638  40.669  38.344  1.00  0.00     0.105 C 
HETATM   27  C10 UNL     1      30.594  40.775  37.176  1.00  0.00     0.035 C 
BRANCH  24  28
HETATM   28  C12 UNL     1      29.589  43.018  36.781  1.00  0.00     0.028 C 
BRANCH  28  29
HETATM   29  C13 UNL     1      29.779  44.177  35.928  1.00  0.00     0.022 C 
BRANCH  29  30
HETATM   30  C14 UNL     1      30.841  44.285  34.917  1.00  0.00     0.122 C 
BRANCH  30  31
HETATM   31  N5  UNL     1      31.880  45.218  35.214  1.00  0.00    -0.365 N 
HETATM   32  C15 UNL     1      32.326  46.134  34.250  1.00  0.00     0.181 C 
HETATM   33  N6  UNL     1      31.504  46.667  33.434  1.00  0.00    -0.374 N 
HETATM   34  N7  UNL     1      33.698  46.465  34.187  1.00  0.00    -0.064 NA
ATOM     35  H62 UNL     1      30.513  46.428  33.480  1.00  0.00     0.158 HD
ATOM     36  H61 UNL     1      31.829  47.334  32.734  1.00  0.00     0.158 HD
ATOM     37  H5  UNL     1      32.304  45.218  36.141  1.00  0.00     0.162 HD
ENDBRANCH  30  31
ENDBRANCH  29  30
ENDBRANCH  28  29
ENDBRANCH  24  28
ENDBRANCH   1  20
TORSDOF 11
ENDMDL
MODEL 5
REMARK VINA RESULT: -7.434119462      3.677      6.821
REMARK  11 active torsions:
REMARK  status: ('A' for Active; 'I' for Inactive)
REMARK       I    between atoms: C1_4  and  N3_6 
REMARK    1  A    between atoms: N3_6  and  C2_8 
REMARK    2  A    between atoms: C2_8  and  C3_9 
REMARK    3  A    between atoms: C3_9  and  C4_10 
REMARK    4  A    between atoms: C4_10  and  C5_11 
REMARK    5  A    between atoms: C5_11  and  C6_12 
REMARK    6  A    between atoms: C6_12  and  O1_13 
REMARK    7  A    between atoms: O1_13  and  C7_14 
REMARK       I    between atoms: C7_14  and  N4_16 
REMARK    8  A    between atoms: C11_21  and  C12_22 
REMARK    9  A    between atoms: C12_22  and  C13_23 
REMARK   10  A    between atoms: C13_23  and  C14_24 
REMARK   11  A    between atoms: C14_24  and  N5_25 
REMARK       I    between atoms: N5_25  and  C15_27 
ROOT
HETATM    1  O1  UNL     1      29.868  44.521  32.661  1.00  0.00    -0.265 OA
ENDROOT
BRANCH   1   2
HETATM    2  C6  UNL     1      28.984  43.440  32.823  1.00  0.00     0.065 C 
HETATM    3  C16 UNL     1      28.550  42.855  31.717  1.00  0.00    -0.025 A 
HETATM    4  C17 UNL     1      29.000  43.356  30.427  1.00  0.00     0.010 A 
HETATM    5  C21 UNL     1      27.640  41.680  31.822  1.00  0.00     0.068 A 
HETATM    6  C18 UNL     1      28.609  42.769  29.316  1.00  0.00     0.000 A 
HETATM    7  C19 UNL     1      27.731  41.625  29.367  1.00  0.00    -0.004 A 
HETATM    8  C20 UNL     1      27.302  41.142  30.498  1.00  0.00    -0.022 A 
BRANCH   2   9
HETATM    9  C5  UNL     1      28.583  43.009  34.196  1.00  0.00     0.066 C 
BRANCH   9  10
HETATM   10  C4  UNL     1      29.658  42.362  34.979  1.00  0.00     0.008 C 
BRANCH  10  11
HETATM   11  C3  UNL     1      29.771  42.633  36.422  1.00  0.00     0.020 C 
BRANCH  11  12
HETATM   12  C2  UNL     1      29.226  41.616  37.362  1.00  0.00     0.122 C 
BRANCH  12  13
HETATM   13  N3  UNL     1      28.927  40.397  36.594  1.00  0.00    -0.365 N 
HETATM   14  C1  UNL     1      29.540  39.174  36.983  1.00  0.00     0.181 C 
HETATM   15  N1  UNL     1      28.878  38.069  37.068  1.00  0.00    -0.374 N 
HETATM   16  N2  UNL     1      30.930  39.162  37.290  1.00  0.00    -0.064 NA
ATOM     17  H12 UNL     1      29.317  37.192  37.347  1.00  0.00     0.158 HD
ATOM     18  H11 UNL     1      27.882  38.077  36.848  1.00  0.00     0.158 HD
ATOM     19  H3  UNL     1      28.292  40.428  35.796  1.00  0.00     0.162 HD
ENDBRANCH  12  13
ENDBRANCH  11  12
ENDBRANCH  10  11
ENDBRANCH   9  10
ENDBRANCH   2   9
ENDBRANCH   1   2
BRANCH   1  20
HETATM   20  C7  UNL     1      30.940  44.654  33.528  1.00  0.00     0.374 C 
HETATM   21  O2  UNL     1      31.936  43.892  33.319  1.00  0.00    -0.237 OA
HETATM   22  N4  UNL     1      30.967  45.567  34.595  1.00  0.00    -0.259 N 
HETATM   23  C8  UNL     1      29.995  46.502  35.009  1.00  0.00     0.228 C 
HETATM   24  C11 UNL     1      32.120  45.719  35.548  1.00  0.00     0.098 C 
HETATM   25  O3  UNL     1      28.937  46.818  34.387  1.00  0.00    -0.273 OA
HETATM   26  C9  UNL     1      30.412  47.070  36.305  1.00  0.00     0.105 C 
HETATM   27  C10 UNL     1      31.375  46.025  36.826  1.00  0.00     0.035 C 
BRANCH  24  28
HETATM   28  C12 UNL     1      32.951  46.867  35.091  1.00  0.00     0.028 C 
BRANCH  28  29
HETATM   29  C13 UNL     1      34.401  46.805  35.123  1.00  0.00     0.022 C 
BRANCH  29  30
HETATM   30  C14 UNL     1      35.201  46.944  36.350  1.00  0.00     0.122 C 
BRANCH  30  31
HETATM   31  N5  UNL     1      35.675  48.261  36.629  1.00  0.00    -0.365 N 
HETATM   32  C15 UNL     1      36.102  48.618  37.916  1.00  0.00     0.181 C 
HETATM   33  N6  UNL     1      36.734  47.782  38.643  1.00  0.00    -0.374 N 
HETATM   34  N7  UNL     1      35.829  49.915  38.406  1.00  0.00    -0.064 NA
ATOM     35  H62 UNL     1      36.930  46.846  38.289  1.00  0.00     0.158 HD
ATOM     36  H61 UNL     1      37.045  48.042  39.579  1.00  0.00     0.158 HD
ATOM     37  H5  UNL     1      35.703  48.953  35.881  1.00  0.00     0.162 HD
ENDBRANCH  30  31
ENDBRANCH  29  30
ENDBRANCH  28  29
ENDBRANCH  24  28
ENDBRANCH   1  20
TORSDOF 11
ENDMDL
