MODEL 1
REMARK VINA RESULT: -7.900773591      0.000      0.000
REMARK  12 active torsions:
REMARK  status: ('A' for Active; 'I' for Inactive)
REMARK    1  A    between atoms: C2_2  and  C3_3 
REMARK    2  A    between atoms: C8_10  and  C9_11 
REMARK    3  A    between atoms: C9_11  and  C10_12 
REMARK    4  A    between atoms: C10_12  and  C11_13 
REMARK    5  A    between atoms: N2_16  and  C14_17 
REMARK    6  A    between atoms: C14_17  and  C15_18 
REMARK    7  A    between atoms: C15_18  and  N3_19 
REMARK    8  A    between atoms: N3_19  and  C16_21 
REMARK    9  A    between atoms: C19_26  and  N5_27 
REMARK   10  A    between atoms: N5_27  and  C20_29 
REMARK   11  A    between atoms: C20_29  and  C21_30 
REMARK   12  A    between atoms: C21_30  and  N6_31 
ROOT
HETATM    1  C15 UNL     1      29.107  43.045  31.271  1.00  0.00     0.182 C 
ENDROOT
BRANCH   1   2
HETATM    2  C14 UNL     1      27.828  42.527  30.714  1.00  0.00     0.078 C 
BRANCH   2   3
HETATM    3  N2  UNL     1      27.791  42.068  29.401  1.00  0.00    -0.391 N 
HETATM    4  C13 UNL     1      26.851  41.073  29.081  1.00  0.00     0.122 C 
HETATM    5  C12 UNL     1      26.970  40.901  27.543  1.00  0.00     0.026 C 
HETATM    6  C11 UNL     1      27.401  42.276  27.079  1.00  0.00     0.005 C 
HETATM    7  C22 UNL     1      27.893  42.991  28.327  1.00  0.00     0.126 C 
BRANCH   6   8
HETATM    8  C10 UNL     1      28.633  42.144  26.159  1.00  0.00     0.011 C 
BRANCH   8   9
HETATM    9  C9  UNL     1      28.468  41.032  25.200  1.00  0.00     0.041 C 
BRANCH   9  10
HETATM   10  C8  UNL     1      29.642  40.285  24.781  1.00  0.00    -0.028 A 
HETATM   11  C3  UNL     1      30.272  39.243  25.361  1.00  0.00    -0.028 A 
HETATM   12  C4  UNL     1      31.361  38.922  24.530  1.00  0.00     0.012 A 
HETATM   13  C5  UNL     1      32.358  37.829  24.758  1.00  0.00     0.068 C 
HETATM   14  N1  UNL     1      31.342  39.770  23.501  1.00  0.00    -0.363 N 
HETATM   15  C6  UNL     1      30.322  40.616  23.603  1.00  0.00     0.012 A 
ATOM     16  H1  UNL     1      32.019  39.769  22.738  1.00  0.00     0.165 HD
HETATM   17  C7  UNL     1      29.952  41.726  22.643  1.00  0.00     0.068 C 
BRANCH  11  18
HETATM   18  C2  UNL     1      30.037  38.478  26.595  1.00  0.00     0.036 C 
HETATM   19  C1  UNL     1      28.910  37.499  26.316  1.00  0.00     0.010 C 
ENDBRANCH  11  18
ENDBRANCH   9  10
ENDBRANCH   8   9
ENDBRANCH   6   8
ENDBRANCH   2   3
ENDBRANCH   1   2
BRANCH   1  20
HETATM   20  N3  UNL     1      29.076  44.321  31.887  1.00  0.00    -0.221 N 
ATOM     21  H3  UNL     1      28.691  45.087  31.335  1.00  0.00     0.178 HD
BRANCH  20  22
HETATM   22  C16 UNL     1      29.481  44.607  33.063  1.00  0.00     0.679 A 
HETATM   23  N4  UNL     1      29.993  45.821  33.337  1.00  0.00    -0.202 N 
HETATM   24  C17 UNL     1      30.437  46.179  34.562  1.00  0.00     0.110 A 
ATOM     25  H4  UNL     1      30.048  46.505  32.582  1.00  0.00     0.183 HD
HETATM   26  C18 UNL     1      30.370  45.273  35.585  1.00  0.00     0.066 A 
HETATM   27  C19 UNL     1      29.851  44.034  35.312  1.00  0.00     0.118 A 
HETATM   28  N7  UNL     1      29.418  43.713  34.083  1.00  0.00    -0.177 N 
ATOM     29  H7  UNL     1      29.037  42.783  33.912  1.00  0.00     0.185 HD
BRANCH  27  30
HETATM   30  N5  UNL     1      29.772  43.161  36.241  1.00  0.00    -0.374 N 
ATOM     31  H5  UNL     1      29.704  43.451  37.217  1.00  0.00     0.161 HD
BRANCH  30  32
HETATM   32  C20 UNL     1      29.778  41.758  35.896  1.00  0.00     0.148 C 
BRANCH  32  33
HETATM   33  C21 UNL     1      29.945  40.996  37.214  1.00  0.00     0.249 C 
BRANCH  33  34
HETATM   34  N6  UNL     1      29.240  41.798  38.216  1.00  0.00    -0.078 N 
ATOM     35  H63 UNL     1      28.717  41.243  38.893  1.00  0.00     0.274 HD
ATOM     36  H62 UNL     1      29.859  42.253  38.888  1.00  0.00     0.274 HD
ATOM     37  H61 UNL     1      28.662  42.448  37.683  1.00  0.00     0.274 HD
ENDBRANCH  33  34
ENDBRANCH  32  33
ENDBRANCH  30  32
ENDBRANCH  27  30
ENDBRANCH  20  22
ENDBRANCH   1  20
TORSDOF 12
ENDMDL
MODEL 2
REMARK VINA RESULT: -7.818269521      1.430      2.371
REMARK  12 active torsions:
REMARK  status: ('A' for Active; 'I' for Inactive)
REMARK    1  A    between atoms: C2_2  and  C3_3 
REMARK    2  A    between atoms: C8_10  and  C9_11 
REMARK    3  A    between atoms: C9_11  and  C10_12 
REMARK    4  A    between atoms: C10_12  and  C11_13 
REMARK    5  A    between atoms: N2_16  and  C14_17 
REMARK    6  A    between atoms: C14_17  and  C15_18 
REMARK    7  A    between atoms: C15_18  and  N3_19 
REMARK    8  A    between atoms: N3_19  and  C16_21 
REMARK    9  A    between atoms: C19_26  and  N5_27 
REMARK   10  A    between atoms: N5_27  and  C20_29 
REMARK   11  A    between atoms: C20_29  and  C21_30 
REMARK   12  A    between atoms: C21_30  and  N6_31 
ROOT
HETATM    1  C15 UNL     1      28.450  42.908  30.721  1.00  0.00     0.182 C 
ENDROOT
BRANCH   1   2
HETATM    2  C14 UNL     1      28.298  43.137  29.259  1.00  0.00     0.078 C 
BRANCH   2   3
HETATM    3  N2  UNL     1      28.019  42.061  28.423  1.00  0.00    -0.391 N 
HETATM    4  C13 UNL     1      27.568  40.869  29.018  1.00  0.00     0.122 C 
HETATM    5  C12 UNL     1      27.215  39.945  27.823  1.00  0.00     0.026 C 
HETATM    6  C11 UNL     1      26.807  40.924  26.742  1.00  0.00     0.005 C 
HETATM    7  C22 UNL     1      27.329  42.276  27.201  1.00  0.00     0.126 C 
BRANCH   6   8
HETATM    8  C10 UNL     1      27.572  40.599  25.442  1.00  0.00     0.011 C 
BRANCH   8   9
HETATM    9  C9  UNL     1      28.991  41.001  25.540  1.00  0.00     0.041 C 
BRANCH   9  10
HETATM   10  C8  UNL     1      29.996  40.204  24.858  1.00  0.00    -0.028 A 
HETATM   11  C3  UNL     1      30.650  39.092  25.252  1.00  0.00    -0.028 A 
HETATM   12  C4  UNL     1      31.522  38.749  24.203  1.00  0.00     0.012 A 
HETATM   13  C5  UNL     1      32.460  37.582  24.175  1.00  0.00     0.068 C 
HETATM   14  N1  UNL     1      31.359  39.653  23.236  1.00  0.00    -0.363 N 
HETATM   15  C6  UNL     1      30.447  40.556  23.581  1.00  0.00     0.012 A 
ATOM     16  H1  UNL     1      31.866  39.651  22.351  1.00  0.00     0.165 HD
HETATM   17  C7  UNL     1      29.976  41.740  22.765  1.00  0.00     0.068 C 
BRANCH  11  18
HETATM   18  C2  UNL     1      30.613  38.276  26.475  1.00  0.00     0.036 C 
HETATM   19  C1  UNL     1      29.439  37.320  26.348  1.00  0.00     0.010 C 
ENDBRANCH  11  18
ENDBRANCH   9  10
ENDBRANCH   8   9
ENDBRANCH   6   8
ENDBRANCH   2   3
ENDBRANCH   1   2
BRANCH   1  20
HETATM   20  N3  UNL     1      28.959  43.980  31.496  1.00  0.00    -0.221 N 
ATOM     21  H3  UNL     1      28.959  44.901  31.060  1.00  0.00     0.178 HD
BRANCH  20  22
HETATM   22  C16 UNL     1      29.418  43.906  32.686  1.00  0.00     0.679 A 
HETATM   23  N4  UNL     1      28.949  42.985  33.547  1.00  0.00    -0.202 N 
HETATM   24  C17 UNL     1      29.397  42.861  34.816  1.00  0.00     0.110 A 
ATOM     25  H4  UNL     1      28.219  42.349  33.226  1.00  0.00     0.183 HD
HETATM   26  C18 UNL     1      30.375  43.708  35.261  1.00  0.00     0.066 A 
HETATM   27  C19 UNL     1      30.856  44.648  34.389  1.00  0.00     0.118 A 
HETATM   28  N7  UNL     1      30.389  44.743  33.134  1.00  0.00    -0.177 N 
ATOM     29  H7  UNL     1      30.768  45.453  32.509  1.00  0.00     0.185 HD
BRANCH  27  30
HETATM   30  N5  UNL     1      31.771  45.456  34.768  1.00  0.00    -0.374 N 
ATOM     31  H5  UNL     1      32.661  45.100  35.117  1.00  0.00     0.161 HD
BRANCH  30  32
HETATM   32  C20 UNL     1      31.531  46.879  34.697  1.00  0.00     0.148 C 
BRANCH  32  33
HETATM   33  C21 UNL     1      30.762  47.245  35.970  1.00  0.00     0.249 C 
BRANCH  33  34
HETATM   34  N6  UNL     1      31.655  46.892  37.077  1.00  0.00    -0.078 N 
ATOM     35  H63 UNL     1      31.208  46.334  37.804  1.00  0.00     0.274 HD
ATOM     36  H62 UNL     1      32.370  46.210  36.826  1.00  0.00     0.274 HD
ATOM     37  H61 UNL     1      32.031  47.779  37.412  1.00  0.00     0.274 HD
ENDBRANCH  33  34
ENDBRANCH  32  33
ENDBRANCH  30  32
ENDBRANCH  27  30
ENDBRANCH  20  22
ENDBRANCH   1  20
TORSDOF 12
ENDMDL
MODEL 3
REMARK VINA RESULT: -7.742645189      2.483      5.180
REMARK  12 active torsions:
REMARK  status: ('A' for Active; 'I' for Inactive)
REMARK    1  A    between atoms: C2_2  and  C3_3 
REMARK    2  A    between atoms: C8_10  and  C9_11 
REMARK    3  A    between atoms: C9_11  and  C10_12 
REMARK    4  A    between atoms: C10_12  and  C11_13 
REMARK    5  A    between atoms: N2_16  and  C14_17 
REMARK    6  A    between atoms: C14_17  and  C15_18 
REMARK    7  A    between atoms: C15_18  and  N3_19 
REMARK    8  A    between atoms: N3_19  and  C16_21 
REMARK    9  A    between atoms: C19_26  and  N5_27 
REMARK   10  A    between atoms: N5_27  and  C20_29 
REMARK   11  A    between atoms: C20_29  and  C21_30 
REMARK   12  A    between atoms: C21_30  and  N6_31 
ROOT
HETATM    1  C15 UNL     1      28.306  41.468  27.268  1.00  0.00     0.182 C 
ENDROOT
BRANCH   1   2
HETATM    2  C14 UNL     1      28.667  41.804  25.864  1.00  0.00     0.078 C 
BRANCH   2   3
HETATM    3  N2  UNL     1      29.231  40.827  25.051  1.00  0.00    -0.391 N 
HETATM    4  C13 UNL     1      29.882  41.247  23.877  1.00  0.00     0.122 C 
HETATM    5  C12 UNL     1      30.512  39.954  23.295  1.00  0.00     0.026 C 
HETATM    6  C11 UNL     1      30.779  39.118  24.529  1.00  0.00     0.005 C 
HETATM    7  C22 UNL     1      29.947  39.749  25.634  1.00  0.00     0.126 C 
BRANCH   6   8
HETATM    8  C10 UNL     1      30.200  37.703  24.324  1.00  0.00     0.011 C 
BRANCH   8   9
HETATM    9  C9  UNL     1      30.414  36.859  25.518  1.00  0.00     0.041 C 
BRANCH   9  10
HETATM   10  C8  UNL     1      31.395  35.789  25.456  1.00  0.00    -0.028 A 
HETATM   11  C3  UNL     1      31.313  34.552  24.924  1.00  0.00    -0.028 A 
HETATM   12  C4  UNL     1      32.553  33.933  25.157  1.00  0.00     0.012 A 
HETATM   13  C5  UNL     1      32.944  32.547  24.749  1.00  0.00     0.068 C 
HETATM   14  N1  UNL     1      33.321  34.808  25.809  1.00  0.00    -0.363 N 
HETATM   15  C6  UNL     1      32.668  35.948  26.016  1.00  0.00     0.012 A 
ATOM     16  H1  UNL     1      34.278  34.627  26.109  1.00  0.00     0.165 HD
HETATM   17  C7  UNL     1      33.185  37.185  26.716  1.00  0.00     0.068 C 
BRANCH  11  18
HETATM   18  C2  UNL     1      30.244  33.821  24.225  1.00  0.00     0.036 C 
HETATM   19  C1  UNL     1      29.294  33.285  25.282  1.00  0.00     0.010 C 
ENDBRANCH  11  18
ENDBRANCH   9  10
ENDBRANCH   8   9
ENDBRANCH   6   8
ENDBRANCH   2   3
ENDBRANCH   1   2
BRANCH   1  20
HETATM   20  N3  UNL     1      28.642  42.415  28.268  1.00  0.00    -0.221 N 
ATOM     21  H3  UNL     1      29.209  43.210  27.974  1.00  0.00     0.178 HD
BRANCH  20  22
HETATM   22  C16 UNL     1      28.305  42.372  29.499  1.00  0.00     0.679 A 
HETATM   23  N4  UNL     1      27.574  41.348  29.975  1.00  0.00    -0.202 N 
HETATM   24  C17 UNL     1      27.189  41.250  31.267  1.00  0.00     0.110 A 
ATOM     25  H4  UNL     1      27.296  40.609  29.329  1.00  0.00     0.183 HD
HETATM   26  C18 UNL     1      27.554  42.233  32.146  1.00  0.00     0.066 A 
HETATM   27  C19 UNL     1      28.299  43.279  31.666  1.00  0.00     0.118 A 
HETATM   28  N7  UNL     1      28.664  43.344  30.376  1.00  0.00    -0.177 N 
ATOM     29  H7  UNL     1      29.218  44.135  30.050  1.00  0.00     0.185 HD
BRANCH  27  30
HETATM   30  N5  UNL     1      28.659  44.216  32.456  1.00  0.00    -0.374 N 
ATOM     31  H5  UNL     1      27.996  44.941  32.731  1.00  0.00     0.161 HD
BRANCH  30  32
HETATM   32  C20 UNL     1      30.014  44.237  32.957  1.00  0.00     0.148 C 
BRANCH  32  33
HETATM   33  C21 UNL     1      30.158  45.546  33.740  1.00  0.00     0.249 C 
BRANCH  33  34
HETATM   34  N6  UNL     1      28.873  46.234  33.583  1.00  0.00    -0.078 N 
ATOM     35  H63 UNL     1      28.201  45.723  33.012  1.00  0.00     0.274 HD
ATOM     36  H62 UNL     1      28.313  46.256  34.435  1.00  0.00     0.274 HD
ATOM     37  H61 UNL     1      29.105  47.157  33.218  1.00  0.00     0.274 HD
ENDBRANCH  33  34
ENDBRANCH  32  33
ENDBRANCH  30  32
ENDBRANCH  27  30
ENDBRANCH  20  22
ENDBRANCH   1  20
TORSDOF 12
ENDMDL
MODEL 4
REMARK VINA RESULT: -7.670096156      1.553      2.598
REMARK  12 active torsions:
REMARK  status: ('A' for Active; 'I' for Inactive)
REMARK    1  A    between atoms: C2_2  and  C3_3 
REMARK    2  A    between atoms: C8_10  and  C9_11 
REMARK    3  A    between atoms: C9_11  and  C10_12 
REMARK    4  A    between atoms: C10_12  and  C11_13 
REMARK    5  A    between atoms: N2_16  and  C14_17 
REMARK    6  A    between atoms: C14_17  and  C15_18 
REMARK    7  A    between atoms: C15_18  and  N3_19 
REMARK    8  A    between atoms: N3_19  and  C16_21 
REMARK    9  A    between atoms: C19_26  and  N5_27 
REMARK   10  A    between atoms: N5_27  and  C20_29 
REMARK   11  A    between atoms: C20_29  and  C21_30 
REMARK   12  A    between atoms: C21_30  and  N6_31 
ROOT
HETATM    1  C15 UNL     1      28.632  42.698  30.523  1.00  0.00     0.182 C 
ENDROOT
BRANCH   1   2
HETATM    2  C14 UNL     1      27.428  42.578  29.656  1.00  0.00     0.078 C 
BRANCH   2   3
HETATM    3  N2  UNL     1      27.584  42.266  28.310  1.00  0.00    -0.391 N 
HETATM    4  C13 UNL     1      28.236  43.204  27.490  1.00  0.00     0.122 C 
HETATM    5  C12 UNL     1      28.373  42.495  26.116  1.00  0.00     0.026 C 
HETATM    6  C11 UNL     1      28.461  41.032  26.494  1.00  0.00     0.005 C 
HETATM    7  C22 UNL     1      27.966  40.952  27.930  1.00  0.00     0.126 C 
BRANCH   6   8
HETATM    8  C10 UNL     1      27.447  40.225  25.656  1.00  0.00     0.011 C 
BRANCH   8   9
HETATM    9  C9  UNL     1      27.932  40.025  24.275  1.00  0.00     0.041 C 
BRANCH   9  10
HETATM   10  C8  UNL     1      29.296  39.570  24.068  1.00  0.00    -0.028 A 
HETATM   11  C3  UNL     1      29.895  38.410  24.406  1.00  0.00    -0.028 A 
HETATM   12  C4  UNL     1      31.230  38.509  23.975  1.00  0.00     0.012 A 
HETATM   13  C5  UNL     1      32.291  37.464  24.127  1.00  0.00     0.068 C 
HETATM   14  N1  UNL     1      31.378  39.705  23.403  1.00  0.00    -0.363 N 
HETATM   15  C6  UNL     1      30.238  40.388  23.433  1.00  0.00     0.012 A 
ATOM     16  H1  UNL     1      32.248  40.049  22.998  1.00  0.00     0.165 HD
HETATM   17  C7  UNL     1      29.988  41.778  22.890  1.00  0.00     0.068 C 
BRANCH  11  18
HETATM   18  C2  UNL     1      29.431  37.194  25.091  1.00  0.00     0.036 C 
HETATM   19  C1  UNL     1      29.592  37.424  26.584  1.00  0.00     0.010 C 
ENDBRANCH  11  18
ENDBRANCH   9  10
ENDBRANCH   8   9
ENDBRANCH   6   8
ENDBRANCH   2   3
ENDBRANCH   1   2
BRANCH   1  20
HETATM   20  N3  UNL     1      28.670  43.785  31.433  1.00  0.00    -0.221 N 
ATOM     21  H3  UNL     1      28.217  44.648  31.135  1.00  0.00     0.178 HD
BRANCH  20  22
HETATM   22  C16 UNL     1      29.215  43.790  32.587  1.00  0.00     0.679 A 
HETATM   23  N4  UNL     1      28.829  42.914  33.533  1.00  0.00    -0.202 N 
HETATM   24  C17 UNL     1      29.370  42.873  34.771  1.00  0.00     0.110 A 
ATOM     25  H4  UNL     1      28.092  42.247  33.304  1.00  0.00     0.183 HD
HETATM   26  C18 UNL     1      30.360  43.762  35.093  1.00  0.00     0.066 A 
HETATM   27  C19 UNL     1      30.756  44.657  34.134  1.00  0.00     0.118 A 
HETATM   28  N7  UNL     1      30.197  44.669  32.914  1.00  0.00    -0.177 N 
ATOM     29  H7  UNL     1      30.514  45.347  32.223  1.00  0.00     0.185 HD
BRANCH  27  30
HETATM   30  N5  UNL     1      31.678  45.502  34.398  1.00  0.00    -0.374 N 
ATOM     31  H5  UNL     1      32.614  45.183  34.646  1.00  0.00     0.161 HD
BRANCH  30  32
HETATM   32  C20 UNL     1      31.380  46.914  34.340  1.00  0.00     0.148 C 
BRANCH  32  33
HETATM   33  C21 UNL     1      30.688  47.258  35.663  1.00  0.00     0.249 C 
BRANCH  33  34
HETATM   34  N6  UNL     1      31.682  46.981  36.703  1.00  0.00    -0.078 N 
ATOM     35  H63 UNL     1      32.552  47.500  36.587  1.00  0.00     0.274 HD
ATOM     36  H62 UNL     1      31.437  47.362  37.617  1.00  0.00     0.274 HD
ATOM     37  H61 UNL     1      31.802  45.969  36.697  1.00  0.00     0.274 HD
ENDBRANCH  33  34
ENDBRANCH  32  33
ENDBRANCH  30  32
ENDBRANCH  27  30
ENDBRANCH  20  22
ENDBRANCH   1  20
TORSDOF 12
ENDMDL
MODEL 5
REMARK VINA RESULT: -7.431924812      1.886      2.969
REMARK  12 active torsions:
REMARK  status: ('A' for Active; 'I' for Inactive)
REMARK    1  A    between atoms: C2_2  and  C3_3 
REMARK    2  A    between atoms: C8_10  and  C9_11 
REMARK    3  A    between atoms: C9_11  and  C10_12 
REMARK    4  A    between atoms: C10_12  and  C11_13 
REMARK    5  A    between atoms: N2_16  and  C14_17 
REMARK    6  A    between atoms: C14_17  and  C15_18 
REMARK    7  A    between atoms: C15_18  and  N3_19 
REMARK    8  A    between atoms: N3_19  and  C16_21 
REMARK    9  A    between atoms: C19_26  and  N5_27 
REMARK   10  A    between atoms: N5_27  and  C20_29 
REMARK   11  A    between atoms: C20_29  and  C21_30 
REMARK   12  A    between atoms: C21_30  and  N6_31 
ROOT
HETATM    1  C15 UNL     1      28.485  42.845  30.445  1.00  0.00     0.182 C 
ENDROOT
BRANCH   1   2
HETATM    2  C14 UNL     1      28.083  43.166  29.049  1.00  0.00     0.078 C 
BRANCH   2   3
HETATM    3  N2  UNL     1      28.295  42.228  28.044  1.00  0.00    -0.391 N 
HETATM    4  C13 UNL     1      27.679  40.971  28.179  1.00  0.00     0.122 C 
HETATM    5  C12 UNL     1      27.990  40.237  26.847  1.00  0.00     0.026 C 
HETATM    6  C11 UNL     1      28.096  41.371  25.850  1.00  0.00     0.005 C 
HETATM    7  C22 UNL     1      28.262  42.632  26.683  1.00  0.00     0.126 C 
BRANCH   6   8
HETATM    8  C10 UNL     1      29.406  41.225  25.046  1.00  0.00     0.011 C 
BRANCH   8   9
HETATM    9  C9  UNL     1      29.149  40.670  23.701  1.00  0.00     0.041 C 
BRANCH   9  10
HETATM   10  C8  UNL     1      29.264  39.236  23.498  1.00  0.00    -0.028 A 
HETATM   11  C3  UNL     1      30.321  38.411  23.642  1.00  0.00    -0.028 A 
HETATM   12  C4  UNL     1      29.872  37.123  23.301  1.00  0.00     0.012 A 
HETATM   13  C5  UNL     1      30.688  35.868  23.307  1.00  0.00     0.068 C 
HETATM   14  N1  UNL     1      28.583  37.223  22.971  1.00  0.00    -0.363 N 
HETATM   15  C6  UNL     1      28.165  38.481  23.073  1.00  0.00     0.012 A 
ATOM     16  H1  UNL     1      27.998  36.440  22.680  1.00  0.00     0.165 HD
HETATM   17  C7  UNL     1      26.776  39.010  22.789  1.00  0.00     0.068 C 
BRANCH  11  18
HETATM   18  C2  UNL     1      31.721  38.621  24.043  1.00  0.00     0.036 C 
HETATM   19  C1  UNL     1      31.765  38.607  25.561  1.00  0.00     0.010 C 
ENDBRANCH  11  18
ENDBRANCH   9  10
ENDBRANCH   8   9
ENDBRANCH   6   8
ENDBRANCH   2   3
ENDBRANCH   1   2
BRANCH   1  20
HETATM   20  N3  UNL     1      28.737  43.936  31.314  1.00  0.00    -0.221 N 
ATOM     21  H3  UNL     1      28.474  44.861  30.977  1.00  0.00     0.178 HD
BRANCH  20  22
HETATM   22  C16 UNL     1      29.261  43.875  32.477  1.00  0.00     0.679 A 
HETATM   23  N4  UNL     1      28.839  42.966  33.374  1.00  0.00    -0.202 N 
HETATM   24  C17 UNL     1      29.356  42.855  34.618  1.00  0.00     0.110 A 
ATOM     25  H4  UNL     1      28.091  42.328  33.102  1.00  0.00     0.183 HD
HETATM   26  C18 UNL     1      30.359  43.704  34.998  1.00  0.00     0.066 A 
HETATM   27  C19 UNL     1      30.793  44.633  34.089  1.00  0.00     0.118 A 
HETATM   28  N7  UNL     1      30.257  44.714  32.861  1.00  0.00    -0.177 N 
ATOM     29  H7  UNL     1      30.603  45.416  32.207  1.00  0.00     0.185 HD
BRANCH  27  30
HETATM   30  N5  UNL     1      31.729  45.443  34.407  1.00  0.00    -0.374 N 
ATOM     31  H5  UNL     1      32.647  45.089  34.677  1.00  0.00     0.161 HD
BRANCH  30  32
HETATM   32  C20 UNL     1      31.474  46.865  34.380  1.00  0.00     0.148 C 
BRANCH  32  33
HETATM   33  C21 UNL     1      30.696  47.182  35.660  1.00  0.00     0.249 C 
BRANCH  33  34
HETATM   34  N6  UNL     1      31.647  46.964  36.754  1.00  0.00    -0.078 N 
ATOM     35  H63 UNL     1      31.210  46.918  37.674  1.00  0.00     0.274 HD
ATOM     36  H62 UNL     1      32.050  46.027  36.766  1.00  0.00     0.274 HD
ATOM     37  H61 UNL     1      32.337  47.709  36.663  1.00  0.00     0.274 HD
ENDBRANCH  33  34
ENDBRANCH  32  33
ENDBRANCH  30  32
ENDBRANCH  27  30
ENDBRANCH  20  22
ENDBRANCH   1  20
TORSDOF 12
ENDMDL
