MODEL 1
REMARK VINA RESULT: -3.368531886      0.000      0.000
REMARK  2 active torsions:
REMARK  status: ('A' for Active; 'I' for Inactive)
REMARK    1  A    between atoms: C1_4  and  N2_5 
REMARK    2  A    between atoms: N2_5  and  N3_7 
ROOT
HETATM    1  N2  UNL     1      74.202  11.556  13.705  1.00  0.00    -0.315 N 
ATOM      2  H2  UNL     1      74.259  10.555  13.896  1.00  0.00     0.181 HD
ENDROOT
BRANCH   1   3
HETATM    3  C1  UNL     1      73.812  12.445  14.732  1.00  0.00     0.185 C 
HETATM    4  N1  UNL     1      72.764  12.220  15.476  1.00  0.00    -0.395 N 
ATOM      5  H12 UNL     1      72.222  11.374  15.298  1.00  0.00     0.156 HD
ATOM      6  H11 UNL     1      72.483  12.862  16.217  1.00  0.00     0.156 HD
ENDBRANCH   1   3
BRANCH   1   7
HETATM    7  N3  UNL     1      74.505  12.029  12.448  1.00  0.00    -0.228 NA
HETATM    8  C2  UNL     1      75.571  13.053  12.414  1.00  0.00     0.130 A 
HETATM    9  C3  UNL     1      75.716  11.719  11.775  1.00  0.00     0.130 A 
ENDBRANCH   1   7
TORSDOF 2
ENDMDL
MODEL 2
REMARK VINA RESULT: -3.359431989      1.470      1.583
REMARK  2 active torsions:
REMARK  status: ('A' for Active; 'I' for Inactive)
REMARK    1  A    between atoms: C1_4  and  N2_5 
REMARK    2  A    between atoms: N2_5  and  N3_7 
ROOT
HETATM    1  N2  UNL     1      75.160  13.349  14.562  1.00  0.00    -0.315 N 
ATOM      2  H2  UNL     1      75.054  14.115  15.227  1.00  0.00     0.181 HD
ENDROOT
BRANCH   1   3
HETATM    3  C1  UNL     1      74.488  12.126  14.786  1.00  0.00     0.185 C 
HETATM    4  N1  UNL     1      73.210  12.082  15.046  1.00  0.00    -0.395 N 
ATOM      5  H12 UNL     1      72.697  12.963  15.085  1.00  0.00     0.156 HD
ATOM      6  H11 UNL     1      72.725  11.199  15.208  1.00  0.00     0.156 HD
ENDBRANCH   1   3
BRANCH   1   7
HETATM    7  N3  UNL     1      75.958  13.514  13.452  1.00  0.00    -0.228 NA
HETATM    8  C2  UNL     1      76.502  12.259  12.890  1.00  0.00     0.130 A 
HETATM    9  C3  UNL     1      75.556  13.131  12.145  1.00  0.00     0.130 A 
ENDBRANCH   1   7
TORSDOF 2
ENDMDL
MODEL 3
REMARK VINA RESULT: -3.279772983      3.468      4.579
REMARK  2 active torsions:
REMARK  status: ('A' for Active; 'I' for Inactive)
REMARK    1  A    between atoms: C1_4  and  N2_5 
REMARK    2  A    between atoms: N2_5  and  N3_7 
ROOT
HETATM    1  N2  UNL     1      72.618  14.858  15.868  1.00  0.00    -0.315 N 
ATOM      2  H2  UNL     1      71.873  14.560  15.238  1.00  0.00     0.181 HD
ENDROOT
BRANCH   1   3
HETATM    3  C1  UNL     1      72.447  16.016  16.660  1.00  0.00     0.185 C 
HETATM    4  N1  UNL     1      73.079  17.128  16.398  1.00  0.00    -0.395 N 
ATOM      5  H12 UNL     1      73.709  17.145  15.597  1.00  0.00     0.156 HD
ATOM      6  H11 UNL     1      72.955  17.964  16.970  1.00  0.00     0.156 HD
ENDBRANCH   1   3
BRANCH   1   7
HETATM    7  N3  UNL     1      73.784  14.130  15.940  1.00  0.00    -0.228 NA
HETATM    8  C2  UNL     1      73.975  13.392  17.207  1.00  0.00     0.130 A 
HETATM    9  C3  UNL     1      73.814  12.710  15.896  1.00  0.00     0.130 A 
ENDBRANCH   1   7
TORSDOF 2
ENDMDL
MODEL 4
REMARK VINA RESULT: -3.265817636      4.150      5.178
REMARK  2 active torsions:
REMARK  status: ('A' for Active; 'I' for Inactive)
REMARK    1  A    between atoms: C1_4  and  N2_5 
REMARK    2  A    between atoms: N2_5  and  N3_7 
ROOT
HETATM    1  N2  UNL     1      72.756  13.674  17.881  1.00  0.00    -0.315 N 
ATOM      2  H2  UNL     1      72.960  14.306  18.655  1.00  0.00     0.181 HD
ENDROOT
BRANCH   1   3
HETATM    3  C1  UNL     1      73.782  13.318  16.976  1.00  0.00     0.185 C 
HETATM    4  N1  UNL     1      74.403  14.212  16.255  1.00  0.00    -0.395 N 
ATOM      5  H12 UNL     1      74.128  15.189  16.360  1.00  0.00     0.156 HD
ATOM      6  H11 UNL     1      75.143  13.955  15.601  1.00  0.00     0.156 HD
ENDBRANCH   1   3
BRANCH   1   7
HETATM    7  N3  UNL     1      71.483  13.174  17.725  1.00  0.00    -0.228 NA
HETATM    8  C2  UNL     1      71.020  13.087  16.324  1.00  0.00     0.130 A 
HETATM    9  C3  UNL     1      71.217  11.889  17.180  1.00  0.00     0.130 A 
ENDBRANCH   1   7
TORSDOF 2
ENDMDL
MODEL 5
REMARK VINA RESULT: -3.265242853      2.303      4.063
REMARK  2 active torsions:
REMARK  status: ('A' for Active; 'I' for Inactive)
REMARK    1  A    between atoms: C1_4  and  N2_5 
REMARK    2  A    between atoms: N2_5  and  N3_7 
ROOT
HETATM    1  N2  UNL     1      74.463  13.551  15.284  1.00  0.00    -0.315 N 
ATOM      2  H2  UNL     1      75.245  13.884  14.721  1.00  0.00     0.181 HD
ENDROOT
BRANCH   1   3
HETATM    3  C1  UNL     1      73.984  12.232  15.113  1.00  0.00     0.185 C 
HETATM    4  N1  UNL     1      73.796  11.718  13.928  1.00  0.00    -0.395 N 
ATOM      5  H12 UNL     1      74.004  12.298  13.115  1.00  0.00     0.156 HD
ATOM      6  H11 UNL     1      73.450  10.767  13.804  1.00  0.00     0.156 HD
ENDBRANCH   1   3
BRANCH   1   7
HETATM    7  N3  UNL     1      73.880  14.390  16.207  1.00  0.00    -0.228 NA
HETATM    8  C2  UNL     1      72.402  14.395  16.192  1.00  0.00     0.130 A 
HETATM    9  C3  UNL     1      73.193  13.919  17.357  1.00  0.00     0.130 A 
ENDBRANCH   1   7
TORSDOF 2
ENDMDL
