MODEL 1
REMARK VINA RESULT: -4.610142467      0.000      0.000
REMARK  2 active torsions:
REMARK  status: ('A' for Active; 'I' for Inactive)
REMARK    1  A    between atoms: C3_3  and  O1_4 
REMARK    2  A    between atoms: C5_9  and  O2_11 
ROOT
HETATM    1  C1  UNL     1      14.665  13.740  19.104  1.00  0.00     0.016 C 
HETATM    2  C2  UNL     1      14.319  14.616  17.964  1.00  0.00     0.057 C 
HETATM    3  C3  UNL     1      12.898  14.425  17.504  1.00  0.00     0.150 C 
HETATM    4  C4  UNL     1      12.681  15.315  16.313  1.00  0.00     0.152 C 
HETATM    5  S1  UNL     1      10.911  15.708  16.235  1.00  0.00    -0.078 SA
HETATM    6  S2  UNL     1      13.591  16.821  16.849  1.00  0.00    -0.112 SA
HETATM    7  C5  UNL     1      14.550  16.071  18.209  1.00  0.00     0.109 C 
HETATM    8  C6  UNL     1      16.039  16.337  18.022  1.00  0.00     0.058 C 
ENDROOT
BRANCH   7   9
HETATM    9  O2  UNL     1      14.181  16.527  19.438  1.00  0.00    -0.379 OA
ATOM     10  H2  UNL     1      13.874  17.425  19.469  1.00  0.00     0.211 HD
ENDBRANCH   7   9
BRANCH   3  11
HETATM   11  O1  UNL     1      11.954  14.687  18.453  1.00  0.00    -0.393 OA
ATOM     12  H1  UNL     1      11.060  14.510  18.182  1.00  0.00     0.210 HD
ENDBRANCH   3  11
TORSDOF 2
ENDMDL
MODEL 2
REMARK VINA RESULT: -4.408018122      2.151      3.622
REMARK  2 active torsions:
REMARK  status: ('A' for Active; 'I' for Inactive)
REMARK    1  A    between atoms: C3_3  and  O1_4 
REMARK    2  A    between atoms: C5_9  and  O2_11 
ROOT
HETATM    1  C1  UNL     1      11.008  15.486  16.133  1.00  0.00     0.016 C 
HETATM    2  C2  UNL     1      12.321  16.075  16.476  1.00  0.00     0.057 C 
HETATM    3  C3  UNL     1      12.944  15.427  17.683  1.00  0.00     0.150 C 
HETATM    4  C4  UNL     1      14.233  16.142  17.971  1.00  0.00     0.152 C 
HETATM    5  S1  UNL     1      15.329  14.978  18.830  1.00  0.00    -0.078 SA
HETATM    6  S2  UNL     1      14.868  16.388  16.262  1.00  0.00    -0.112 SA
HETATM    7  C5  UNL     1      13.314  16.063  15.361  1.00  0.00     0.109 C 
HETATM    8  C6  UNL     1      12.980  17.227  14.436  1.00  0.00     0.058 C 
ENDROOT
BRANCH   7   9
HETATM    9  O2  UNL     1      13.355  14.921  14.620  1.00  0.00    -0.379 OA
ATOM     10  H2  UNL     1      13.228  15.032  13.685  1.00  0.00     0.211 HD
ENDBRANCH   7   9
BRANCH   3  11
HETATM   11  O1  UNL     1      13.178  14.089  17.552  1.00  0.00    -0.393 OA
ATOM     12  H1  UNL     1      14.093  13.840  17.612  1.00  0.00     0.210 HD
ENDBRANCH   3  11
TORSDOF 2
ENDMDL
MODEL 3
REMARK VINA RESULT: -4.368437399      2.276      3.574
REMARK  2 active torsions:
REMARK  status: ('A' for Active; 'I' for Inactive)
REMARK    1  A    between atoms: C3_3  and  O1_4 
REMARK    2  A    between atoms: C5_9  and  O2_11 
ROOT
HETATM    1  C1  UNL     1      10.475  15.546  16.007  1.00  0.00     0.016 C 
HETATM    2  C2  UNL     1      11.949  15.659  16.015  1.00  0.00     0.057 C 
HETATM    3  C3  UNL     1      12.448  16.726  15.078  1.00  0.00     0.150 C 
HETATM    4  C4  UNL     1      13.949  16.709  15.125  1.00  0.00     0.152 C 
HETATM    5  S1  UNL     1      14.534  18.371  14.687  1.00  0.00    -0.078 SA
HETATM    6  S2  UNL     1      14.226  16.448  16.924  1.00  0.00    -0.112 SA
HETATM    7  C5  UNL     1      12.544  15.892  17.365  1.00  0.00     0.109 C 
HETATM    8  C6  UNL     1      12.597  14.548  18.082  1.00  0.00     0.058 C 
ENDROOT
BRANCH   7   9
HETATM    9  O2  UNL     1      11.879  16.778  18.157  1.00  0.00    -0.379 OA
ATOM     10  H2  UNL     1      12.128  16.779  19.074  1.00  0.00     0.211 HD
ENDBRANCH   7   9
BRANCH   3  11
HETATM   11  O1  UNL     1      11.994  17.983  15.355  1.00  0.00    -0.393 OA
ATOM     12  H1  UNL     1      11.059  18.040  15.515  1.00  0.00     0.210 HD
ENDBRANCH   3  11
TORSDOF 2
ENDMDL
MODEL 4
REMARK VINA RESULT: -4.366082639      2.118      2.642
REMARK  2 active torsions:
REMARK  status: ('A' for Active; 'I' for Inactive)
REMARK    1  A    between atoms: C3_3  and  O1_4 
REMARK    2  A    between atoms: C5_9  and  O2_11 
ROOT
HETATM    1  C1  UNL     1      16.684  16.783  16.954  1.00  0.00     0.016 C 
HETATM    2  C2  UNL     1      15.257  16.599  17.294  1.00  0.00     0.057 C 
HETATM    3  C3  UNL     1      14.395  16.412  16.075  1.00  0.00     0.150 C 
HETATM    4  C4  UNL     1      12.970  16.297  16.536  1.00  0.00     0.152 C 
HETATM    5  S1  UNL     1      12.065  15.331  15.294  1.00  0.00    -0.078 SA
HETATM    6  S2  UNL     1      13.187  15.259  18.039  1.00  0.00    -0.112 SA
HETATM    7  C5  UNL     1      14.987  15.480  18.246  1.00  0.00     0.109 C 
HETATM    8  C6  UNL     1      15.305  15.984  19.649  1.00  0.00     0.058 C 
ENDROOT
BRANCH   7   9
HETATM    9  O2  UNL     1      15.694  14.337  18.027  1.00  0.00    -0.379 OA
ATOM     10  H2  UNL     1      15.364  13.560  18.462  1.00  0.00     0.211 HD
ENDBRANCH   7   9
BRANCH   3  11
HETATM   11  O1  UNL     1      14.720  15.330  15.310  1.00  0.00    -0.393 OA
ATOM     12  H1  UNL     1      15.147  15.540  14.487  1.00  0.00     0.210 HD
ENDBRANCH   3  11
TORSDOF 2
ENDMDL
MODEL 5
REMARK VINA RESULT: -4.363102673      2.096      3.625
REMARK  2 active torsions:
REMARK  status: ('A' for Active; 'I' for Inactive)
REMARK    1  A    between atoms: C3_3  and  O1_4 
REMARK    2  A    between atoms: C5_9  and  O2_11 
ROOT
HETATM    1  C1  UNL     1      12.735  14.511  18.331  1.00  0.00     0.016 C 
HETATM    2  C2  UNL     1      12.800  15.616  17.350  1.00  0.00     0.057 C 
HETATM    3  C3  UNL     1      14.204  16.116  17.140  1.00  0.00     0.150 C 
HETATM    4  C4  UNL     1      14.139  17.268  16.178  1.00  0.00     0.152 C 
HETATM    5  S1  UNL     1      15.739  17.366  15.327  1.00  0.00    -0.078 SA
HETATM    6  S2  UNL     1      12.883  16.642  14.989  1.00  0.00    -0.112 SA
HETATM    7  C5  UNL     1      12.201  15.298  16.019  1.00  0.00     0.109 C 
HETATM    8  C6  UNL     1      10.689  15.440  16.150  1.00  0.00     0.058 C 
ENDROOT
BRANCH   7   9
HETATM    9  O2  UNL     1      12.478  14.057  15.530  1.00  0.00    -0.379 OA
ATOM     10  H2  UNL     1      13.025  13.510  16.082  1.00  0.00     0.211 HD
ENDBRANCH   7   9
BRANCH   3  11
HETATM   11  O1  UNL     1      15.078  15.176  16.674  1.00  0.00    -0.393 OA
ATOM     12  H1  UNL     1      14.749  14.655  15.951  1.00  0.00     0.210 HD
ENDBRANCH   3  11
TORSDOF 2
ENDMDL
