MODEL 1
REMARK VINA RESULT: -8.629232737      0.000      0.000
REMARK  5 active torsions:
REMARK  status: ('A' for Active; 'I' for Inactive)
REMARK    1  A    between atoms: C2_2  and  N1_3 
REMARK    2  A    between atoms: C2_2  and  C9_11 
REMARK    3  A    between atoms: N1_3  and  C3_5 
REMARK    4  A    between atoms: C9_11  and  C10_12 
REMARK    5  A    between atoms: C9_11  and  C16_18 
ROOT
HETATM    1  C9  UNL     1      29.625  20.418  45.837  1.00  0.00     0.074 C 
ENDROOT
BRANCH   1   2
HETATM    2  C2  UNL     1      28.694  20.291  47.006  1.00  0.00     0.090 C 
HETATM    3  C1  UNL     1      27.311  20.792  46.797  1.00  0.00     0.033 C 
BRANCH   2   4
HETATM    4  N1  UNL     1      29.247  20.941  48.188  1.00  0.00    -0.385 N 
ATOM      5  H1  UNL     1      29.139  21.950  48.295  1.00  0.00     0.160 HD
BRANCH   4   6
HETATM    6  C3  UNL     1      29.927  20.213  49.187  1.00  0.00     0.028 A 
HETATM    7  C4  UNL     1      31.242  20.487  49.528  1.00  0.00     0.029 A 
HETATM    8  C5  UNL     1      31.925  19.774  50.489  1.00  0.00     0.002 A 
HETATM    9  C6  UNL     1      31.321  18.747  51.159  1.00  0.00     0.000 A 
HETATM   10  C7  UNL     1      30.012  18.465  50.828  1.00  0.00     0.002 A 
HETATM   11  C8  UNL     1      29.310  19.183  49.853  1.00  0.00     0.029 A 
ENDBRANCH   4   6
ENDBRANCH   2   4
ENDBRANCH   1   2
BRANCH   1  12
HETATM   12  C10 UNL     1      30.159  21.771  45.707  1.00  0.00    -0.048 A 
HETATM   13  C11 UNL     1      31.255  22.165  46.431  1.00  0.00     0.008 A 
HETATM   14  C12 UNL     1      31.783  23.458  46.311  1.00  0.00     0.001 A 
HETATM   15  C13 UNL     1      31.199  24.371  45.449  1.00  0.00     0.000 A 
HETATM   16  C14 UNL     1      30.102  23.975  44.726  1.00  0.00     0.001 A 
HETATM   17  C15 UNL     1      29.579  22.710  44.837  1.00  0.00     0.008 A 
ENDBRANCH   1  12
BRANCH   1  18
HETATM   18  C16 UNL     1      30.590  19.325  45.671  1.00  0.00    -0.048 A 
HETATM   19  C17 UNL     1      31.053  18.479  46.650  1.00  0.00     0.008 A 
HETATM   20  C18 UNL     1      31.966  17.461  46.436  1.00  0.00     0.001 A 
HETATM   21  C19 UNL     1      32.456  17.256  45.186  1.00  0.00     0.000 A 
HETATM   22  C20 UNL     1      32.029  18.072  44.164  1.00  0.00     0.001 A 
HETATM   23  C21 UNL     1      31.125  19.076  44.396  1.00  0.00     0.008 A 
ENDBRANCH   1  18
TORSDOF 5
ENDMDL
MODEL 2
REMARK VINA RESULT: -8.627264548      0.038      1.012
REMARK  5 active torsions:
REMARK  status: ('A' for Active; 'I' for Inactive)
REMARK    1  A    between atoms: C2_2  and  N1_3 
REMARK    2  A    between atoms: C2_2  and  C9_11 
REMARK    3  A    between atoms: N1_3  and  C3_5 
REMARK    4  A    between atoms: C9_11  and  C10_12 
REMARK    5  A    between atoms: C9_11  and  C16_18 
ROOT
HETATM    1  C9  UNL     1      29.630  20.407  45.845  1.00  0.00     0.074 C 
ENDROOT
BRANCH   1   2
HETATM    2  C2  UNL     1      28.711  20.281  47.024  1.00  0.00     0.090 C 
HETATM    3  C1  UNL     1      27.326  20.783  46.830  1.00  0.00     0.033 C 
BRANCH   2   4
HETATM    4  N1  UNL     1      29.277  20.933  48.199  1.00  0.00    -0.385 N 
ATOM      5  H1  UNL     1      29.190  21.945  48.294  1.00  0.00     0.160 HD
BRANCH   4   6
HETATM    6  C3  UNL     1      29.941  20.202  49.207  1.00  0.00     0.028 A 
HETATM    7  C4  UNL     1      31.259  20.455  49.550  1.00  0.00     0.029 A 
HETATM    8  C5  UNL     1      31.926  19.739  50.519  1.00  0.00     0.002 A 
HETATM    9  C6  UNL     1      31.301  18.728  51.196  1.00  0.00     0.000 A 
HETATM   10  C7  UNL     1      29.989  18.467  50.863  1.00  0.00     0.002 A 
HETATM   11  C8  UNL     1      29.303  19.189  49.880  1.00  0.00     0.029 A 
ENDBRANCH   4   6
ENDBRANCH   2   4
ENDBRANCH   1   2
BRANCH   1  12
HETATM   12  C10 UNL     1      30.158  21.762  45.705  1.00  0.00    -0.048 A 
HETATM   13  C11 UNL     1      29.590  22.648  44.827  1.00  0.00     0.008 A 
HETATM   14  C12 UNL     1      30.081  23.954  44.688  1.00  0.00     0.001 A 
HETATM   15  C13 UNL     1      31.163  24.375  45.444  1.00  0.00     0.000 A 
HETATM   16  C14 UNL     1      31.730  23.486  46.321  1.00  0.00     0.001 A 
HETATM   17  C15 UNL     1      31.254  22.205  46.464  1.00  0.00     0.008 A 
ENDBRANCH   1  12
BRANCH   1  18
HETATM   18  C16 UNL     1      30.596  19.317  45.672  1.00  0.00    -0.048 A 
HETATM   19  C17 UNL     1      31.041  18.449  46.641  1.00  0.00     0.008 A 
HETATM   20  C18 UNL     1      31.956  17.435  46.421  1.00  0.00     0.001 A 
HETATM   21  C19 UNL     1      32.467  17.255  45.175  1.00  0.00     0.000 A 
HETATM   22  C20 UNL     1      32.058  18.093  44.163  1.00  0.00     0.001 A 
HETATM   23  C21 UNL     1      31.151  19.093  44.401  1.00  0.00     0.008 A 
ENDBRANCH   1  18
TORSDOF 5
ENDMDL
MODEL 3
REMARK VINA RESULT: -7.917062672      0.679      3.976
REMARK  5 active torsions:
REMARK  status: ('A' for Active; 'I' for Inactive)
REMARK    1  A    between atoms: C2_2  and  N1_3 
REMARK    2  A    between atoms: C2_2  and  C9_11 
REMARK    3  A    between atoms: N1_3  and  C3_5 
REMARK    4  A    between atoms: C9_11  and  C10_12 
REMARK    5  A    between atoms: C9_11  and  C16_18 
ROOT
HETATM    1  C9  UNL     1      30.430  20.445  46.898  1.00  0.00     0.074 C 
ENDROOT
BRANCH   1   2
HETATM    2  C2  UNL     1      29.064  20.124  47.430  1.00  0.00     0.090 C 
HETATM    3  C1  UNL     1      27.926  20.813  46.768  1.00  0.00     0.033 C 
BRANCH   2   4
HETATM    4  N1  UNL     1      28.988  20.380  48.863  1.00  0.00    -0.385 N 
ATOM      5  H1  UNL     1      28.217  20.940  49.226  1.00  0.00     0.160 HD
BRANCH   4   6
HETATM    6  C3  UNL     1      29.952  19.874  49.760  1.00  0.00     0.028 A 
HETATM    7  C4  UNL     1      31.237  20.388  49.825  1.00  0.00     0.029 A 
HETATM    8  C5  UNL     1      32.194  19.893  50.684  1.00  0.00     0.002 A 
HETATM    9  C6  UNL     1      31.908  18.854  51.525  1.00  0.00     0.000 A 
HETATM   10  C7  UNL     1      30.633  18.334  51.470  1.00  0.00     0.002 A 
HETATM   11  C8  UNL     1      29.654  18.829  50.601  1.00  0.00     0.029 A 
ENDBRANCH   4   6
ENDBRANCH   2   4
ENDBRANCH   1   2
BRANCH   1  12
HETATM   12  C10 UNL     1      31.049  19.293  46.248  1.00  0.00    -0.048 A 
HETATM   13  C11 UNL     1      31.796  18.398  46.971  1.00  0.00     0.008 A 
HETATM   14  C12 UNL     1      32.390  17.284  46.363  1.00  0.00     0.001 A 
HETATM   15  C13 UNL     1      32.231  17.065  45.004  1.00  0.00     0.000 A 
HETATM   16  C14 UNL     1      31.484  17.962  44.283  1.00  0.00     0.001 A 
HETATM   17  C15 UNL     1      30.897  19.056  44.872  1.00  0.00     0.008 A 
ENDBRANCH   1  12
BRANCH   1  18
HETATM   18  C16 UNL     1      30.553  21.726  46.194  1.00  0.00    -0.048 A 
HETATM   19  C17 UNL     1      29.876  22.113  45.062  1.00  0.00     0.008 A 
HETATM   20  C18 UNL     1      30.031  23.338  44.439  1.00  0.00     0.001 A 
HETATM   21  C19 UNL     1      30.901  24.244  44.955  1.00  0.00     0.000 A 
HETATM   22  C20 UNL     1      31.607  23.915  46.090  1.00  0.00     0.001 A 
HETATM   23  C21 UNL     1      31.440  22.695  46.692  1.00  0.00     0.008 A 
ENDBRANCH   1  18
TORSDOF 5
ENDMDL
MODEL 4
REMARK VINA RESULT: -7.907045412      0.666      4.087
REMARK  5 active torsions:
REMARK  status: ('A' for Active; 'I' for Inactive)
REMARK    1  A    between atoms: C2_2  and  N1_3 
REMARK    2  A    between atoms: C2_2  and  C9_11 
REMARK    3  A    between atoms: N1_3  and  C3_5 
REMARK    4  A    between atoms: C9_11  and  C10_12 
REMARK    5  A    between atoms: C9_11  and  C16_18 
ROOT
HETATM    1  C9  UNL     1      30.379  20.430  46.889  1.00  0.00     0.074 C 
ENDROOT
BRANCH   1   2
HETATM    2  C2  UNL     1      29.010  20.108  47.412  1.00  0.00     0.090 C 
HETATM    3  C1  UNL     1      27.877  20.805  46.750  1.00  0.00     0.033 C 
BRANCH   2   4
HETATM    4  N1  UNL     1      28.928  20.354  48.846  1.00  0.00    -0.385 N 
ATOM      5  H1  UNL     1      28.146  20.896  49.212  1.00  0.00     0.160 HD
BRANCH   4   6
HETATM    6  C3  UNL     1      29.902  19.863  49.741  1.00  0.00     0.028 A 
HETATM    7  C4  UNL     1      31.190  20.374  49.779  1.00  0.00     0.029 A 
HETATM    8  C5  UNL     1      32.156  19.894  50.635  1.00  0.00     0.002 A 
HETATM    9  C6  UNL     1      31.879  18.873  51.500  1.00  0.00     0.000 A 
HETATM   10  C7  UNL     1      30.601  18.356  51.473  1.00  0.00     0.002 A 
HETATM   11  C8  UNL     1      29.612  18.836  50.607  1.00  0.00     0.029 A 
ENDBRANCH   4   6
ENDBRANCH   2   4
ENDBRANCH   1   2
BRANCH   1  12
HETATM   12  C10 UNL     1      31.000  19.279  46.238  1.00  0.00    -0.048 A 
HETATM   13  C11 UNL     1      30.849  19.070  44.891  1.00  0.00     0.008 A 
HETATM   14  C12 UNL     1      31.447  17.975  44.251  1.00  0.00     0.001 A 
HETATM   15  C13 UNL     1      32.208  17.075  44.978  1.00  0.00     0.000 A 
HETATM   16  C14 UNL     1      32.357  17.287  46.325  1.00  0.00     0.001 A 
HETATM   17  C15 UNL     1      31.777  18.357  46.960  1.00  0.00     0.008 A 
ENDBRANCH   1  12
BRANCH   1  18
HETATM   18  C16 UNL     1      30.507  21.713  46.190  1.00  0.00    -0.048 A 
HETATM   19  C17 UNL     1      29.814  22.117  45.074  1.00  0.00     0.008 A 
HETATM   20  C18 UNL     1      29.975  23.344  44.455  1.00  0.00     0.001 A 
HETATM   21  C19 UNL     1      30.868  24.234  44.960  1.00  0.00     0.000 A 
HETATM   22  C20 UNL     1      31.591  23.887  46.078  1.00  0.00     0.001 A 
HETATM   23  C21 UNL     1      31.418  22.666  46.676  1.00  0.00     0.008 A 
ENDBRANCH   1  18
TORSDOF 5
ENDMDL
MODEL 5
REMARK VINA RESULT: -7.873552933      0.683      4.097
REMARK  5 active torsions:
REMARK  status: ('A' for Active; 'I' for Inactive)
REMARK    1  A    between atoms: C2_2  and  N1_3 
REMARK    2  A    between atoms: C2_2  and  C9_11 
REMARK    3  A    between atoms: N1_3  and  C3_5 
REMARK    4  A    between atoms: C9_11  and  C10_12 
REMARK    5  A    between atoms: C9_11  and  C16_18 
ROOT
HETATM    1  C9  UNL     1      30.435  20.444  46.901  1.00  0.00     0.074 C 
ENDROOT
BRANCH   1   2
HETATM    2  C2  UNL     1      29.072  20.121  47.439  1.00  0.00     0.090 C 
HETATM    3  C1  UNL     1      27.931  20.817  46.790  1.00  0.00     0.033 C 
BRANCH   2   4
HETATM    4  N1  UNL     1      29.006  20.367  48.874  1.00  0.00    -0.385 N 
ATOM      5  H1  UNL     1      28.232  20.917  49.247  1.00  0.00     0.160 HD
BRANCH   4   6
HETATM    6  C3  UNL     1      29.982  19.865  49.760  1.00  0.00     0.028 A 
HETATM    7  C4  UNL     1      29.718  18.819  50.629  1.00  0.00     0.029 A 
HETATM    8  C5  UNL     1      30.655  18.330  51.511  1.00  0.00     0.002 A 
HETATM    9  C6  UNL     1      31.911  18.868  51.567  1.00  0.00     0.000 A 
HETATM   10  C7  UNL     1      32.186  19.909  50.707  1.00  0.00     0.002 A 
HETATM   11  C8  UNL     1      31.241  20.414  49.807  1.00  0.00     0.029 A 
ENDBRANCH   4   6
ENDBRANCH   2   4
ENDBRANCH   1   2
BRANCH   1  12
HETATM   12  C10 UNL     1      31.050  19.294  46.244  1.00  0.00    -0.048 A 
HETATM   13  C11 UNL     1      31.795  18.393  46.961  1.00  0.00     0.008 A 
HETATM   14  C12 UNL     1      32.385  17.280  46.345  1.00  0.00     0.001 A 
HETATM   15  C13 UNL     1      32.225  17.070  44.985  1.00  0.00     0.000 A 
HETATM   16  C14 UNL     1      31.480  17.973  44.271  1.00  0.00     0.001 A 
HETATM   17  C15 UNL     1      30.897  19.066  44.866  1.00  0.00     0.008 A 
ENDBRANCH   1  12
BRANCH   1  18
HETATM   18  C16 UNL     1      30.554  21.727  46.200  1.00  0.00    -0.048 A 
HETATM   19  C17 UNL     1      29.874  22.117  45.071  1.00  0.00     0.008 A 
HETATM   20  C18 UNL     1      30.025  23.344  44.451  1.00  0.00     0.001 A 
HETATM   21  C19 UNL     1      30.896  24.250  44.967  1.00  0.00     0.000 A 
HETATM   22  C20 UNL     1      31.606  23.917  46.098  1.00  0.00     0.001 A 
HETATM   23  C21 UNL     1      31.442  22.696  46.698  1.00  0.00     0.008 A 
ENDBRANCH   1  18
TORSDOF 5
ENDMDL
