MODEL 1
REMARK VINA RESULT: -10.806400767      0.000      0.000
REMARK  14 active torsions:
REMARK  status: ('A' for Active; 'I' for Inactive)
REMARK    1  A    between atoms: C1_2  and  C2_4 
REMARK    2  A    between atoms: C2_4  and  C3_5 
REMARK    3  A    between atoms: C2_4  and  N1_12 
REMARK    4  A    between atoms: C3_5  and  C4_6 
REMARK       I    between atoms: N1_12  and  C10_14 
REMARK    5  A    between atoms: C10_14  and  C11_16 
REMARK    6  A    between atoms: C11_16  and  C12_17 
REMARK    7  A    between atoms: C11_16  and  C19_24 
REMARK    8  A    between atoms: C12_17  and  C13_18 
REMARK    9  A    between atoms: C22_27  and  O4_28 
REMARK   10  A    between atoms: O4_28  and  C23_29 
REMARK   11  A    between atoms: C23_29  and  C24_30 
REMARK   12  A    between atoms: C24_30  and  S1_31 
REMARK   13  A    between atoms: S1_31  and  C25_32 
REMARK   14  A    between atoms: C25_32  and  C26_33 
ROOT
HETATM    1  C11 UNL     1      27.315  32.917  20.080  1.00  0.00     0.115 C 
ENDROOT
BRANCH   1   2
HETATM    2  C10 UNL     1      26.181  33.314  20.931  1.00  0.00     0.227 C 
HETATM    3  N1  UNL     1      26.230  34.233  22.004  1.00  0.00    -0.346 N 
ATOM      4  H1  UNL     1      27.114  34.684  22.241  1.00  0.00     0.163 HD
HETATM    5  O3  UNL     1      25.032  32.798  20.701  1.00  0.00    -0.273 OA
BRANCH   3   6
HETATM    6  C2  UNL     1      25.037  34.541  22.776  1.00  0.00     0.189 C 
BRANCH   6   7
HETATM    7  C1  UNL     1      25.098  33.940  24.126  1.00  0.00     0.197 C 
HETATM    8  O1  UNL     1      25.131  32.689  24.220  1.00  0.00    -0.646 OA
HETATM    9  O2  UNL     1      25.119  34.679  25.295  1.00  0.00    -0.646 OA
ENDBRANCH   6   7
BRANCH   6  10
HETATM   10  C3  UNL     1      24.792  36.043  22.801  1.00  0.00     0.074 C 
BRANCH  10  11
HETATM   11  C4  UNL     1      23.848  36.439  21.755  1.00  0.00    -0.056 A 
HETATM   12  C5  UNL     1      22.710  37.196  22.069  1.00  0.00     0.007 A 
HETATM   13  C6  UNL     1      21.838  37.572  21.089  1.00  0.00     0.001 A 
HETATM   14  C7  UNL     1      22.086  37.201  19.788  1.00  0.00     0.000 A 
HETATM   15  C8  UNL     1      23.198  36.455  19.444  1.00  0.00     0.001 A 
HETATM   16  C9  UNL     1      24.072  36.082  20.449  1.00  0.00     0.007 A 
ENDBRANCH  10  11
ENDBRANCH   6  10
ENDBRANCH   3   6
ENDBRANCH   1   2
BRANCH   1  17
HETATM   17  C12 UNL     1      26.903  32.571  18.671  1.00  0.00     0.057 C 
BRANCH  17  18
HETATM   18  C13 UNL     1      26.502  33.803  17.921  1.00  0.00    -0.057 A 
HETATM   19  C14 UNL     1      25.337  33.781  17.175  1.00  0.00     0.007 A 
HETATM   20  C15 UNL     1      24.945  34.899  16.478  1.00  0.00     0.001 A 
HETATM   21  C16 UNL     1      25.663  36.073  16.476  1.00  0.00     0.000 A 
HETATM   22  C17 UNL     1      26.823  36.079  17.224  1.00  0.00     0.001 A 
HETATM   23  C18 UNL     1      27.235  34.970  17.930  1.00  0.00     0.007 A 
ENDBRANCH  17  18
ENDBRANCH   1  17
BRANCH   1  24
HETATM   24  C19 UNL     1      28.087  31.836  20.745  1.00  0.00    -0.045 A 
HETATM   25  C20 UNL     1      27.729  31.385  22.022  1.00  0.00     0.011 A 
HETATM   26  C21 UNL     1      28.429  30.398  22.679  1.00  0.00     0.037 A 
HETATM   27  C22 UNL     1      29.515  29.811  22.103  1.00  0.00     0.068 A 
HETATM   28  C32 UNL     1      29.884  30.239  20.850  1.00  0.00     0.037 A 
HETATM   29  C33 UNL     1      29.187  31.240  20.167  1.00  0.00     0.011 A 
BRANCH  27  30
HETATM   30  O4  UNL     1      30.265  28.811  22.708  1.00  0.00    -0.350 OA
BRANCH  30  31
HETATM   31  C23 UNL     1      29.669  27.716  23.376  1.00  0.00     0.186 C 
BRANCH  31  32
HETATM   32  C24 UNL     1      29.363  26.628  22.370  1.00  0.00     0.101 C 
BRANCH  32  33
HETATM   33  S1  UNL     1      28.093  25.496  22.963  1.00  0.00    -0.162 SA
BRANCH  33  34
HETATM   34  C25 UNL     1      28.769  24.014  23.701  1.00  0.00     0.112 C 
BRANCH  34  35
HETATM   35  C26 UNL     1      30.144  24.175  24.227  1.00  0.00    -0.049 A 
HETATM   36  C27 UNL     1      31.210  23.739  23.470  1.00  0.00     0.008 A 
HETATM   37  C28 UNL     1      32.514  23.871  23.926  1.00  0.00     0.001 A 
HETATM   38  C29 UNL     1      32.724  24.452  25.161  1.00  0.00     0.000 A 
HETATM   39  C30 UNL     1      31.638  24.879  25.895  1.00  0.00     0.001 A 
HETATM   40  C31 UNL     1      30.331  24.758  25.462  1.00  0.00     0.008 A 
ENDBRANCH  34  35
ENDBRANCH  33  34
ENDBRANCH  32  33
ENDBRANCH  31  32
ENDBRANCH  30  31
ENDBRANCH  27  30
ENDBRANCH   1  24
TORSDOF 14
ENDMDL
MODEL 2
REMARK VINA RESULT: -10.805431981      1.324      2.240
REMARK  14 active torsions:
REMARK  status: ('A' for Active; 'I' for Inactive)
REMARK    1  A    between atoms: C1_2  and  C2_4 
REMARK    2  A    between atoms: C2_4  and  C3_5 
REMARK    3  A    between atoms: C2_4  and  N1_12 
REMARK    4  A    between atoms: C3_5  and  C4_6 
REMARK       I    between atoms: N1_12  and  C10_14 
REMARK    5  A    between atoms: C10_14  and  C11_16 
REMARK    6  A    between atoms: C11_16  and  C12_17 
REMARK    7  A    between atoms: C11_16  and  C19_24 
REMARK    8  A    between atoms: C12_17  and  C13_18 
REMARK    9  A    between atoms: C22_27  and  O4_28 
REMARK   10  A    between atoms: O4_28  and  C23_29 
REMARK   11  A    between atoms: C23_29  and  C24_30 
REMARK   12  A    between atoms: C24_30  and  S1_31 
REMARK   13  A    between atoms: S1_31  and  C25_32 
REMARK   14  A    between atoms: C25_32  and  C26_33 
ROOT
HETATM    1  C11 UNL     1      27.297  33.268  19.761  1.00  0.00     0.115 C 
ENDROOT
BRANCH   1   2
HETATM    2  C10 UNL     1      26.199  33.492  20.717  1.00  0.00     0.227 C 
HETATM    3  N1  UNL     1      26.306  34.142  21.968  1.00  0.00    -0.346 N 
ATOM      4  H1  UNL     1      27.209  34.505  22.271  1.00  0.00     0.163 HD
HETATM    5  O3  UNL     1      25.028  33.072  20.414  1.00  0.00    -0.273 OA
BRANCH   3   6
HETATM    6  C2  UNL     1      25.143  34.299  22.827  1.00  0.00     0.189 C 
BRANCH   6   7
HETATM    7  C1  UNL     1      25.163  33.327  23.943  1.00  0.00     0.197 C 
HETATM    8  O1  UNL     1      24.364  33.498  24.896  1.00  0.00    -0.646 OA
HETATM    9  O2  UNL     1      26.015  32.239  23.999  1.00  0.00    -0.646 OA
ENDBRANCH   6   7
BRANCH   6  10
HETATM   10  C3  UNL     1      25.016  35.742  23.293  1.00  0.00     0.074 C 
BRANCH  10  11
HETATM   11  C4  UNL     1      23.875  36.401  22.657  1.00  0.00    -0.056 A 
HETATM   12  C5  UNL     1      22.831  36.928  23.431  1.00  0.00     0.007 A 
HETATM   13  C6  UNL     1      21.774  37.551  22.833  1.00  0.00     0.001 A 
HETATM   14  C7  UNL     1      21.742  37.658  21.462  1.00  0.00     0.000 A 
HETATM   15  C8  UNL     1      22.755  37.150  20.670  1.00  0.00     0.001 A 
HETATM   16  C9  UNL     1      23.819  36.521  21.291  1.00  0.00     0.007 A 
ENDBRANCH  10  11
ENDBRANCH   6  10
ENDBRANCH   3   6
ENDBRANCH   1   2
BRANCH   1  17
HETATM   17  C12 UNL     1      26.812  32.932  18.374  1.00  0.00     0.057 C 
BRANCH  17  18
HETATM   18  C13 UNL     1      26.567  34.179  17.582  1.00  0.00    -0.057 A 
HETATM   19  C14 UNL     1      27.368  35.283  17.811  1.00  0.00     0.007 A 
HETATM   20  C15 UNL     1      27.164  36.440  17.097  1.00  0.00     0.001 A 
HETATM   21  C16 UNL     1      26.183  36.570  16.141  1.00  0.00     0.000 A 
HETATM   22  C17 UNL     1      25.392  35.460  15.925  1.00  0.00     0.001 A 
HETATM   23  C18 UNL     1      25.578  34.290  16.629  1.00  0.00     0.007 A 
ENDBRANCH  17  18
ENDBRANCH   1  17
BRANCH   1  24
HETATM   24  C19 UNL     1      28.243  32.264  20.310  1.00  0.00    -0.045 A 
HETATM   25  C20 UNL     1      29.626  32.432  20.167  1.00  0.00     0.011 A 
HETATM   26  C21 UNL     1      30.535  31.516  20.647  1.00  0.00     0.037 A 
HETATM   27  C22 UNL     1      30.117  30.391  21.292  1.00  0.00     0.068 A 
HETATM   28  C32 UNL     1      28.763  30.205  21.444  1.00  0.00     0.037 A 
HETATM   29  C33 UNL     1      27.825  31.124  20.962  1.00  0.00     0.011 A 
BRANCH  27  30
HETATM   30  O4  UNL     1      30.978  29.428  21.801  1.00  0.00    -0.350 OA
BRANCH  30  31
HETATM   31  C23 UNL     1      31.339  28.272  21.070  1.00  0.00     0.186 C 
BRANCH  31  32
HETATM   32  C24 UNL     1      32.007  27.285  22.001  1.00  0.00     0.101 C 
BRANCH  32  33
HETATM   33  S1  UNL     1      32.165  27.933  23.675  1.00  0.00    -0.162 SA
BRANCH  33  34
HETATM   34  C25 UNL     1      30.729  27.605  24.690  1.00  0.00     0.112 C 
BRANCH  34  35
HETATM   35  C26 UNL     1      29.998  26.371  24.320  1.00  0.00    -0.049 A 
HETATM   36  C27 UNL     1      28.936  26.454  23.445  1.00  0.00     0.008 A 
HETATM   37  C28 UNL     1      28.225  25.322  23.073  1.00  0.00     0.001 A 
HETATM   38  C29 UNL     1      28.606  24.103  23.599  1.00  0.00     0.000 A 
HETATM   39  C30 UNL     1      29.672  24.052  24.470  1.00  0.00     0.001 A 
HETATM   40  C31 UNL     1      30.396  25.164  24.855  1.00  0.00     0.008 A 
ENDBRANCH  34  35
ENDBRANCH  33  34
ENDBRANCH  32  33
ENDBRANCH  31  32
ENDBRANCH  30  31
ENDBRANCH  27  30
ENDBRANCH   1  24
TORSDOF 14
ENDMDL
MODEL 3
REMARK VINA RESULT: -10.774249649      1.363      2.110
REMARK  14 active torsions:
REMARK  status: ('A' for Active; 'I' for Inactive)
REMARK    1  A    between atoms: C1_2  and  C2_4 
REMARK    2  A    between atoms: C2_4  and  C3_5 
REMARK    3  A    between atoms: C2_4  and  N1_12 
REMARK    4  A    between atoms: C3_5  and  C4_6 
REMARK       I    between atoms: N1_12  and  C10_14 
REMARK    5  A    between atoms: C10_14  and  C11_16 
REMARK    6  A    between atoms: C11_16  and  C12_17 
REMARK    7  A    between atoms: C11_16  and  C19_24 
REMARK    8  A    between atoms: C12_17  and  C13_18 
REMARK    9  A    between atoms: C22_27  and  O4_28 
REMARK   10  A    between atoms: O4_28  and  C23_29 
REMARK   11  A    between atoms: C23_29  and  C24_30 
REMARK   12  A    between atoms: C24_30  and  S1_31 
REMARK   13  A    between atoms: S1_31  and  C25_32 
REMARK   14  A    between atoms: C25_32  and  C26_33 
ROOT
HETATM    1  C11 UNL     1      27.245  33.419  19.668  1.00  0.00     0.115 C 
ENDROOT
BRANCH   1   2
HETATM    2  C10 UNL     1      26.152  33.610  20.636  1.00  0.00     0.227 C 
HETATM    3  N1  UNL     1      26.273  34.184  21.923  1.00  0.00    -0.346 N 
ATOM      4  H1  UNL     1      27.184  34.510  22.245  1.00  0.00     0.163 HD
HETATM    5  O3  UNL     1      24.972  33.233  20.311  1.00  0.00    -0.273 OA
BRANCH   3   6
HETATM    6  C2  UNL     1      25.114  34.316  22.791  1.00  0.00     0.189 C 
BRANCH   6   7
HETATM    7  C1  UNL     1      25.154  33.332  23.896  1.00  0.00     0.197 C 
HETATM    8  O1  UNL     1      24.422  33.530  24.896  1.00  0.00    -0.646 OA
HETATM    9  O2  UNL     1      25.955  32.205  23.891  1.00  0.00    -0.646 OA
ENDBRANCH   6   7
BRANCH   6  10
HETATM   10  C3  UNL     1      24.970  35.752  23.274  1.00  0.00     0.074 C 
BRANCH  10  11
HETATM   11  C4  UNL     1      23.828  36.409  22.638  1.00  0.00    -0.056 A 
HETATM   12  C5  UNL     1      22.775  36.919  23.412  1.00  0.00     0.007 A 
HETATM   13  C6  UNL     1      21.717  37.540  22.814  1.00  0.00     0.001 A 
HETATM   14  C7  UNL     1      21.692  37.661  21.444  1.00  0.00     0.000 A 
HETATM   15  C8  UNL     1      22.714  37.170  20.653  1.00  0.00     0.001 A 
HETATM   16  C9  UNL     1      23.779  36.543  21.273  1.00  0.00     0.007 A 
ENDBRANCH  10  11
ENDBRANCH   6  10
ENDBRANCH   3   6
ENDBRANCH   1   2
BRANCH   1  17
HETATM   17  C12 UNL     1      26.753  33.121  18.274  1.00  0.00     0.057 C 
BRANCH  17  18
HETATM   18  C13 UNL     1      26.557  34.388  17.500  1.00  0.00    -0.057 A 
HETATM   19  C14 UNL     1      25.562  34.437  16.542  1.00  0.00     0.007 A 
HETATM   20  C15 UNL     1      25.361  35.588  15.818  1.00  0.00     0.001 A 
HETATM   21  C16 UNL     1      26.112  36.727  15.994  1.00  0.00     0.000 A 
HETATM   22  C17 UNL     1      27.102  36.662  16.954  1.00  0.00     0.001 A 
HETATM   23  C18 UNL     1      27.321  35.518  17.691  1.00  0.00     0.007 A 
ENDBRANCH  17  18
ENDBRANCH   1  17
BRANCH   1  24
HETATM   24  C19 UNL     1      28.198  32.403  20.182  1.00  0.00    -0.045 A 
HETATM   25  C20 UNL     1      27.732  31.209  20.749  1.00  0.00     0.011 A 
HETATM   26  C21 UNL     1      28.583  30.250  21.252  1.00  0.00     0.037 A 
HETATM   27  C22 UNL     1      29.933  30.426  21.216  1.00  0.00     0.068 A 
HETATM   28  C32 UNL     1      30.412  31.591  20.664  1.00  0.00     0.037 A 
HETATM   29  C33 UNL     1      29.565  32.577  20.150  1.00  0.00     0.011 A 
BRANCH  27  30
HETATM   30  O4  UNL     1      30.846  29.501  21.704  1.00  0.00    -0.350 OA
BRANCH  30  31
HETATM   31  C23 UNL     1      31.760  29.811  22.738  1.00  0.00     0.186 C 
BRANCH  31  32
HETATM   32  C24 UNL     1      31.019  29.864  24.055  1.00  0.00     0.101 C 
BRANCH  32  33
HETATM   33  S1  UNL     1      31.398  28.449  25.103  1.00  0.00    -0.162 SA
BRANCH  33  34
HETATM   34  C25 UNL     1      31.806  26.978  24.169  1.00  0.00     0.112 C 
BRANCH  34  35
HETATM   35  C26 UNL     1      30.654  26.077  23.930  1.00  0.00    -0.049 A 
HETATM   36  C27 UNL     1      30.525  24.933  24.688  1.00  0.00     0.008 A 
HETATM   37  C28 UNL     1      29.462  24.063  24.496  1.00  0.00     0.001 A 
HETATM   38  C29 UNL     1      28.529  24.369  23.524  1.00  0.00     0.000 A 
HETATM   39  C30 UNL     1      28.685  25.520  22.783  1.00  0.00     0.001 A 
HETATM   40  C31 UNL     1      29.734  26.401  22.956  1.00  0.00     0.008 A 
ENDBRANCH  34  35
ENDBRANCH  33  34
ENDBRANCH  32  33
ENDBRANCH  31  32
ENDBRANCH  30  31
ENDBRANCH  27  30
ENDBRANCH   1  24
TORSDOF 14
ENDMDL
MODEL 4
REMARK VINA RESULT: -10.744292127      1.332      2.326
REMARK  14 active torsions:
REMARK  status: ('A' for Active; 'I' for Inactive)
REMARK    1  A    between atoms: C1_2  and  C2_4 
REMARK    2  A    between atoms: C2_4  and  C3_5 
REMARK    3  A    between atoms: C2_4  and  N1_12 
REMARK    4  A    between atoms: C3_5  and  C4_6 
REMARK       I    between atoms: N1_12  and  C10_14 
REMARK    5  A    between atoms: C10_14  and  C11_16 
REMARK    6  A    between atoms: C11_16  and  C12_17 
REMARK    7  A    between atoms: C11_16  and  C19_24 
REMARK    8  A    between atoms: C12_17  and  C13_18 
REMARK    9  A    between atoms: C22_27  and  O4_28 
REMARK   10  A    between atoms: O4_28  and  C23_29 
REMARK   11  A    between atoms: C23_29  and  C24_30 
REMARK   12  A    between atoms: C24_30  and  S1_31 
REMARK   13  A    between atoms: S1_31  and  C25_32 
REMARK   14  A    between atoms: C25_32  and  C26_33 
ROOT
HETATM    1  C11 UNL     1      27.196  33.448  19.670  1.00  0.00     0.115 C 
ENDROOT
BRANCH   1   2
HETATM    2  C10 UNL     1      26.096  33.670  20.624  1.00  0.00     0.227 C 
HETATM    3  N1  UNL     1      26.198  34.326  21.872  1.00  0.00    -0.346 N 
ATOM      4  H1  UNL     1      27.100  34.696  22.174  1.00  0.00     0.163 HD
HETATM    5  O3  UNL     1      24.928  33.241  20.323  1.00  0.00    -0.273 OA
BRANCH   3   6
HETATM    6  C2  UNL     1      25.034  34.480  22.730  1.00  0.00     0.189 C 
BRANCH   6   7
HETATM    7  C1  UNL     1      25.093  33.560  23.887  1.00  0.00     0.197 C 
HETATM    8  O1  UNL     1      24.462  33.871  24.927  1.00  0.00    -0.646 OA
HETATM    9  O2  UNL     1      25.806  32.375  23.891  1.00  0.00    -0.646 OA
ENDBRANCH   6   7
BRANCH   6  10
HETATM   10  C3  UNL     1      24.859  35.937  23.133  1.00  0.00     0.074 C 
BRANCH  10  11
HETATM   11  C4  UNL     1      23.728  36.545  22.429  1.00  0.00    -0.056 A 
HETATM   12  C5  UNL     1      23.707  36.603  21.028  1.00  0.00     0.007 A 
HETATM   13  C6  UNL     1      22.645  37.162  20.377  1.00  0.00     0.001 A 
HETATM   14  C7  UNL     1      21.596  37.667  21.108  1.00  0.00     0.000 A 
HETATM   15  C8  UNL     1      21.586  37.625  22.490  1.00  0.00     0.001 A 
HETATM   16  C9  UNL     1      22.669  37.056  23.135  1.00  0.00     0.007 A 
ENDBRANCH  10  11
ENDBRANCH   6  10
ENDBRANCH   3   6
ENDBRANCH   1   2
BRANCH   1  17
HETATM   17  C12 UNL     1      26.713  33.121  18.279  1.00  0.00     0.057 C 
BRANCH  17  18
HETATM   18  C13 UNL     1      26.497  34.373  17.487  1.00  0.00    -0.057 A 
HETATM   19  C14 UNL     1      27.330  35.455  17.708  1.00  0.00     0.007 A 
HETATM   20  C15 UNL     1      27.154  36.615  16.993  1.00  0.00     0.001 A 
HETATM   21  C16 UNL     1      26.170  36.771  16.044  1.00  0.00     0.000 A 
HETATM   22  C17 UNL     1      25.347  35.683  15.835  1.00  0.00     0.001 A 
HETATM   23  C18 UNL     1      25.506  34.510  16.540  1.00  0.00     0.007 A 
ENDBRANCH  17  18
ENDBRANCH   1  17
BRANCH   1  24
HETATM   24  C19 UNL     1      28.137  32.437  20.216  1.00  0.00    -0.045 A 
HETATM   25  C20 UNL     1      27.657  31.273  20.831  1.00  0.00     0.011 A 
HETATM   26  C21 UNL     1      28.496  30.320  21.364  1.00  0.00     0.037 A 
HETATM   27  C22 UNL     1      29.848  30.474  21.313  1.00  0.00     0.068 A 
HETATM   28  C32 UNL     1      30.341  31.609  20.713  1.00  0.00     0.037 A 
HETATM   29  C33 UNL     1      29.506  32.588  20.168  1.00  0.00     0.011 A 
BRANCH  27  30
HETATM   30  O4  UNL     1      30.751  29.553  21.828  1.00  0.00    -0.350 OA
BRANCH  30  31
HETATM   31  C23 UNL     1      31.713  29.901  22.805  1.00  0.00     0.186 C 
BRANCH  31  32
HETATM   32  C24 UNL     1      31.061  29.890  24.170  1.00  0.00     0.101 C 
BRANCH  32  33
HETATM   33  S1  UNL     1      31.418  28.375  25.077  1.00  0.00    -0.162 SA
BRANCH  33  34
HETATM   34  C25 UNL     1      31.771  26.986  24.007  1.00  0.00     0.112 C 
BRANCH  34  35
HETATM   35  C26 UNL     1      30.631  26.056  23.830  1.00  0.00    -0.049 A 
HETATM   36  C27 UNL     1      30.586  24.897  24.576  1.00  0.00     0.008 A 
HETATM   37  C28 UNL     1      29.537  24.000  24.440  1.00  0.00     0.001 A 
HETATM   38  C29 UNL     1      28.532  24.293  23.539  1.00  0.00     0.000 A 
HETATM   39  C30 UNL     1      28.605  25.459  22.809  1.00  0.00     0.001 A 
HETATM   40  C31 UNL     1      29.639  26.368  22.926  1.00  0.00     0.008 A 
ENDBRANCH  34  35
ENDBRANCH  33  34
ENDBRANCH  32  33
ENDBRANCH  31  32
ENDBRANCH  30  31
ENDBRANCH  27  30
ENDBRANCH   1  24
TORSDOF 14
ENDMDL
MODEL 5
REMARK VINA RESULT: -10.593421176      1.552      2.421
REMARK  14 active torsions:
REMARK  status: ('A' for Active; 'I' for Inactive)
REMARK    1  A    between atoms: C1_2  and  C2_4 
REMARK    2  A    between atoms: C2_4  and  C3_5 
REMARK    3  A    between atoms: C2_4  and  N1_12 
REMARK    4  A    between atoms: C3_5  and  C4_6 
REMARK       I    between atoms: N1_12  and  C10_14 
REMARK    5  A    between atoms: C10_14  and  C11_16 
REMARK    6  A    between atoms: C11_16  and  C12_17 
REMARK    7  A    between atoms: C11_16  and  C19_24 
REMARK    8  A    between atoms: C12_17  and  C13_18 
REMARK    9  A    between atoms: C22_27  and  O4_28 
REMARK   10  A    between atoms: O4_28  and  C23_29 
REMARK   11  A    between atoms: C23_29  and  C24_30 
REMARK   12  A    between atoms: C24_30  and  S1_31 
REMARK   13  A    between atoms: S1_31  and  C25_32 
REMARK   14  A    between atoms: C25_32  and  C26_33 
ROOT
HETATM    1  C11 UNL     1      27.121  33.614  19.858  1.00  0.00     0.115 C 
ENDROOT
BRANCH   1   2
HETATM    2  C10 UNL     1      25.848  34.041  20.463  1.00  0.00     0.227 C 
HETATM    3  N1  UNL     1      25.592  35.296  21.060  1.00  0.00    -0.346 N 
ATOM      4  H1  UNL     1      26.331  35.999  21.091  1.00  0.00     0.163 HD
HETATM    5  O3  UNL     1      24.865  33.221  20.464  1.00  0.00    -0.273 OA
BRANCH   3   6
HETATM    6  C2  UNL     1      24.288  35.598  21.629  1.00  0.00     0.189 C 
BRANCH   6   7
HETATM    7  C1  UNL     1      24.331  35.587  23.108  1.00  0.00     0.197 C 
HETATM    8  O1  UNL     1      24.805  36.589  23.697  1.00  0.00    -0.646 OA
HETATM    9  O2  UNL     1      23.878  34.534  23.881  1.00  0.00    -0.646 OA
ENDBRANCH   6   7
BRANCH   6  10
HETATM   10  C3  UNL     1      23.745  36.900  21.056  1.00  0.00     0.074 C 
BRANCH  10  11
HETATM   11  C4  UNL     1      22.745  36.641  20.020  1.00  0.00    -0.056 A 
HETATM   12  C5  UNL     1      21.464  37.207  20.106  1.00  0.00     0.007 A 
HETATM   13  C6  UNL     1      20.538  36.970  19.131  1.00  0.00     0.001 A 
HETATM   14  C7  UNL     1      20.873  36.172  18.063  1.00  0.00     0.000 A 
HETATM   15  C8  UNL     1      22.126  35.600  17.948  1.00  0.00     0.001 A 
HETATM   16  C9  UNL     1      23.054  35.849  18.943  1.00  0.00     0.007 A 
ENDBRANCH  10  11
ENDBRANCH   6  10
ENDBRANCH   3   6
ENDBRANCH   1   2
BRANCH   1  17
HETATM   17  C12 UNL     1      26.967  33.140  18.435  1.00  0.00     0.057 C 
BRANCH  17  18
HETATM   18  C13 UNL     1      26.539  34.265  17.546  1.00  0.00    -0.057 A 
HETATM   19  C14 UNL     1      27.207  35.474  17.631  1.00  0.00     0.007 A 
HETATM   20  C15 UNL     1      26.835  36.523  16.824  1.00  0.00     0.001 A 
HETATM   21  C16 UNL     1      25.808  36.442  15.912  1.00  0.00     0.000 A 
HETATM   22  C17 UNL     1      25.151  35.230  15.840  1.00  0.00     0.001 A 
HETATM   23  C18 UNL     1      25.507  34.165  16.638  1.00  0.00     0.007 A 
ENDBRANCH  17  18
ENDBRANCH   1  17
BRANCH   1  24
HETATM   24  C19 UNL     1      27.787  32.620  20.738  1.00  0.00    -0.045 A 
HETATM   25  C20 UNL     1      28.054  32.920  22.080  1.00  0.00     0.011 A 
HETATM   26  C21 UNL     1      28.684  32.032  22.923  1.00  0.00     0.037 A 
HETATM   27  C22 UNL     1      29.078  30.807  22.479  1.00  0.00     0.068 A 
HETATM   28  C32 UNL     1      28.825  30.491  21.164  1.00  0.00     0.037 A 
HETATM   29  C33 UNL     1      28.188  31.379  20.292  1.00  0.00     0.011 A 
BRANCH  27  30
HETATM   30  O4  UNL     1      29.716  29.864  23.274  1.00  0.00    -0.350 OA
BRANCH  30  31
HETATM   31  C23 UNL     1      30.635  30.224  24.286  1.00  0.00     0.186 C 
BRANCH  31  32
HETATM   32  C24 UNL     1      32.017  29.750  23.893  1.00  0.00     0.101 C 
BRANCH  32  33
HETATM   33  S1  UNL     1      32.120  27.952  23.820  1.00  0.00    -0.162 SA
BRANCH  33  34
HETATM   34  C25 UNL     1      31.121  27.144  25.065  1.00  0.00     0.112 C 
BRANCH  34  35
HETATM   35  C26 UNL     1      30.218  26.100  24.529  1.00  0.00    -0.049 A 
HETATM   36  C27 UNL     1      29.483  26.364  23.393  1.00  0.00     0.008 A 
HETATM   37  C28 UNL     1      28.625  25.413  22.859  1.00  0.00     0.001 A 
HETATM   38  C29 UNL     1      28.521  24.190  23.492  1.00  0.00     0.000 A 
HETATM   39  C30 UNL     1      29.269  23.956  24.625  1.00  0.00     0.001 A 
HETATM   40  C31 UNL     1      30.130  24.886  25.176  1.00  0.00     0.008 A 
ENDBRANCH  34  35
ENDBRANCH  33  34
ENDBRANCH  32  33
ENDBRANCH  31  32
ENDBRANCH  30  31
ENDBRANCH  27  30
ENDBRANCH   1  24
TORSDOF 14
ENDMDL
