MODEL 1
REMARK VINA RESULT: -7.284779747      0.000      0.000
REMARK  15 active torsions:
REMARK  status: ('A' for Active; 'I' for Inactive)
REMARK    1  A    between atoms: C2_2  and  C3_3 
REMARK    2  A    between atoms: C3_3  and  C5_5 
REMARK    3  A    between atoms: C5_5  and  C6_6 
REMARK    4  A    between atoms: C5_5  and  C11_15 
REMARK    5  A    between atoms: C5_5  and  C24_31 
REMARK    6  A    between atoms: C7_7  and  C8_8 
REMARK    7  A    between atoms: C8_8  and  N1_11 
REMARK    8  A    between atoms: C11_15  and  C12_16 
REMARK    9  A    between atoms: C17_21  and  O1_22 
REMARK   10  A    between atoms: O1_22  and  C18_23 
REMARK   11  A    between atoms: C18_23  and  C19_24 
REMARK       I    between atoms: C19_24  and  N2_26 
REMARK   12  A    between atoms: C24_31  and  C26_33 
REMARK   13  A    between atoms: C26_33  and  C27_34 
REMARK   14  A    between atoms: C27_34  and  C29_36 
REMARK       I    between atoms: C29_36  and  N3_38 
REMARK   15  A    between atoms: N3_38  and  C30_40 
ROOT
HETATM    1  C5  UNL     1      21.988  37.425  19.030  1.00  0.00     0.002 C 
ENDROOT
BRANCH   1   2
HETATM    2  C3  UNL     1      20.897  37.444  18.085  1.00  0.00    -0.003 C 
HETATM    3  C4  UNL     1      20.042  38.742  18.070  1.00  0.00     0.011 C 
BRANCH   2   4
HETATM    4  C2  UNL     1      19.820  36.403  18.186  1.00  0.00     0.001 C 
HETATM    5  C1  UNL     1      19.890  35.595  16.870  1.00  0.00     0.005 C 
ENDBRANCH   2   4
ENDBRANCH   1   2
BRANCH   1   6
HETATM    6  C6  UNL     1      21.500  38.175  20.309  1.00  0.00    -0.014 C 
HETATM    7  C7  UNL     1      21.349  37.584  21.468  1.00  0.00     0.008 C 
BRANCH   7   8
HETATM    8  C8  UNL     1      20.886  38.276  22.684  1.00  0.00     0.134 C 
HETATM    9  C9  UNL     1      19.550  38.963  22.554  1.00  0.00     0.050 C 
HETATM   10  C10 UNL     1      21.944  39.242  23.238  1.00  0.00     0.050 C 
BRANCH   8  11
HETATM   11  N1  UNL     1      20.683  37.315  23.796  1.00  0.00    -0.068 N 
ATOM     12  H13 UNL     1      21.562  36.886  24.087  1.00  0.00     0.275 HD
ATOM     13  H12 UNL     1      20.448  37.792  24.667  1.00  0.00     0.275 HD
ATOM     14  H11 UNL     1      19.985  36.614  23.550  1.00  0.00     0.275 HD
ENDBRANCH   8  11
ENDBRANCH   7   8
ENDBRANCH   1   6
BRANCH   1  15
HETATM   15  C11 UNL     1      22.469  36.115  19.609  1.00  0.00     0.002 C 
BRANCH  15  16
HETATM   16  C12 UNL     1      23.544  35.356  19.015  1.00  0.00    -0.005 A 
HETATM   17  C13 UNL     1      23.382  34.905  17.726  1.00  0.00     0.014 A 
HETATM   18  C14 UNL     1      24.344  34.207  17.066  1.00  0.00     0.001 A 
HETATM   19  C15 UNL     1      25.530  33.941  17.711  1.00  0.00     0.003 A 
HETATM   20  C16 UNL     1      25.741  34.366  18.988  1.00  0.00     0.037 A 
HETATM   21  C17 UNL     1      24.727  35.084  19.646  1.00  0.00     0.079 A 
BRANCH  21  22
HETATM   22  O1  UNL     1      24.998  35.485  20.943  1.00  0.00    -0.341 OA
BRANCH  22  23
HETATM   23  C18 UNL     1      25.848  34.927  21.842  1.00  0.00     0.278 C 
BRANCH  23  24
HETATM   24  C19 UNL     1      25.088  34.373  23.014  1.00  0.00     0.244 C 
HETATM   25  O2  UNL     1      24.641  33.196  23.052  1.00  0.00    -0.271 OA
HETATM   26  N2  UNL     1      24.832  35.172  24.164  1.00  0.00    -0.350 N 
HETATM   27  C20 UNL     1      24.125  34.786  25.367  1.00  0.00     0.126 C 
HETATM   28  C23 UNL     1      25.257  36.549  24.297  1.00  0.00     0.126 C 
HETATM   29  C21 UNL     1      23.461  36.069  25.804  1.00  0.00     0.021 C 
HETATM   30  C22 UNL     1      24.396  37.155  25.373  1.00  0.00     0.021 C 
ENDBRANCH  23  24
ENDBRANCH  22  23
ENDBRANCH  21  22
ENDBRANCH  15  16
ENDBRANCH   1  15
BRANCH   1  31
HETATM   31  C24 UNL     1      23.273  38.183  18.741  1.00  0.00    -0.002 C 
HETATM   32  C25 UNL     1      23.547  39.341  19.641  1.00  0.00     0.011 C 
BRANCH  31  33
HETATM   33  C26 UNL     1      23.606  38.373  17.315  1.00  0.00     0.019 C 
BRANCH  33  34
HETATM   34  C27 UNL     1      25.058  38.237  16.945  1.00  0.00     0.074 C 
HETATM   35  C28 UNL     1      25.506  39.662  16.554  1.00  0.00     0.020 C 
BRANCH  34  36
HETATM   36  C29 UNL     1      25.191  37.473  15.646  1.00  0.00     0.222 C 
HETATM   37  O3  UNL     1      26.283  37.067  15.198  1.00  0.00    -0.273 OA
HETATM   38  N3  UNL     1      24.038  37.184  14.863  1.00  0.00    -0.353 N 
ATOM     39  H3  UNL     1      23.138  37.509  15.215  1.00  0.00     0.163 HD
BRANCH  38  40
HETATM   40  C30 UNL     1      24.041  36.475  13.623  1.00  0.00     0.022 C 
HETATM   41  C31 UNL     1      24.648  37.312  12.497  1.00  0.00     0.037 C 
HETATM   42  C32 UNL     1      24.795  35.183  13.702  1.00  0.00     0.037 C 
HETATM   43  C33 UNL     1      22.619  36.185  13.190  1.00  0.00     0.037 C 
ENDBRANCH  38  40
ENDBRANCH  34  36
ENDBRANCH  33  34
ENDBRANCH  31  33
ENDBRANCH   1  31
TORSDOF 15
ENDMDL
MODEL 2
REMARK VINA RESULT: -7.238403531      3.305      8.088
REMARK  15 active torsions:
REMARK  status: ('A' for Active; 'I' for Inactive)
REMARK    1  A    between atoms: C2_2  and  C3_3 
REMARK    2  A    between atoms: C3_3  and  C5_5 
REMARK    3  A    between atoms: C5_5  and  C6_6 
REMARK    4  A    between atoms: C5_5  and  C11_15 
REMARK    5  A    between atoms: C5_5  and  C24_31 
REMARK    6  A    between atoms: C7_7  and  C8_8 
REMARK    7  A    between atoms: C8_8  and  N1_11 
REMARK    8  A    between atoms: C11_15  and  C12_16 
REMARK    9  A    between atoms: C17_21  and  O1_22 
REMARK   10  A    between atoms: O1_22  and  C18_23 
REMARK   11  A    between atoms: C18_23  and  C19_24 
REMARK       I    between atoms: C19_24  and  N2_26 
REMARK   12  A    between atoms: C24_31  and  C26_33 
REMARK   13  A    between atoms: C26_33  and  C27_34 
REMARK   14  A    between atoms: C27_34  and  C29_36 
REMARK       I    between atoms: C29_36  and  N3_38 
REMARK   15  A    between atoms: N3_38  and  C30_40 
ROOT
HETATM    1  C5  UNL     1      25.702  35.530  17.285  1.00  0.00     0.002 C 
ENDROOT
BRANCH   1   2
HETATM    2  C3  UNL     1      26.440  36.556  16.585  1.00  0.00    -0.003 C 
HETATM    3  C4  UNL     1      27.903  36.777  17.062  1.00  0.00     0.011 C 
BRANCH   2   4
HETATM    4  C2  UNL     1      25.927  37.966  16.597  1.00  0.00     0.001 C 
HETATM    5  C1  UNL     1      25.707  38.347  15.114  1.00  0.00     0.005 C 
ENDBRANCH   2   4
ENDBRANCH   1   2
BRANCH   1   6
HETATM    6  C6  UNL     1      25.008  36.216  18.503  1.00  0.00    -0.014 C 
HETATM    7  C7  UNL     1      23.712  36.393  18.577  1.00  0.00     0.008 C 
BRANCH   7   8
HETATM    8  C8  UNL     1      23.040  37.041  19.717  1.00  0.00     0.134 C 
HETATM    9  C9  UNL     1      23.524  36.597  21.075  1.00  0.00     0.050 C 
HETATM   10  C10 UNL     1      21.510  36.936  19.622  1.00  0.00     0.050 C 
BRANCH   8  11
HETATM   11  N1  UNL     1      23.285  38.504  19.715  1.00  0.00    -0.068 N 
ATOM     12  H13 UNL     1      23.909  38.782  20.472  1.00  0.00     0.275 HD
ATOM     13  H12 UNL     1      23.864  38.788  18.924  1.00  0.00     0.275 HD
ATOM     14  H11 UNL     1      22.406  39.020  19.742  1.00  0.00     0.275 HD
ENDBRANCH   8  11
ENDBRANCH   7   8
ENDBRANCH   1   6
BRANCH   1  15
HETATM   15  C11 UNL     1      24.536  34.842  16.614  1.00  0.00     0.002 C 
BRANCH  15  16
HETATM   16  C12 UNL     1      24.131  35.151  15.264  1.00  0.00    -0.005 A 
HETATM   17  C13 UNL     1      25.008  34.867  14.244  1.00  0.00     0.014 A 
HETATM   18  C14 UNL     1      24.712  35.092  12.936  1.00  0.00     0.001 A 
HETATM   19  C15 UNL     1      23.485  35.624  12.617  1.00  0.00     0.003 A 
HETATM   20  C16 UNL     1      22.579  35.923  13.590  1.00  0.00     0.037 A 
HETATM   21  C17 UNL     1      22.914  35.682  14.934  1.00  0.00     0.079 A 
BRANCH  21  22
HETATM   22  O1  UNL     1      21.955  36.009  15.877  1.00  0.00    -0.341 OA
BRANCH  22  23
HETATM   23  C18 UNL     1      20.833  36.757  15.719  1.00  0.00     0.278 C 
BRANCH  23  24
HETATM   24  C19 UNL     1      19.607  35.892  15.784  1.00  0.00     0.244 C 
HETATM   25  O2  UNL     1      19.285  35.229  16.804  1.00  0.00    -0.271 OA
HETATM   26  N2  UNL     1      18.732  35.779  14.667  1.00  0.00    -0.350 N 
HETATM   27  C20 UNL     1      17.517  34.996  14.574  1.00  0.00     0.126 C 
HETATM   28  C23 UNL     1      18.945  36.456  13.407  1.00  0.00     0.126 C 
HETATM   29  C21 UNL     1      17.483  34.583  13.122  1.00  0.00     0.021 C 
HETATM   30  C22 UNL     1      18.128  35.713  12.384  1.00  0.00     0.021 C 
ENDBRANCH  23  24
ENDBRANCH  22  23
ENDBRANCH  21  22
ENDBRANCH  15  16
ENDBRANCH   1  15
BRANCH   1  31
HETATM   31  C24 UNL     1      26.432  34.398  17.987  1.00  0.00    -0.002 C 
HETATM   32  C25 UNL     1      26.322  33.063  17.331  1.00  0.00     0.011 C 
BRANCH  31  33
HETATM   33  C26 UNL     1      26.372  34.405  19.463  1.00  0.00     0.019 C 
BRANCH  33  34
HETATM   34  C27 UNL     1      26.247  33.063  20.133  1.00  0.00     0.074 C 
HETATM   35  C28 UNL     1      25.267  33.290  21.303  1.00  0.00     0.020 C 
BRANCH  34  36
HETATM   36  C29 UNL     1      27.540  32.717  20.838  1.00  0.00     0.222 C 
HETATM   37  O3  UNL     1      28.383  33.571  21.181  1.00  0.00    -0.273 OA
HETATM   38  N3  UNL     1      27.852  31.362  21.142  1.00  0.00    -0.353 N 
ATOM     39  H3  UNL     1      27.172  30.652  20.868  1.00  0.00     0.163 HD
BRANCH  38  40
HETATM   40  C30 UNL     1      29.038  30.917  21.800  1.00  0.00     0.022 C 
HETATM   41  C31 UNL     1      30.290  31.237  20.982  1.00  0.00     0.037 C 
HETATM   42  C32 UNL     1      29.203  31.523  23.160  1.00  0.00     0.037 C 
HETATM   43  C33 UNL     1      29.019  29.409  21.936  1.00  0.00     0.037 C 
ENDBRANCH  38  40
ENDBRANCH  34  36
ENDBRANCH  33  34
ENDBRANCH  31  33
ENDBRANCH   1  31
TORSDOF 15
ENDMDL
MODEL 3
REMARK VINA RESULT: -7.237428687      3.631      7.201
REMARK  15 active torsions:
REMARK  status: ('A' for Active; 'I' for Inactive)
REMARK    1  A    between atoms: C2_2  and  C3_3 
REMARK    2  A    between atoms: C3_3  and  C5_5 
REMARK    3  A    between atoms: C5_5  and  C6_6 
REMARK    4  A    between atoms: C5_5  and  C11_15 
REMARK    5  A    between atoms: C5_5  and  C24_31 
REMARK    6  A    between atoms: C7_7  and  C8_8 
REMARK    7  A    between atoms: C8_8  and  N1_11 
REMARK    8  A    between atoms: C11_15  and  C12_16 
REMARK    9  A    between atoms: C17_21  and  O1_22 
REMARK   10  A    between atoms: O1_22  and  C18_23 
REMARK   11  A    between atoms: C18_23  and  C19_24 
REMARK       I    between atoms: C19_24  and  N2_26 
REMARK   12  A    between atoms: C24_31  and  C26_33 
REMARK   13  A    between atoms: C26_33  and  C27_34 
REMARK   14  A    between atoms: C27_34  and  C29_36 
REMARK       I    between atoms: C29_36  and  N3_38 
REMARK   15  A    between atoms: N3_38  and  C30_40 
ROOT
HETATM    1  C5  UNL     1      26.284  34.468  18.024  1.00  0.00     0.002 C 
ENDROOT
BRANCH   1   2
HETATM    2  C3  UNL     1      26.836  35.604  17.324  1.00  0.00    -0.003 C 
HETATM    3  C4  UNL     1      28.305  35.967  17.682  1.00  0.00     0.011 C 
BRANCH   2   4
HETATM    4  C2  UNL     1      26.176  36.945  17.464  1.00  0.00     0.001 C 
HETATM    5  C1  UNL     1      26.287  37.616  16.076  1.00  0.00     0.005 C 
ENDBRANCH   2   4
ENDBRANCH   1   2
BRANCH   1   6
HETATM    6  C6  UNL     1      26.171  34.869  19.528  1.00  0.00    -0.014 C 
HETATM    7  C7  UNL     1      25.265  34.371  20.332  1.00  0.00     0.008 C 
BRANCH   7   8
HETATM    8  C8  UNL     1      25.142  34.740  21.753  1.00  0.00     0.134 C 
HETATM    9  C9  UNL     1      24.673  33.629  22.660  1.00  0.00     0.050 C 
HETATM   10  C10 UNL     1      24.290  36.002  21.952  1.00  0.00     0.050 C 
BRANCH   8  11
HETATM   11  N1  UNL     1      26.459  35.123  22.317  1.00  0.00    -0.068 N 
ATOM     12  H13 UNL     1      26.480  35.018  23.332  1.00  0.00     0.275 HD
ATOM     13  H12 UNL     1      27.183  34.445  22.078  1.00  0.00     0.275 HD
ATOM     14  H11 UNL     1      26.718  36.067  22.031  1.00  0.00     0.275 HD
ENDBRANCH   8  11
ENDBRANCH   7   8
ENDBRANCH   1   6
BRANCH   1  15
HETATM   15  C11 UNL     1      24.878  34.002  17.725  1.00  0.00     0.002 C 
BRANCH  15  16
HETATM   16  C12 UNL     1      24.015  34.697  16.801  1.00  0.00    -0.005 A 
HETATM   17  C13 UNL     1      24.268  34.567  15.456  1.00  0.00     0.014 A 
HETATM   18  C14 UNL     1      23.498  35.157  14.503  1.00  0.00     0.001 A 
HETATM   19  C15 UNL     1      22.420  35.915  14.898  1.00  0.00     0.003 A 
HETATM   20  C16 UNL     1      22.125  36.075  16.218  1.00  0.00     0.037 A 
HETATM   21  C17 UNL     1      22.941  35.455  17.181  1.00  0.00     0.079 A 
BRANCH  21  22
HETATM   22  O1  UNL     1      22.594  35.657  18.506  1.00  0.00    -0.341 OA
BRANCH  22  23
HETATM   23  C18 UNL     1      21.676  36.515  19.019  1.00  0.00     0.278 C 
BRANCH  23  24
HETATM   24  C19 UNL     1      22.348  37.741  19.570  1.00  0.00     0.244 C 
HETATM   25  O2  UNL     1      23.371  38.259  19.050  1.00  0.00    -0.271 OA
HETATM   26  N2  UNL     1      21.848  38.389  20.735  1.00  0.00    -0.350 N 
HETATM   27  C20 UNL     1      22.375  39.572  21.382  1.00  0.00     0.126 C 
HETATM   28  C23 UNL     1      20.692  37.932  21.475  1.00  0.00     0.126 C 
HETATM   29  C21 UNL     1      22.069  39.334  22.840  1.00  0.00     0.021 C 
HETATM   30  C22 UNL     1      20.795  38.548  22.844  1.00  0.00     0.021 C 
ENDBRANCH  23  24
ENDBRANCH  22  23
ENDBRANCH  21  22
ENDBRANCH  15  16
ENDBRANCH   1  15
BRANCH   1  31
HETATM   31  C24 UNL     1      27.074  33.176  18.143  1.00  0.00    -0.002 C 
HETATM   32  C25 UNL     1      26.364  31.949  17.680  1.00  0.00     0.011 C 
BRANCH  31  33
HETATM   33  C26 UNL     1      27.900  33.031  19.359  1.00  0.00     0.019 C 
BRANCH  33  34
HETATM   34  C27 UNL     1      28.090  31.629  19.873  1.00  0.00     0.074 C 
HETATM   35  C28 UNL     1      27.436  31.625  21.271  1.00  0.00     0.020 C 
BRANCH  34  36
HETATM   36  C29 UNL     1      29.551  31.388  20.182  1.00  0.00     0.222 C 
HETATM   37  O3  UNL     1      30.418  32.285  20.142  1.00  0.00    -0.273 OA
HETATM   38  N3  UNL     1      30.004  30.087  20.540  1.00  0.00    -0.353 N 
ATOM     39  H3  UNL     1      29.308  29.342  20.577  1.00  0.00     0.163 HD
BRANCH  38  40
HETATM   40  C30 UNL     1      31.354  29.740  20.850  1.00  0.00     0.022 C 
HETATM   41  C31 UNL     1      31.515  28.234  21.059  1.00  0.00     0.037 C 
HETATM   42  C32 UNL     1      32.316  30.167  19.783  1.00  0.00     0.037 C 
HETATM   43  C33 UNL     1      31.764  30.376  22.161  1.00  0.00     0.037 C 
ENDBRANCH  38  40
ENDBRANCH  34  36
ENDBRANCH  33  34
ENDBRANCH  31  33
ENDBRANCH   1  31
TORSDOF 15
ENDMDL
MODEL 4
REMARK VINA RESULT: -7.221774376      3.560      8.744
REMARK  15 active torsions:
REMARK  status: ('A' for Active; 'I' for Inactive)
REMARK    1  A    between atoms: C2_2  and  C3_3 
REMARK    2  A    between atoms: C3_3  and  C5_5 
REMARK    3  A    between atoms: C5_5  and  C6_6 
REMARK    4  A    between atoms: C5_5  and  C11_15 
REMARK    5  A    between atoms: C5_5  and  C24_31 
REMARK    6  A    between atoms: C7_7  and  C8_8 
REMARK    7  A    between atoms: C8_8  and  N1_11 
REMARK    8  A    between atoms: C11_15  and  C12_16 
REMARK    9  A    between atoms: C17_21  and  O1_22 
REMARK   10  A    between atoms: O1_22  and  C18_23 
REMARK   11  A    between atoms: C18_23  and  C19_24 
REMARK       I    between atoms: C19_24  and  N2_26 
REMARK   12  A    between atoms: C24_31  and  C26_33 
REMARK   13  A    between atoms: C26_33  and  C27_34 
REMARK   14  A    between atoms: C27_34  and  C29_36 
REMARK       I    between atoms: C29_36  and  N3_38 
REMARK   15  A    between atoms: N3_38  and  C30_40 
ROOT
HETATM    1  C5  UNL     1      26.053  34.499  18.013  1.00  0.00     0.002 C 
ENDROOT
BRANCH   1   2
HETATM    2  C3  UNL     1      26.501  35.654  17.272  1.00  0.00    -0.003 C 
HETATM    3  C4  UNL     1      27.993  36.045  17.470  1.00  0.00     0.011 C 
BRANCH   2   4
HETATM    4  C2  UNL     1      25.834  36.979  17.504  1.00  0.00     0.001 C 
HETATM    5  C1  UNL     1      26.165  37.840  16.263  1.00  0.00     0.005 C 
ENDBRANCH   2   4
ENDBRANCH   1   2
BRANCH   1   6
HETATM    6  C6  UNL     1      25.990  34.915  19.516  1.00  0.00    -0.014 C 
HETATM    7  C7  UNL     1      25.159  34.371  20.370  1.00  0.00     0.008 C 
BRANCH   7   8
HETATM    8  C8  UNL     1      25.083  34.754  21.792  1.00  0.00     0.134 C 
HETATM    9  C9  UNL     1      24.633  33.656  22.722  1.00  0.00     0.050 C 
HETATM   10  C10 UNL     1      24.248  36.026  22.005  1.00  0.00     0.050 C 
BRANCH   8  11
HETATM   11  N1  UNL     1      26.421  35.131  22.311  1.00  0.00    -0.068 N 
ATOM     12  H13 UNL     1      26.643  34.634  23.174  1.00  0.00     0.275 HD
ATOM     13  H12 UNL     1      27.170  34.764  21.724  1.00  0.00     0.275 HD
ATOM     14  H11 UNL     1      26.495  36.141  22.428  1.00  0.00     0.275 HD
ENDBRANCH   8  11
ENDBRANCH   7   8
ENDBRANCH   1   6
BRANCH   1  15
HETATM   15  C11 UNL     1      24.666  33.944  17.789  1.00  0.00     0.002 C 
BRANCH  15  16
HETATM   16  C12 UNL     1      23.583  34.755  17.286  1.00  0.00    -0.005 A 
HETATM   17  C13 UNL     1      22.635  35.195  18.180  1.00  0.00     0.014 A 
HETATM   18  C14 UNL     1      21.591  35.986  17.814  1.00  0.00     0.001 A 
HETATM   19  C15 UNL     1      21.477  36.364  16.496  1.00  0.00     0.003 A 
HETATM   20  C16 UNL     1      22.390  35.956  15.571  1.00  0.00     0.037 A 
HETATM   21  C17 UNL     1      23.457  35.136  15.978  1.00  0.00     0.079 A 
BRANCH  21  22
HETATM   22  O1  UNL     1      24.350  34.750  14.993  1.00  0.00    -0.341 OA
BRANCH  22  23
HETATM   23  C18 UNL     1      24.140  34.641  13.656  1.00  0.00     0.278 C 
BRANCH  23  24
HETATM   24  C19 UNL     1      24.657  35.855  12.939  1.00  0.00     0.244 C 
HETATM   25  O2  UNL     1      25.791  36.356  13.161  1.00  0.00    -0.271 OA
HETATM   26  N2  UNL     1      23.869  36.513  11.952  1.00  0.00    -0.350 N 
HETATM   27  C20 UNL     1      24.225  37.682  11.175  1.00  0.00     0.126 C 
HETATM   28  C23 UNL     1      22.539  36.091  11.573  1.00  0.00     0.126 C 
HETATM   29  C21 UNL     1      22.901  38.379  10.975  1.00  0.00     0.021 C 
HETATM   30  C22 UNL     1      21.889  37.278  10.915  1.00  0.00     0.021 C 
ENDBRANCH  23  24
ENDBRANCH  22  23
ENDBRANCH  21  22
ENDBRANCH  15  16
ENDBRANCH   1  15
BRANCH   1  31
HETATM   31  C24 UNL     1      26.925  33.258  18.109  1.00  0.00    -0.002 C 
HETATM   32  C25 UNL     1      26.292  31.994  17.634  1.00  0.00     0.011 C 
BRANCH  31  33
HETATM   33  C26 UNL     1      27.768  33.150  19.318  1.00  0.00     0.019 C 
BRANCH  33  34
HETATM   34  C27 UNL     1      27.984  31.762  19.858  1.00  0.00     0.074 C 
HETATM   35  C28 UNL     1      27.389  31.791  21.282  1.00  0.00     0.020 C 
BRANCH  34  36
HETATM   36  C29 UNL     1      29.457  31.532  20.113  1.00  0.00     0.222 C 
HETATM   37  O3  UNL     1      30.310  32.444  20.073  1.00  0.00    -0.273 OA
HETATM   38  N3  UNL     1      29.939  30.228  20.415  1.00  0.00    -0.353 N 
ATOM     39  H3  UNL     1      29.255  29.472  20.451  1.00  0.00     0.163 HD
BRANCH  38  40
HETATM   40  C30 UNL     1      31.303  29.891  20.670  1.00  0.00     0.022 C 
HETATM   41  C31 UNL     1      32.194  30.196  19.466  1.00  0.00     0.037 C 
HETATM   42  C32 UNL     1      31.861  30.615  21.857  1.00  0.00     0.037 C 
HETATM   43  C33 UNL     1      31.433  28.400  20.902  1.00  0.00     0.037 C 
ENDBRANCH  38  40
ENDBRANCH  34  36
ENDBRANCH  33  34
ENDBRANCH  31  33
ENDBRANCH   1  31
TORSDOF 15
ENDMDL
MODEL 5
REMARK VINA RESULT: -7.137944737      1.857      2.554
REMARK  15 active torsions:
REMARK  status: ('A' for Active; 'I' for Inactive)
REMARK    1  A    between atoms: C2_2  and  C3_3 
REMARK    2  A    between atoms: C3_3  and  C5_5 
REMARK    3  A    between atoms: C5_5  and  C6_6 
REMARK    4  A    between atoms: C5_5  and  C11_15 
REMARK    5  A    between atoms: C5_5  and  C24_31 
REMARK    6  A    between atoms: C7_7  and  C8_8 
REMARK    7  A    between atoms: C8_8  and  N1_11 
REMARK    8  A    between atoms: C11_15  and  C12_16 
REMARK    9  A    between atoms: C17_21  and  O1_22 
REMARK   10  A    between atoms: O1_22  and  C18_23 
REMARK   11  A    between atoms: C18_23  and  C19_24 
REMARK       I    between atoms: C19_24  and  N2_26 
REMARK   12  A    between atoms: C24_31  and  C26_33 
REMARK   13  A    between atoms: C26_33  and  C27_34 
REMARK   14  A    between atoms: C27_34  and  C29_36 
REMARK       I    between atoms: C29_36  and  N3_38 
REMARK   15  A    between atoms: N3_38  and  C30_40 
ROOT
HETATM    1  C5  UNL     1      23.322  36.902  19.086  1.00  0.00     0.002 C 
ENDROOT
BRANCH   1   2
HETATM    2  C3  UNL     1      22.338  35.953  18.624  1.00  0.00    -0.003 C 
HETATM    3  C4  UNL     1      22.467  35.519  17.136  1.00  0.00     0.011 C 
BRANCH   2   4
HETATM    4  C2  UNL     1      20.883  36.316  18.682  1.00  0.00     0.001 C 
HETATM    5  C1  UNL     1      20.244  35.706  17.413  1.00  0.00     0.005 C 
ENDBRANCH   2   4
ENDBRANCH   1   2
BRANCH   1   6
HETATM    6  C6  UNL     1      22.866  37.382  20.500  1.00  0.00    -0.014 C 
HETATM    7  C7  UNL     1      23.255  36.804  21.608  1.00  0.00     0.008 C 
BRANCH   7   8
HETATM    8  C8  UNL     1      22.832  37.242  22.950  1.00  0.00     0.134 C 
HETATM    9  C9  UNL     1      21.398  37.698  23.047  1.00  0.00     0.050 C 
HETATM   10  C10 UNL     1      23.780  38.296  23.541  1.00  0.00     0.050 C 
BRANCH   8  11
HETATM   11  N1  UNL     1      22.913  36.125  23.923  1.00  0.00    -0.068 N 
ATOM     12  H13 UNL     1      22.487  35.274  23.555  1.00  0.00     0.275 HD
ATOM     13  H12 UNL     1      23.870  35.785  24.027  1.00  0.00     0.275 HD
ATOM     14  H11 UNL     1      22.509  36.392  24.820  1.00  0.00     0.275 HD
ENDBRANCH   8  11
ENDBRANCH   7   8
ENDBRANCH   1   6
BRANCH   1  15
HETATM   15  C11 UNL     1      24.740  36.455  19.358  1.00  0.00     0.002 C 
BRANCH  15  16
HETATM   16  C12 UNL     1      25.268  35.213  18.847  1.00  0.00    -0.005 A 
HETATM   17  C13 UNL     1      25.664  35.170  17.531  1.00  0.00     0.014 A 
HETATM   18  C14 UNL     1      26.201  34.058  16.961  1.00  0.00     0.001 A 
HETATM   19  C15 UNL     1      26.357  32.929  17.731  1.00  0.00     0.003 A 
HETATM   20  C16 UNL     1      25.981  32.919  19.040  1.00  0.00     0.037 A 
HETATM   21  C17 UNL     1      25.426  34.082  19.601  1.00  0.00     0.079 A 
BRANCH  21  22
HETATM   22  O1  UNL     1      25.060  34.009  20.935  1.00  0.00    -0.341 OA
BRANCH  22  23
HETATM   23  C18 UNL     1      25.086  32.934  21.762  1.00  0.00     0.278 C 
BRANCH  23  24
HETATM   24  C19 UNL     1      25.698  33.298  23.084  1.00  0.00     0.244 C 
HETATM   25  O2  UNL     1      25.283  34.248  23.798  1.00  0.00    -0.271 OA
HETATM   26  N2  UNL     1      26.806  32.569  23.603  1.00  0.00    -0.350 N 
HETATM   27  C20 UNL     1      27.500  32.791  24.855  1.00  0.00     0.126 C 
HETATM   28  C23 UNL     1      27.426  31.455  22.920  1.00  0.00     0.126 C 
HETATM   29  C21 UNL     1      28.920  32.392  24.536  1.00  0.00     0.021 C 
HETATM   30  C22 UNL     1      28.797  31.301  23.520  1.00  0.00     0.021 C 
ENDBRANCH  23  24
ENDBRANCH  22  23
ENDBRANCH  21  22
ENDBRANCH  15  16
ENDBRANCH   1  15
BRANCH   1  31
HETATM   31  C24 UNL     1      23.495  38.238  18.385  1.00  0.00    -0.002 C 
HETATM   32  C25 UNL     1      22.823  39.397  19.043  1.00  0.00     0.011 C 
BRANCH  31  33
HETATM   33  C26 UNL     1      23.441  38.207  16.909  1.00  0.00     0.019 C 
BRANCH  33  34
HETATM   34  C27 UNL     1      24.700  38.606  16.187  1.00  0.00     0.074 C 
HETATM   35  C28 UNL     1      24.346  39.923  15.463  1.00  0.00     0.020 C 
BRANCH  34  36
HETATM   36  C29 UNL     1      24.962  37.652  15.043  1.00  0.00     0.222 C 
HETATM   37  O3  UNL     1      26.106  37.272  14.716  1.00  0.00    -0.273 OA
HETATM   38  N3  UNL     1      23.881  37.139  14.273  1.00  0.00    -0.353 N 
ATOM     39  H3  UNL     1      22.940  37.440  14.528  1.00  0.00     0.163 HD
BRANCH  38  40
HETATM   40  C30 UNL     1      24.006  36.237  13.173  1.00  0.00     0.022 C 
HETATM   41  C31 UNL     1      24.808  36.856  12.027  1.00  0.00     0.037 C 
HETATM   42  C32 UNL     1      24.665  34.948  13.559  1.00  0.00     0.037 C 
HETATM   43  C33 UNL     1      22.640  35.935  12.594  1.00  0.00     0.037 C 
ENDBRANCH  38  40
ENDBRANCH  34  36
ENDBRANCH  33  34
ENDBRANCH  31  33
ENDBRANCH   1  31
TORSDOF 15
ENDMDL
