MODEL 1
REMARK VINA RESULT: -7.482713464      0.000      0.000
REMARK  12 active torsions:
REMARK  status: ('A' for Active; 'I' for Inactive)
REMARK    1  A    between atoms: C2_2  and  C4_4 
REMARK    2  A    between atoms: C4_4  and  C5_5 
REMARK    3  A    between atoms: C7_10  and  C8_11 
REMARK    4  A    between atoms: C8_11  and  C9_12 
REMARK    5  A    between atoms: C9_12  and  C10_13 
REMARK    6  A    between atoms: C10_13  and  N2_14 
REMARK    7  A    between atoms: N6_23  and  C13_24 
REMARK    8  A    between atoms: C13_24  and  C14_25 
REMARK    9  A    between atoms: C19_31  and  C20_32 
REMARK   10  A    between atoms: C20_32  and  C21_33 
REMARK   11  A    between atoms: C25_40  and  C26_41 
REMARK   12  A    between atoms: C26_41  and  C27_42 
ROOT
HETATM    1  C5  UNL     1      14.704 -16.153  21.810  1.00  0.00     0.177 C 
HETATM    2  N1  UNL     1      14.883 -14.751  22.277  1.00  0.00    -0.346 N 
ATOM      3  H1  UNL     1      14.597 -14.526  23.229  1.00  0.00     0.163 HD
HETATM    4  C6  UNL     1      15.419 -13.718  21.493  1.00  0.00     0.241 C 
HETATM    5  O1  UNL     1      16.122 -12.874  22.160  1.00  0.00    -0.271 OA
HETATM    6  C7  UNL     1      15.265 -13.508  20.044  1.00  0.00     0.178 C 
HETATM    7  N5  UNL     1      16.008 -14.349  19.181  1.00  0.00    -0.329 N 
ATOM      8  H5  UNL     1      15.556 -15.232  18.938  1.00  0.00     0.165 HD
HETATM    9  C12 UNL     1      17.294 -14.144  18.599  1.00  0.00     0.325 C 
HETATM   10  O2  UNL     1      17.394 -14.392  17.345  1.00  0.00    -0.247 OA
HETATM   11  N6  UNL     1      18.473 -13.697  19.244  1.00  0.00    -0.268 N 
HETATM   12  C18 UNL     1      18.954 -14.215  20.480  1.00  0.00     0.250 C 
HETATM   13  O3  UNL     1      19.411 -13.300  21.273  1.00  0.00    -0.271 OA
HETATM   14  C19 UNL     1      19.026 -15.557  21.011  1.00  0.00     0.177 C 
HETATM   15  N7  UNL     1      18.211 -16.572  20.416  1.00  0.00    -0.346 N 
ATOM     16  H7  UNL     1      18.072 -16.522  19.407  1.00  0.00     0.163 HD
HETATM   17  C24 UNL     1      17.580 -17.646  21.103  1.00  0.00     0.241 C 
HETATM   18  O4  UNL     1      16.961 -18.508  20.429  1.00  0.00    -0.271 OA
HETATM   19  C25 UNL     1      17.584 -17.857  22.573  1.00  0.00     0.177 C 
HETATM   20  N8  UNL     1      16.477 -17.332  23.289  1.00  0.00    -0.346 N 
ATOM     21  H8  UNL     1      16.691 -17.125  24.265  1.00  0.00     0.163 HD
HETATM   22  C30 UNL     1      15.159 -17.039  22.944  1.00  0.00     0.241 C 
HETATM   23  O5  UNL     1      14.214 -17.544  23.627  1.00  0.00    -0.271 OA
ENDROOT
BRANCH   6  24
HETATM   24  C8  UNL     1      15.417 -12.020  19.677  1.00  0.00     0.036 C 
BRANCH  24  25
HETATM   25  C9  UNL     1      14.105 -11.290  19.721  1.00  0.00     0.022 C 
BRANCH  25  26
HETATM   26  C10 UNL     1      14.016 -10.362  20.911  1.00  0.00     0.122 C 
BRANCH  26  27
HETATM   27  N2  UNL     1      13.444 -11.078  22.028  1.00  0.00    -0.367 N 
HETATM   28  C11 UNL     1      12.475 -10.537  22.673  1.00  0.00     0.196 C 
HETATM   29  N3  UNL     1      11.846 -11.162  23.787  1.00  0.00    -0.067 NA
HETATM   30  N4  UNL     1      11.988  -9.265  22.289  1.00  0.00    -0.067 NA
ATOM     31  H2  UNL     1      13.802 -11.994  22.298  1.00  0.00     0.161 HD
ENDBRANCH  26  27
ENDBRANCH  25  26
ENDBRANCH  24  25
ENDBRANCH   6  24
BRANCH   1  32
HETATM   32  C4  UNL     1      13.236 -16.293  21.581  1.00  0.00     0.038 C 
BRANCH  32  33
HETATM   33  C2  UNL     1      12.870 -16.345  20.141  1.00  0.00    -0.020 C 
HETATM   34  C1  UNL     1      11.387 -16.610  19.931  1.00  0.00     0.009 C 
HETATM   35  C3  UNL     1      13.670 -17.398  19.385  1.00  0.00     0.009 C 
ENDBRANCH  32  33
ENDBRANCH   1  32
BRANCH  11  36
HETATM   36  C13 UNL     1      19.255 -12.637  18.656  1.00  0.00     0.145 C 
BRANCH  36  37
HETATM   37  C14 UNL     1      20.506 -12.925  17.958  1.00  0.00    -0.035 C 
HETATM   38  C15 UNL     1      21.651 -12.286  18.823  1.00  0.00     0.016 C 
HETATM   39  C16 UNL     1      20.914 -14.407  17.951  1.00  0.00     0.016 C 
HETATM   40  C17 UNL     1      20.760 -12.393  16.602  1.00  0.00     0.016 C 
ENDBRANCH  36  37
ENDBRANCH  11  36
BRANCH  14  41
HETATM   41  C20 UNL     1      20.419 -16.116  21.148  1.00  0.00     0.038 C 
BRANCH  41  42
HETATM   42  C21 UNL     1      21.062 -15.963  22.474  1.00  0.00    -0.020 C 
HETATM   43  C22 UNL     1      22.111 -14.885  22.532  1.00  0.00     0.009 C 
HETATM   44  C23 UNL     1      19.979 -15.579  23.501  1.00  0.00     0.009 C 
ENDBRANCH  41  42
ENDBRANCH  14  41
BRANCH  19  45
HETATM   45  C26 UNL     1      17.866 -19.295  22.843  1.00  0.00     0.038 C 
BRANCH  45  46
HETATM   46  C27 UNL     1      19.177 -19.696  23.389  1.00  0.00    -0.020 C 
HETATM   47  C28 UNL     1      20.374 -19.536  22.533  1.00  0.00     0.009 C 
HETATM   48  C29 UNL     1      19.399 -18.844  24.662  1.00  0.00     0.009 C 
ENDBRANCH  45  46
ENDBRANCH  19  45
TORSDOF 12
ENDMDL
MODEL 2
REMARK VINA RESULT: -7.203481219      2.723      6.362
REMARK  12 active torsions:
REMARK  status: ('A' for Active; 'I' for Inactive)
REMARK    1  A    between atoms: C2_2  and  C4_4 
REMARK    2  A    between atoms: C4_4  and  C5_5 
REMARK    3  A    between atoms: C7_10  and  C8_11 
REMARK    4  A    between atoms: C8_11  and  C9_12 
REMARK    5  A    between atoms: C9_12  and  C10_13 
REMARK    6  A    between atoms: C10_13  and  N2_14 
REMARK    7  A    between atoms: N6_23  and  C13_24 
REMARK    8  A    between atoms: C13_24  and  C14_25 
REMARK    9  A    between atoms: C19_31  and  C20_32 
REMARK   10  A    between atoms: C20_32  and  C21_33 
REMARK   11  A    between atoms: C25_40  and  C26_41 
REMARK   12  A    between atoms: C26_41  and  C27_42 
ROOT
HETATM    1  C5  UNL     1      20.612 -15.448  24.174  1.00  0.00     0.177 C 
HETATM    2  N1  UNL     1      20.682 -15.989  22.789  1.00  0.00    -0.346 N 
ATOM      3  H1  UNL     1      21.396 -16.688  22.587  1.00  0.00     0.163 HD
HETATM    4  C6  UNL     1      19.831 -15.601  21.743  1.00  0.00     0.241 C 
HETATM    5  O1  UNL     1      19.541 -16.553  20.931  1.00  0.00    -0.271 OA
HETATM    6  C7  UNL     1      19.258 -14.269  21.490  1.00  0.00     0.178 C 
HETATM    7  N5  UNL     1      18.190 -13.849  22.318  1.00  0.00    -0.329 N 
ATOM      8  H5  UNL     1      18.466 -13.389  23.186  1.00  0.00     0.165 HD
HETATM    9  C12 UNL     1      16.783 -13.976  22.118  1.00  0.00     0.325 C 
HETATM   10  O2  UNL     1      16.084 -12.922  22.331  1.00  0.00    -0.247 OA
HETATM   11  N6  UNL     1      16.068 -15.127  21.710  1.00  0.00    -0.268 N 
HETATM   12  C18 UNL     1      16.251 -16.423  22.270  1.00  0.00     0.250 C 
HETATM   13  O3  UNL     1      16.238 -17.369  21.386  1.00  0.00    -0.271 OA
HETATM   14  C19 UNL     1      16.448 -16.877  23.628  1.00  0.00     0.177 C 
HETATM   15  N7  UNL     1      16.870 -15.927  24.612  1.00  0.00    -0.346 N 
ATOM     16  H7  UNL     1      16.500 -14.981  24.531  1.00  0.00     0.163 HD
HETATM   17  C24 UNL     1      17.756 -16.184  25.694  1.00  0.00     0.241 C 
HETATM   18  O4  UNL     1      17.969 -15.265  26.527  1.00  0.00    -0.271 OA
HETATM   19  C25 UNL     1      18.470 -17.461  25.947  1.00  0.00     0.177 C 
HETATM   20  N8  UNL     1      19.786 -17.564  25.425  1.00  0.00    -0.346 N 
ATOM     21  H8  UNL     1      20.075 -18.527  25.250  1.00  0.00     0.163 HD
HETATM   22  C30 UNL     1      20.768 -16.630  25.100  1.00  0.00     0.241 C 
HETATM   23  O5  UNL     1      21.926 -16.749  25.608  1.00  0.00    -0.271 OA
ENDROOT
BRANCH   6  24
HETATM   24  C8  UNL     1      18.946 -14.071  19.994  1.00  0.00     0.036 C 
BRANCH  24  25
HETATM   25  C9  UNL     1      18.891 -12.619  19.614  1.00  0.00     0.022 C 
BRANCH  25  26
HETATM   26  C10 UNL     1      17.584 -12.260  18.947  1.00  0.00     0.122 C 
BRANCH  26  27
HETATM   27  N2  UNL     1      16.861 -11.334  19.788  1.00  0.00    -0.367 N 
HETATM   28  C11 UNL     1      15.694 -10.949  19.417  1.00  0.00     0.196 C 
HETATM   29  N3  UNL     1      14.904 -10.039  20.177  1.00  0.00    -0.067 NA
HETATM   30  N4  UNL     1      15.140 -11.427  18.206  1.00  0.00    -0.067 NA
ATOM     31  H2  UNL     1      17.269 -10.994  20.659  1.00  0.00     0.161 HD
ENDBRANCH  26  27
ENDBRANCH  25  26
ENDBRANCH  24  25
ENDBRANCH   6  24
BRANCH   1  32
HETATM   32  C4  UNL     1      21.781 -14.529  24.283  1.00  0.00     0.038 C 
BRANCH  32  33
HETATM   33  C2  UNL     1      21.469 -13.265  25.001  1.00  0.00    -0.020 C 
HETATM   34  C1  UNL     1      21.909 -13.302  26.457  1.00  0.00     0.009 C 
HETATM   35  C3  UNL     1      19.983 -12.927  24.944  1.00  0.00     0.009 C 
ENDBRANCH  32  33
ENDBRANCH   1  32
BRANCH  11  36
HETATM   36  C13 UNL     1      15.098 -15.030  20.646  1.00  0.00     0.145 C 
BRANCH  36  37
HETATM   37  C14 UNL     1      13.665 -15.054  20.932  1.00  0.00    -0.035 C 
HETATM   38  C15 UNL     1      13.097 -13.670  20.456  1.00  0.00     0.016 C 
HETATM   39  C16 UNL     1      12.851 -16.035  20.073  1.00  0.00     0.016 C 
HETATM   40  C17 UNL     1      13.169 -15.173  22.321  1.00  0.00     0.016 C 
ENDBRANCH  36  37
ENDBRANCH  11  36
BRANCH  14  41
HETATM   41  C20 UNL     1      15.299 -17.658  24.214  1.00  0.00     0.038 C 
BRANCH  41  42
HETATM   42  C21 UNL     1      15.608 -19.027  24.687  1.00  0.00    -0.020 C 
HETATM   43  C22 UNL     1      15.062 -19.349  26.052  1.00  0.00     0.009 C 
HETATM   44  C23 UNL     1      14.974 -20.037  23.710  1.00  0.00     0.009 C 
ENDBRANCH  41  42
ENDBRANCH  14  41
BRANCH  19  45
HETATM   45  C26 UNL     1      18.357 -17.787  27.397  1.00  0.00     0.038 C 
BRANCH  45  46
HETATM   46  C27 UNL     1      19.097 -18.937  27.950  1.00  0.00    -0.020 C 
HETATM   47  C28 UNL     1      19.210 -19.059  29.421  1.00  0.00     0.009 C 
HETATM   48  C29 UNL     1      18.381 -20.208  27.433  1.00  0.00     0.009 C 
ENDBRANCH  45  46
ENDBRANCH  19  45
TORSDOF 12
ENDMDL
MODEL 3
REMARK VINA RESULT: -7.117701978      2.530      4.407
REMARK  12 active torsions:
REMARK  status: ('A' for Active; 'I' for Inactive)
REMARK    1  A    between atoms: C2_2  and  C4_4 
REMARK    2  A    between atoms: C4_4  and  C5_5 
REMARK    3  A    between atoms: C7_10  and  C8_11 
REMARK    4  A    between atoms: C8_11  and  C9_12 
REMARK    5  A    between atoms: C9_12  and  C10_13 
REMARK    6  A    between atoms: C10_13  and  N2_14 
REMARK    7  A    between atoms: N6_23  and  C13_24 
REMARK    8  A    between atoms: C13_24  and  C14_25 
REMARK    9  A    between atoms: C19_31  and  C20_32 
REMARK   10  A    between atoms: C20_32  and  C21_33 
REMARK   11  A    between atoms: C25_40  and  C26_41 
REMARK   12  A    between atoms: C26_41  and  C27_42 
ROOT
HETATM    1  C5  UNL     1      15.197 -16.448  21.163  1.00  0.00     0.177 C 
HETATM    2  N1  UNL     1      14.982 -14.998  21.422  1.00  0.00    -0.346 N 
ATOM      3  H1  UNL     1      14.021 -14.664  21.494  1.00  0.00     0.163 HD
HETATM    4  C6  UNL     1      16.014 -14.059  21.575  1.00  0.00     0.241 C 
HETATM    5  O1  UNL     1      15.750 -13.133  22.425  1.00  0.00    -0.271 OA
HETATM    6  C7  UNL     1      17.316 -14.026  20.888  1.00  0.00     0.178 C 
HETATM    7  N5  UNL     1      18.298 -14.955  21.307  1.00  0.00    -0.329 N 
ATOM      8  H5  UNL     1      18.260 -15.866  20.849  1.00  0.00     0.165 HD
HETATM    9  C12 UNL     1      19.334 -14.804  22.277  1.00  0.00     0.325 C 
HETATM   10  O2  UNL     1      20.501 -15.199  21.923  1.00  0.00    -0.247 OA
HETATM   11  N6  UNL     1      19.224 -14.269  23.583  1.00  0.00    -0.268 N 
HETATM   12  C18 UNL     1      18.208 -14.629  24.512  1.00  0.00     0.250 C 
HETATM   13  O3  UNL     1      17.743 -13.620  25.177  1.00  0.00    -0.271 OA
HETATM   14  C19 UNL     1      17.602 -15.896  24.849  1.00  0.00     0.177 C 
HETATM   15  N7  UNL     1      17.740 -16.986  23.932  1.00  0.00    -0.346 N 
ATOM     16  H7  UNL     1      18.625 -17.059  23.429  1.00  0.00     0.163 HD
HETATM   17  C24 UNL     1      16.758 -17.977  23.658  1.00  0.00     0.241 C 
HETATM   18  O4  UNL     1      17.058 -18.922  22.884  1.00  0.00    -0.271 OA
HETATM   19  C25 UNL     1      15.381 -18.012  24.213  1.00  0.00     0.177 C 
HETATM   20  N8  UNL     1      14.365 -17.419  23.419  1.00  0.00    -0.346 N 
ATOM     21  H8  UNL     1      13.566 -17.094  23.964  1.00  0.00     0.163 HD
HETATM   22  C30 UNL     1      14.226 -17.186  22.052  1.00  0.00     0.241 C 
HETATM   23  O5  UNL     1      13.191 -17.618  21.454  1.00  0.00    -0.271 OA
ENDROOT
BRANCH   6  24
HETATM   24  C8  UNL     1      17.869 -12.591  20.810  1.00  0.00     0.036 C 
BRANCH  24  25
HETATM   25  C9  UNL     1      17.744 -12.010  19.431  1.00  0.00     0.022 C 
BRANCH  25  26
HETATM   26  C10 UNL     1      16.410 -11.331  19.223  1.00  0.00     0.122 C 
BRANCH  26  27
HETATM   27  N2  UNL     1      16.003 -10.698  20.457  1.00  0.00    -0.367 N 
HETATM   28  C11 UNL     1      14.835 -10.171  20.521  1.00  0.00     0.196 C 
HETATM   29  N3  UNL     1      14.342  -9.525  21.691  1.00  0.00    -0.067 NA
HETATM   30  N4  UNL     1      13.973 -10.216  19.399  1.00  0.00    -0.067 NA
ATOM     31  H2  UNL     1      16.631 -10.671  21.260  1.00  0.00     0.161 HD
ENDBRANCH  26  27
ENDBRANCH  25  26
ENDBRANCH  24  25
ENDBRANCH   6  24
BRANCH   1  32
HETATM   32  C4  UNL     1      14.848 -16.632  19.725  1.00  0.00     0.038 C 
BRANCH  32  33
HETATM   33  C2  UNL     1      15.921 -17.303  18.943  1.00  0.00    -0.020 C 
HETATM   34  C1  UNL     1      16.788 -16.312  18.182  1.00  0.00     0.009 C 
HETATM   35  C3  UNL     1      15.358 -18.322  17.959  1.00  0.00     0.009 C 
ENDBRANCH  32  33
ENDBRANCH   1  32
BRANCH  11  36
HETATM   36  C13 UNL     1      20.170 -13.276  24.033  1.00  0.00     0.145 C 
BRANCH  36  37
HETATM   37  C14 UNL     1      21.153 -13.591  25.068  1.00  0.00    -0.035 C 
HETATM   38  C15 UNL     1      22.521 -13.001  24.571  1.00  0.00     0.016 C 
HETATM   39  C16 UNL     1      20.956 -12.842  26.395  1.00  0.00     0.016 C 
HETATM   40  C17 UNL     1      21.482 -14.994  25.401  1.00  0.00     0.016 C 
ENDBRANCH  36  37
ENDBRANCH  11  36
BRANCH  14  41
HETATM   41  C20 UNL     1      17.933 -16.418  26.225  1.00  0.00     0.038 C 
BRANCH  41  42
HETATM   42  C21 UNL     1      18.452 -17.803  26.296  1.00  0.00    -0.020 C 
HETATM   43  C22 UNL     1      19.951 -17.897  26.408  1.00  0.00     0.009 C 
HETATM   44  C23 UNL     1      17.874 -18.479  27.554  1.00  0.00     0.009 C 
ENDBRANCH  41  42
ENDBRANCH  14  41
BRANCH  19  45
HETATM   45  C26 UNL     1      15.084 -19.403  24.655  1.00  0.00     0.038 C 
BRANCH  45  46
HETATM   46  C27 UNL     1      14.656 -19.657  26.044  1.00  0.00    -0.020 C 
HETATM   47  C28 UNL     1      13.208 -19.787  26.322  1.00  0.00     0.009 C 
HETATM   48  C29 UNL     1      15.333 -20.980  26.476  1.00  0.00     0.009 C 
ENDBRANCH  45  46
ENDBRANCH  19  45
TORSDOF 12
ENDMDL
MODEL 4
REMARK VINA RESULT: -7.066398777      2.902      6.358
REMARK  12 active torsions:
REMARK  status: ('A' for Active; 'I' for Inactive)
REMARK    1  A    between atoms: C2_2  and  C4_4 
REMARK    2  A    between atoms: C4_4  and  C5_5 
REMARK    3  A    between atoms: C7_10  and  C8_11 
REMARK    4  A    between atoms: C8_11  and  C9_12 
REMARK    5  A    between atoms: C9_12  and  C10_13 
REMARK    6  A    between atoms: C10_13  and  N2_14 
REMARK    7  A    between atoms: N6_23  and  C13_24 
REMARK    8  A    between atoms: C13_24  and  C14_25 
REMARK    9  A    between atoms: C19_31  and  C20_32 
REMARK   10  A    between atoms: C20_32  and  C21_33 
REMARK   11  A    between atoms: C25_40  and  C26_41 
REMARK   12  A    between atoms: C26_41  and  C27_42 
ROOT
HETATM    1  C5  UNL     1      15.759 -16.997  20.532  1.00  0.00     0.177 C 
HETATM    2  N1  UNL     1      16.712 -18.002  21.078  1.00  0.00    -0.346 N 
ATOM      3  H1  UNL     1      16.886 -18.841  20.527  1.00  0.00     0.163 HD
HETATM    4  C6  UNL     1      17.387 -17.870  22.302  1.00  0.00     0.241 C 
HETATM    5  O1  UNL     1      18.574 -18.361  22.293  1.00  0.00    -0.271 OA
HETATM    6  C7  UNL     1      16.895 -17.253  23.544  1.00  0.00     0.178 C 
HETATM    7  N5  UNL     1      16.838 -15.839  23.592  1.00  0.00    -0.329 N 
ATOM      8  H5  UNL     1      15.975 -15.426  23.236  1.00  0.00     0.165 HD
HETATM    9  C12 UNL     1      17.808 -14.907  24.067  1.00  0.00     0.325 C 
HETATM   10  O2  UNL     1      17.373 -13.985  24.845  1.00  0.00    -0.247 OA
HETATM   11  N6  UNL     1      19.194 -14.881  23.780  1.00  0.00    -0.268 N 
HETATM   12  C18 UNL     1      19.743 -15.009  22.473  1.00  0.00     0.250 C 
HETATM   13  O3  UNL     1      20.801 -15.753  22.434  1.00  0.00    -0.271 OA
HETATM   14  C19 UNL     1      19.344 -14.470  21.193  1.00  0.00     0.177 C 
HETATM   15  N7  UNL     1      18.008 -13.979  21.044  1.00  0.00    -0.346 N 
ATOM     16  H7  UNL     1      17.594 -13.510  21.849  1.00  0.00     0.163 HD
HETATM   17  C24 UNL     1      17.205 -14.085  19.875  1.00  0.00     0.241 C 
HETATM   18  O4  UNL     1      16.076 -13.531  19.870  1.00  0.00    -0.271 OA
HETATM   19  C25 UNL     1      17.579 -14.797  18.627  1.00  0.00     0.177 C 
HETATM   20  N8  UNL     1      17.141 -16.142  18.511  1.00  0.00    -0.346 N 
ATOM     21  H8  UNL     1      17.726 -16.704  17.892  1.00  0.00     0.163 HD
HETATM   22  C30 UNL     1      16.081 -16.860  19.064  1.00  0.00     0.241 C 
HETATM   23  O5  UNL     1      15.285 -17.479  18.292  1.00  0.00    -0.271 OA
ENDROOT
BRANCH   6  24
HETATM   24  C8  UNL     1      17.599 -17.847  24.779  1.00  0.00     0.036 C 
BRANCH  24  25
HETATM   25  C9  UNL     1      16.621 -18.323  25.814  1.00  0.00     0.022 C 
BRANCH  25  26
HETATM   26  C10 UNL     1      15.795 -19.487  25.318  1.00  0.00     0.122 C 
BRANCH  26  27
HETATM   27  N2  UNL     1      14.658 -19.668  26.191  1.00  0.00    -0.367 N 
HETATM   28  C11 UNL     1      13.479 -19.586  25.691  1.00  0.00     0.196 C 
HETATM   29  N3  UNL     1      12.297 -19.748  26.469  1.00  0.00    -0.067 NA
HETATM   30  N4  UNL     1      13.310 -19.322  24.311  1.00  0.00    -0.067 NA
ATOM     31  H2  UNL     1      14.790 -19.857  27.185  1.00  0.00     0.161 HD
ENDBRANCH  26  27
ENDBRANCH  25  26
ENDBRANCH  24  25
ENDBRANCH   6  24
BRANCH   1  32
HETATM   32  C4  UNL     1      14.412 -17.606  20.727  1.00  0.00     0.038 C 
BRANCH  32  33
HETATM   33  C2  UNL     1      13.548 -16.834  21.659  1.00  0.00    -0.020 C 
HETATM   34  C1  UNL     1      12.067 -17.072  21.407  1.00  0.00     0.009 C 
HETATM   35  C3  UNL     1      13.825 -15.337  21.589  1.00  0.00     0.009 C 
ENDBRANCH  32  33
ENDBRANCH   1  32
BRANCH  11  36
HETATM   36  C13 UNL     1      20.147 -14.740  24.855  1.00  0.00     0.145 C 
BRANCH  36  37
HETATM   37  C14 UNL     1      20.949 -13.526  24.992  1.00  0.00    -0.035 C 
HETATM   38  C15 UNL     1      20.805 -13.068  26.487  1.00  0.00     0.016 C 
HETATM   39  C16 UNL     1      22.467 -13.740  24.878  1.00  0.00     0.016 C 
HETATM   40  C17 UNL     1      20.620 -12.307  24.223  1.00  0.00     0.016 C 
ENDBRANCH  36  37
ENDBRANCH  11  36
BRANCH  14  41
HETATM   41  C20 UNL     1      20.275 -13.431  20.618  1.00  0.00     0.038 C 
BRANCH  41  42
HETATM   42  C21 UNL     1      21.253 -13.909  19.614  1.00  0.00    -0.020 C 
HETATM   43  C22 UNL     1      20.825 -15.147  18.872  1.00  0.00     0.009 C 
HETATM   44  C23 UNL     1      21.448 -12.806  18.556  1.00  0.00     0.009 C 
ENDBRANCH  41  42
ENDBRANCH  14  41
BRANCH  19  45
HETATM   45  C26 UNL     1      17.225 -13.934  17.465  1.00  0.00     0.038 C 
BRANCH  45  46
HETATM   46  C27 UNL     1      18.017 -12.721  17.184  1.00  0.00    -0.020 C 
HETATM   47  C28 UNL     1      18.902 -12.719  15.997  1.00  0.00     0.009 C 
HETATM   48  C29 UNL     1      17.001 -11.566  17.007  1.00  0.00     0.009 C 
ENDBRANCH  45  46
ENDBRANCH  19  45
TORSDOF 12
ENDMDL
MODEL 5
REMARK VINA RESULT: -6.925016590      2.502      6.311
REMARK  12 active torsions:
REMARK  status: ('A' for Active; 'I' for Inactive)
REMARK    1  A    between atoms: C2_2  and  C4_4 
REMARK    2  A    between atoms: C4_4  and  C5_5 
REMARK    3  A    between atoms: C7_10  and  C8_11 
REMARK    4  A    between atoms: C8_11  and  C9_12 
REMARK    5  A    between atoms: C9_12  and  C10_13 
REMARK    6  A    between atoms: C10_13  and  N2_14 
REMARK    7  A    between atoms: N6_23  and  C13_24 
REMARK    8  A    between atoms: C13_24  and  C14_25 
REMARK    9  A    between atoms: C19_31  and  C20_32 
REMARK   10  A    between atoms: C20_32  and  C21_33 
REMARK   11  A    between atoms: C25_40  and  C26_41 
REMARK   12  A    between atoms: C26_41  and  C27_42 
ROOT
HETATM    1  C5  UNL     1      20.496 -16.034  23.068  1.00  0.00     0.177 C 
HETATM    2  N1  UNL     1      20.355 -16.834  21.820  1.00  0.00    -0.346 N 
ATOM      3  H1  UNL     1      20.986 -17.623  21.687  1.00  0.00     0.163 HD
HETATM    4  C6  UNL     1      19.409 -16.575  20.817  1.00  0.00     0.241 C 
HETATM    5  O1  UNL     1      18.954 -17.634  20.249  1.00  0.00    -0.271 OA
HETATM    6  C7  UNL     1      18.905 -15.268  20.364  1.00  0.00     0.178 C 
HETATM    7  N5  UNL     1      17.980 -14.600  21.202  1.00  0.00    -0.329 N 
ATOM      8  H5  UNL     1      18.395 -14.010  21.924  1.00  0.00     0.165 HD
HETATM    9  C12 UNL     1      16.554 -14.629  21.185  1.00  0.00     0.325 C 
HETATM   10  O2  UNL     1      15.964 -13.493  21.258  1.00  0.00    -0.247 OA
HETATM   11  N6  UNL     1      15.715 -15.765  21.097  1.00  0.00    -0.268 N 
HETATM   12  C18 UNL     1      15.874 -16.942  21.884  1.00  0.00     0.250 C 
HETATM   13  O3  UNL     1      15.684 -18.033  21.215  1.00  0.00    -0.271 OA
HETATM   14  C19 UNL     1      16.207 -17.144  23.275  1.00  0.00     0.177 C 
HETATM   15  N7  UNL     1      16.814 -16.067  23.997  1.00  0.00    -0.346 N 
ATOM     16  H7  UNL     1      16.504 -15.123  23.768  1.00  0.00     0.163 HD
HETATM   17  C24 UNL     1      17.808 -16.194  25.005  1.00  0.00     0.241 C 
HETATM   18  O4  UNL     1      18.188 -15.157  25.608  1.00  0.00    -0.271 OA
HETATM   19  C25 UNL     1      18.456 -17.461  25.431  1.00  0.00     0.177 C 
HETATM   20  N8  UNL     1      19.686 -17.785  24.800  1.00  0.00    -0.346 N 
ATOM     21  H8  UNL     1      19.882 -18.786  24.792  1.00  0.00     0.163 HD
HETATM   22  C30 UNL     1      20.683 -17.026  24.190  1.00  0.00     0.241 C 
HETATM   23  O5  UNL     1      21.884 -17.154  24.583  1.00  0.00    -0.271 OA
ENDROOT
BRANCH   6  24
HETATM   24  C8  UNL     1      18.423 -15.332  18.903  1.00  0.00     0.036 C 
BRANCH  24  25
HETATM   25  C9  UNL     1      18.704 -14.059  18.158  1.00  0.00     0.022 C 
BRANCH  25  26
HETATM   26  C10 UNL     1      17.546 -13.652  17.277  1.00  0.00     0.122 C 
BRANCH  26  27
HETATM   27  N2  UNL     1      16.484 -13.127  18.105  1.00  0.00    -0.367 N 
HETATM   28  C11 UNL     1      16.150 -11.895  17.968  1.00  0.00     0.196 C 
HETATM   29  N3  UNL     1      15.117 -11.286  18.736  1.00  0.00    -0.067 NA
HETATM   30  N4  UNL     1      16.816 -11.079  17.023  1.00  0.00    -0.067 NA
ATOM     31  H2  UNL     1      16.009 -13.722  18.783  1.00  0.00     0.161 HD
ENDBRANCH  26  27
ENDBRANCH  25  26
ENDBRANCH  24  25
ENDBRANCH   6  24
BRANCH   1  32
HETATM   32  C4  UNL     1      21.732 -15.225  22.862  1.00  0.00     0.038 C 
BRANCH  32  33
HETATM   33  C2  UNL     1      21.463 -13.769  22.720  1.00  0.00    -0.020 C 
HETATM   34  C1  UNL     1      20.163 -13.353  23.392  1.00  0.00     0.009 C 
HETATM   35  C3  UNL     1      21.423 -13.335  21.259  1.00  0.00     0.009 C 
ENDBRANCH  32  33
ENDBRANCH   1  32
BRANCH  11  36
HETATM   36  C13 UNL     1      14.628 -15.783  20.147  1.00  0.00     0.145 C 
BRANCH  36  37
HETATM   37  C14 UNL     1      13.248 -15.580  20.582  1.00  0.00    -0.035 C 
HETATM   38  C15 UNL     1      12.859 -14.122  20.149  1.00  0.00     0.016 C 
HETATM   39  C16 UNL     1      12.204 -16.417  19.826  1.00  0.00     0.016 C 
HETATM   40  C17 UNL     1      12.889 -15.622  22.016  1.00  0.00     0.016 C 
ENDBRANCH  36  37
ENDBRANCH  11  36
BRANCH  14  41
HETATM   41  C20 UNL     1      15.088 -17.687  24.128  1.00  0.00     0.038 C 
BRANCH  41  42
HETATM   42  C21 UNL     1      15.245 -19.077  24.612  1.00  0.00    -0.020 C 
HETATM   43  C22 UNL     1      14.736 -19.307  26.010  1.00  0.00     0.009 C 
HETATM   44  C23 UNL     1      14.438 -20.011  23.690  1.00  0.00     0.009 C 
ENDBRANCH  41  42
ENDBRANCH  14  41
BRANCH  19  45
HETATM   45  C26 UNL     1      18.502 -17.491  26.920  1.00  0.00     0.038 C 
BRANCH  45  46
HETATM   46  C27 UNL     1      18.092 -18.710  27.642  1.00  0.00    -0.020 C 
HETATM   47  C28 UNL     1      18.148 -20.005  26.926  1.00  0.00     0.009 C 
HETATM   48  C29 UNL     1      19.020 -18.821  28.876  1.00  0.00     0.009 C 
ENDBRANCH  45  46
ENDBRANCH  19  45
TORSDOF 12
ENDMDL
