MODEL 1
REMARK VINA RESULT: -8.293440319      0.000      0.000
REMARK  6 active torsions:
REMARK  status: ('A' for Active; 'I' for Inactive)
REMARK    1  A    between atoms: C1_2  and  C14_19 
REMARK    2  A    between atoms: N2_3  and  C2_5 
REMARK    3  A    between atoms: C6_9  and  O1_10 
REMARK    4  A    between atoms: C7_12  and  C8_13 
REMARK    5  A    between atoms: C17_22  and  N3_23 
REMARK       I    between atoms: N3_23  and  C18_25 
REMARK    6  A    between atoms: C18_25  and  C19_27 
ROOT
HETATM    1  N1  UNL     1      59.157   4.302  -3.271  1.00  0.00    -0.082 NA
HETATM    2  C1  UNL     1      60.413   4.068  -2.600  1.00  0.00     0.127 C 
HETATM    3  N2  UNL     1      61.259   3.193  -3.047  1.00  0.00    -0.343 N 
ATOM      4  H2  UNL     1      62.147   3.028  -2.573  1.00  0.00     0.167 HD
ENDROOT
BRANCH   2   5
HETATM    5  C14 UNL     1      60.668   4.854  -1.413  1.00  0.00     0.005 A 
HETATM    6  C15 UNL     1      61.178   6.127  -1.450  1.00  0.00     0.017 A 
HETATM    7  C16 UNL     1      61.414   6.875  -0.282  1.00  0.00     0.030 A 
HETATM    8  C17 UNL     1      61.138   6.351   0.926  1.00  0.00     0.035 A 
HETATM    9  C25 UNL     1      60.620   5.059   0.967  1.00  0.00     0.030 A 
HETATM   10  C26 UNL     1      60.386   4.315  -0.171  1.00  0.00     0.017 A 
BRANCH   8  11
HETATM   11  N3  UNL     1      61.326   7.044   2.132  1.00  0.00    -0.323 N 
HETATM   12  C18 UNL     1      62.212   6.755   3.180  1.00  0.00     0.256 C 
HETATM   13  O2  UNL     1      62.997   5.760   3.126  1.00  0.00    -0.267 OA
ATOM     14  H3  UNL     1      60.740   7.868   2.264  1.00  0.00     0.169 HD
BRANCH  12  15
HETATM   15  C19 UNL     1      62.256   7.603   4.376  1.00  0.00     0.032 A 
HETATM   16  C20 UNL     1      63.395   8.330   4.668  1.00  0.00     0.017 A 
HETATM   17  C21 UNL     1      63.484   9.134   5.785  1.00  0.00     0.001 A 
HETATM   18  C22 UNL     1      62.418   9.230   6.650  1.00  0.00     0.000 A 
HETATM   19  C23 UNL     1      61.280   8.512   6.371  1.00  0.00     0.001 A 
HETATM   20  C24 UNL     1      61.201   7.701   5.236  1.00  0.00     0.017 A 
ENDBRANCH  12  15
ENDBRANCH   8  11
ENDBRANCH   2   5
BRANCH   3  21
HETATM   21  C2  UNL     1      60.906   2.477  -4.214  1.00  0.00     0.047 A 
HETATM   22  C3  UNL     1      60.321   1.228  -4.151  1.00  0.00     0.030 A 
HETATM   23  C4  UNL     1      59.971   0.518  -5.279  1.00  0.00     0.005 A 
HETATM   24  C5  UNL     1      60.217   1.082  -6.516  1.00  0.00     0.037 A 
HETATM   25  C6  UNL     1      60.810   2.348  -6.584  1.00  0.00     0.079 A 
HETATM   26  C7  UNL     1      61.150   3.036  -5.440  1.00  0.00     0.034 A 
BRANCH  25  27
HETATM   27  O1  UNL     1      61.083   2.970  -7.795  1.00  0.00    -0.360 OA
ATOM     28  H1  UNL     1      61.898   3.431  -7.952  1.00  0.00     0.217 HD
ENDBRANCH  25  27
BRANCH  26  29
HETATM   29  C8  UNL     1      61.765   4.346  -5.512  1.00  0.00    -0.021 A 
HETATM   30  C9  UNL     1      60.990   5.419  -5.891  1.00  0.00     0.012 A 
HETATM   31  C10 UNL     1      61.503   6.703  -5.982  1.00  0.00     0.001 A 
HETATM   32  C11 UNL     1      62.835   6.932  -5.685  1.00  0.00     0.000 A 
HETATM   33  C12 UNL     1      63.608   5.879  -5.310  1.00  0.00     0.001 A 
HETATM   34  C13 UNL     1      63.089   4.589  -5.220  1.00  0.00     0.012 A 
ENDBRANCH  26  29
ENDBRANCH   3  21
TORSDOF 6
ENDMDL
MODEL 2
REMARK VINA RESULT: -8.221087428      0.445      1.202
REMARK  6 active torsions:
REMARK  status: ('A' for Active; 'I' for Inactive)
REMARK    1  A    between atoms: C1_2  and  C14_19 
REMARK    2  A    between atoms: N2_3  and  C2_5 
REMARK    3  A    between atoms: C6_9  and  O1_10 
REMARK    4  A    between atoms: C7_12  and  C8_13 
REMARK    5  A    between atoms: C17_22  and  N3_23 
REMARK       I    between atoms: N3_23  and  C18_25 
REMARK    6  A    between atoms: C18_25  and  C19_27 
ROOT
HETATM    1  N1  UNL     1      59.097   4.233  -3.183  1.00  0.00    -0.082 NA
HETATM    2  C1  UNL     1      60.359   3.979  -2.530  1.00  0.00     0.127 C 
HETATM    3  N2  UNL     1      61.219   3.150  -3.033  1.00  0.00    -0.343 N 
ATOM      4  H2  UNL     1      62.111   2.971  -2.572  1.00  0.00     0.167 HD
ENDROOT
BRANCH   2   5
HETATM    5  C14 UNL     1      60.604   4.694  -1.297  1.00  0.00     0.005 A 
HETATM    6  C15 UNL     1      61.121   5.964  -1.255  1.00  0.00     0.017 A 
HETATM    7  C16 UNL     1      61.346   6.643  -0.043  1.00  0.00     0.030 A 
HETATM    8  C17 UNL     1      61.054   6.051   1.130  1.00  0.00     0.035 A 
HETATM    9  C25 UNL     1      60.529   4.761   1.090  1.00  0.00     0.030 A 
HETATM   10  C26 UNL     1      60.304   4.086  -0.092  1.00  0.00     0.017 A 
BRANCH   8  11
HETATM   11  N3  UNL     1      61.231   6.671   2.376  1.00  0.00    -0.323 N 
HETATM   12  C18 UNL     1      62.323   6.583   3.252  1.00  0.00     0.256 C 
HETATM   13  O2  UNL     1      63.340   5.879   2.971  1.00  0.00    -0.267 OA
ATOM     14  H3  UNL     1      60.464   7.267   2.686  1.00  0.00     0.169 HD
BRANCH  12  15
HETATM   15  C19 UNL     1      62.318   7.308   4.527  1.00  0.00     0.032 A 
HETATM   16  C20 UNL     1      61.755   6.731   5.650  1.00  0.00     0.017 A 
HETATM   17  C21 UNL     1      61.721   7.380   6.867  1.00  0.00     0.001 A 
HETATM   18  C22 UNL     1      62.257   8.640   6.990  1.00  0.00     0.000 A 
HETATM   19  C23 UNL     1      62.818   9.226   5.881  1.00  0.00     0.001 A 
HETATM   20  C24 UNL     1      62.848   8.559   4.652  1.00  0.00     0.017 A 
ENDBRANCH  12  15
ENDBRANCH   8  11
ENDBRANCH   2   5
BRANCH   3  21
HETATM   21  C2  UNL     1      60.875   2.501  -4.242  1.00  0.00     0.047 A 
HETATM   22  C3  UNL     1      60.314   1.240  -4.256  1.00  0.00     0.030 A 
HETATM   23  C4  UNL     1      59.974   0.596  -5.425  1.00  0.00     0.005 A 
HETATM   24  C5  UNL     1      60.203   1.241  -6.626  1.00  0.00     0.037 A 
HETATM   25  C6  UNL     1      60.771   2.521  -6.615  1.00  0.00     0.079 A 
HETATM   26  C7  UNL     1      61.102   3.142  -5.431  1.00  0.00     0.034 A 
BRANCH  25  27
HETATM   27  O1  UNL     1      61.026   3.223  -7.785  1.00  0.00    -0.360 OA
ATOM     28  H1  UNL     1      61.645   3.944  -7.815  1.00  0.00     0.217 HD
ENDBRANCH  25  27
BRANCH  26  29
HETATM   29  C8  UNL     1      61.691   4.465  -5.422  1.00  0.00    -0.021 A 
HETATM   30  C9  UNL     1      63.017   4.596  -5.078  1.00  0.00     0.012 A 
HETATM   31  C10 UNL     1      63.653   5.827  -5.048  1.00  0.00     0.001 A 
HETATM   32  C11 UNL     1      62.947   6.972  -5.372  1.00  0.00     0.000 A 
HETATM   33  C12 UNL     1      61.637   6.853  -5.712  1.00  0.00     0.001 A 
HETATM   34  C13 UNL     1      61.000   5.614  -5.742  1.00  0.00     0.012 A 
ENDBRANCH  26  29
ENDBRANCH   3  21
TORSDOF 6
ENDMDL
MODEL 3
REMARK VINA RESULT: -7.545233794      0.757      1.060
REMARK  6 active torsions:
REMARK  status: ('A' for Active; 'I' for Inactive)
REMARK    1  A    between atoms: C1_2  and  C14_19 
REMARK    2  A    between atoms: N2_3  and  C2_5 
REMARK    3  A    between atoms: C6_9  and  O1_10 
REMARK    4  A    between atoms: C7_12  and  C8_13 
REMARK    5  A    between atoms: C17_22  and  N3_23 
REMARK       I    between atoms: N3_23  and  C18_25 
REMARK    6  A    between atoms: C18_25  and  C19_27 
ROOT
HETATM    1  N1  UNL     1      59.320   4.262  -3.354  1.00  0.00    -0.082 NA
HETATM    2  C1  UNL     1      60.603   3.966  -2.765  1.00  0.00     0.127 C 
HETATM    3  N2  UNL     1      61.394   3.084  -3.290  1.00  0.00    -0.343 N 
ATOM      4  H2  UNL     1      62.301   2.874  -2.874  1.00  0.00     0.167 HD
ENDROOT
BRANCH   2   5
HETATM    5  C14 UNL     1      60.949   4.700  -1.567  1.00  0.00     0.005 A 
HETATM    6  C15 UNL     1      60.926   6.070  -1.493  1.00  0.00     0.017 A 
HETATM    7  C16 UNL     1      61.262   6.763  -0.315  1.00  0.00     0.030 A 
HETATM    8  C17 UNL     1      61.622   6.085   0.791  1.00  0.00     0.035 A 
HETATM    9  C25 UNL     1      61.647   4.695   0.718  1.00  0.00     0.030 A 
HETATM   10  C26 UNL     1      61.319   4.005  -0.431  1.00  0.00     0.017 A 
BRANCH   8  11
HETATM   11  N3  UNL     1      61.950   6.706   2.006  1.00  0.00    -0.323 N 
HETATM   12  C18 UNL     1      61.215   6.738   3.200  1.00  0.00     0.256 C 
HETATM   13  O2  UNL     1      60.095   6.153   3.303  1.00  0.00    -0.267 OA
ATOM     14  H3  UNL     1      62.842   7.200   2.023  1.00  0.00     0.169 HD
BRANCH  12  15
HETATM   15  C19 UNL     1      61.728   7.455   4.373  1.00  0.00     0.032 A 
HETATM   16  C20 UNL     1      61.398   7.026   5.645  1.00  0.00     0.017 A 
HETATM   17  C21 UNL     1      61.851   7.673   6.776  1.00  0.00     0.001 A 
HETATM   18  C22 UNL     1      62.657   8.782   6.658  1.00  0.00     0.000 A 
HETATM   19  C23 UNL     1      62.992   9.219   5.399  1.00  0.00     0.001 A 
HETATM   20  C24 UNL     1      62.527   8.555   4.260  1.00  0.00     0.017 A 
ENDBRANCH  12  15
ENDBRANCH   8  11
ENDBRANCH   2   5
BRANCH   3  21
HETATM   21  C2  UNL     1      60.953   2.422  -4.459  1.00  0.00     0.047 A 
HETATM   22  C3  UNL     1      60.358   1.177  -4.409  1.00  0.00     0.030 A 
HETATM   23  C4  UNL     1      59.923   0.520  -5.539  1.00  0.00     0.005 A 
HETATM   24  C5  UNL     1      60.091   1.134  -6.766  1.00  0.00     0.037 A 
HETATM   25  C6  UNL     1      60.694   2.397  -6.820  1.00  0.00     0.079 A 
HETATM   26  C7  UNL     1      61.120   3.031  -5.675  1.00  0.00     0.034 A 
BRANCH  25  27
HETATM   27  O1  UNL     1      60.891   3.067  -8.020  1.00  0.00    -0.360 OA
ATOM     28  H1  UNL     1      60.837   2.624  -8.859  1.00  0.00     0.217 HD
ENDBRANCH  25  27
BRANCH  26  29
HETATM   29  C8  UNL     1      61.744   4.337  -5.733  1.00  0.00    -0.021 A 
HETATM   30  C9  UNL     1      60.951   5.439  -5.957  1.00  0.00     0.012 A 
HETATM   31  C10 UNL     1      61.472   6.721  -6.024  1.00  0.00     0.001 A 
HETATM   32  C11 UNL     1      62.832   6.918  -5.863  1.00  0.00     0.000 A 
HETATM   33  C12 UNL     1      63.624   5.835  -5.642  1.00  0.00     0.001 A 
HETATM   34  C13 UNL     1      63.097   4.548  -5.575  1.00  0.00     0.012 A 
ENDBRANCH  26  29
ENDBRANCH   3  21
TORSDOF 6
ENDMDL
MODEL 4
REMARK VINA RESULT: -6.982081376      2.052      3.015
REMARK  6 active torsions:
REMARK  status: ('A' for Active; 'I' for Inactive)
REMARK    1  A    between atoms: C1_2  and  C14_19 
REMARK    2  A    between atoms: N2_3  and  C2_5 
REMARK    3  A    between atoms: C6_9  and  O1_10 
REMARK    4  A    between atoms: C7_12  and  C8_13 
REMARK    5  A    between atoms: C17_22  and  N3_23 
REMARK       I    between atoms: N3_23  and  C18_25 
REMARK    6  A    between atoms: C18_25  and  C19_27 
ROOT
HETATM    1  N1  UNL     1      60.004   3.722  -5.408  1.00  0.00    -0.082 NA
HETATM    2  C1  UNL     1      60.756   2.997  -4.412  1.00  0.00     0.127 C 
HETATM    3  N2  UNL     1      61.144   1.778  -4.621  1.00  0.00    -0.343 N 
ATOM      4  H2  UNL     1      61.676   1.266  -3.918  1.00  0.00     0.167 HD
ENDROOT
BRANCH   2   5
HETATM    5  C14 UNL     1      61.045   3.700  -3.182  1.00  0.00     0.005 A 
HETATM    6  C15 UNL     1      62.223   3.555  -2.493  1.00  0.00     0.017 A 
HETATM    7  C16 UNL     1      62.484   4.253  -1.299  1.00  0.00     0.030 A 
HETATM    8  C17 UNL     1      61.568   5.100  -0.794  1.00  0.00     0.035 A 
HETATM    9  C25 UNL     1      60.372   5.249  -1.492  1.00  0.00     0.030 A 
HETATM   10  C26 UNL     1      60.104   4.569  -2.662  1.00  0.00     0.017 A 
BRANCH   8  11
HETATM   11  N3  UNL     1      61.766   5.846   0.378  1.00  0.00    -0.323 N 
HETATM   12  C18 UNL     1      61.283   5.593   1.670  1.00  0.00     0.256 C 
HETATM   13  O2  UNL     1      60.568   4.577   1.921  1.00  0.00    -0.267 OA
ATOM     14  H3  UNL     1      62.338   6.684   0.276  1.00  0.00     0.169 HD
BRANCH  12  15
HETATM   15  C19 UNL     1      61.596   6.506   2.775  1.00  0.00     0.032 A 
HETATM   16  C20 UNL     1      62.523   6.140   3.733  1.00  0.00     0.017 A 
HETATM   17  C21 UNL     1      62.842   6.962   4.793  1.00  0.00     0.001 A 
HETATM   18  C22 UNL     1      62.231   8.188   4.922  1.00  0.00     0.000 A 
HETATM   19  C23 UNL     1      61.307   8.563   3.977  1.00  0.00     0.001 A 
HETATM   20  C24 UNL     1      60.991   7.722   2.906  1.00  0.00     0.017 A 
ENDBRANCH  12  15
ENDBRANCH   8  11
ENDBRANCH   2   5
BRANCH   3  21
HETATM   21  C2  UNL     1      60.803   1.184  -5.858  1.00  0.00     0.047 A 
HETATM   22  C3  UNL     1      59.523   0.738  -6.122  1.00  0.00     0.030 A 
HETATM   23  C4  UNL     1      59.175   0.158  -7.322  1.00  0.00     0.005 A 
HETATM   24  C5  UNL     1      60.146   0.021  -8.295  1.00  0.00     0.037 A 
HETATM   25  C6  UNL     1      61.445   0.473  -8.031  1.00  0.00     0.079 A 
HETATM   26  C7  UNL     1      61.766   1.049  -6.823  1.00  0.00     0.034 A 
BRANCH  25  27
HETATM   27  O1  UNL     1      62.466   0.366  -8.966  1.00  0.00    -0.360 OA
ATOM     28  H1  UNL     1      63.249  -0.147  -8.801  1.00  0.00     0.217 HD
ENDBRANCH  25  27
BRANCH  26  29
HETATM   29  C8  UNL     1      63.110   1.515  -6.551  1.00  0.00    -0.021 A 
HETATM   30  C9  UNL     1      64.118   0.586  -6.422  1.00  0.00     0.012 A 
HETATM   31  C10 UNL     1      65.429   0.952  -6.165  1.00  0.00     0.001 A 
HETATM   32  C11 UNL     1      65.754   2.291  -6.031  1.00  0.00     0.000 A 
HETATM   33  C12 UNL     1      64.766   3.215  -6.156  1.00  0.00     0.001 A 
HETATM   34  C13 UNL     1      63.448   2.844  -6.415  1.00  0.00     0.012 A 
ENDBRANCH  26  29
ENDBRANCH   3  21
TORSDOF 6
ENDMDL
MODEL 5
REMARK VINA RESULT: -6.591816226      1.748      2.915
REMARK  6 active torsions:
REMARK  status: ('A' for Active; 'I' for Inactive)
REMARK    1  A    between atoms: C1_2  and  C14_19 
REMARK    2  A    between atoms: N2_3  and  C2_5 
REMARK    3  A    between atoms: C6_9  and  O1_10 
REMARK    4  A    between atoms: C7_12  and  C8_13 
REMARK    5  A    between atoms: C17_22  and  N3_23 
REMARK       I    between atoms: N3_23  and  C18_25 
REMARK    6  A    between atoms: C18_25  and  C19_27 
ROOT
HETATM    1  N1  UNL     1      61.995   5.565  -4.700  1.00  0.00    -0.082 NA
HETATM    2  C1  UNL     1      62.321   4.677  -3.610  1.00  0.00     0.127 C 
HETATM    3  N2  UNL     1      62.770   3.482  -3.830  1.00  0.00    -0.343 N 
ATOM      4  H2  UNL     1      63.001   2.855  -3.060  1.00  0.00     0.167 HD
ENDROOT
BRANCH   2   5
HETATM    5  C14 UNL     1      62.118   5.193  -2.274  1.00  0.00     0.005 A 
HETATM    6  C15 UNL     1      61.644   6.456  -2.021  1.00  0.00     0.017 A 
HETATM    7  C16 UNL     1      61.449   6.935  -0.712  1.00  0.00     0.030 A 
HETATM    8  C17 UNL     1      61.726   6.151   0.346  1.00  0.00     0.035 A 
HETATM    9  C25 UNL     1      62.207   4.869   0.091  1.00  0.00     0.030 A 
HETATM   10  C26 UNL     1      62.403   4.388  -1.187  1.00  0.00     0.017 A 
BRANCH   8  11
HETATM   11  N3  UNL     1      61.537   6.551   1.677  1.00  0.00    -0.323 N 
HETATM   12  C18 UNL     1      62.455   6.533   2.737  1.00  0.00     0.256 C 
HETATM   13  O2  UNL     1      63.645   6.124   2.574  1.00  0.00    -0.267 OA
ATOM     14  H3  UNL     1      60.607   6.903   1.905  1.00  0.00     0.169 HD
BRANCH  12  15
HETATM   15  C19 UNL     1      62.062   6.990   4.074  1.00  0.00     0.032 A 
HETATM   16  C20 UNL     1      62.284   6.184   5.175  1.00  0.00     0.017 A 
HETATM   17  C21 UNL     1      61.923   6.570   6.449  1.00  0.00     0.001 A 
HETATM   18  C22 UNL     1      61.322   7.790   6.654  1.00  0.00     0.000 A 
HETATM   19  C23 UNL     1      61.094   8.601   5.568  1.00  0.00     0.001 A 
HETATM   20  C24 UNL     1      61.464   8.199   4.281  1.00  0.00     0.017 A 
ENDBRANCH  12  15
ENDBRANCH   8  11
ENDBRANCH   2   5
BRANCH   3  21
HETATM   21  C2  UNL     1      62.927   3.078  -5.177  1.00  0.00     0.047 A 
HETATM   22  C3  UNL     1      64.151   3.134  -5.814  1.00  0.00     0.030 A 
HETATM   23  C4  UNL     1      64.320   2.743  -7.124  1.00  0.00     0.005 A 
HETATM   24  C5  UNL     1      63.222   2.278  -7.821  1.00  0.00     0.037 A 
HETATM   25  C6  UNL     1      61.979   2.220  -7.178  1.00  0.00     0.079 A 
HETATM   26  C7  UNL     1      61.838   2.617  -5.867  1.00  0.00     0.034 A 
BRANCH  25  27
HETATM   27  O1  UNL     1      60.838   1.762  -7.822  1.00  0.00    -0.360 OA
ATOM     28  H1  UNL     1      60.197   2.357  -8.194  1.00  0.00     0.217 HD
ENDBRANCH  25  27
BRANCH  26  29
HETATM   29  C8  UNL     1      60.552   2.556  -5.204  1.00  0.00    -0.021 A 
HETATM   30  C9  UNL     1      59.648   3.571  -5.422  1.00  0.00     0.012 A 
HETATM   31  C10 UNL     1      58.397   3.585  -4.827  1.00  0.00     0.001 A 
HETATM   32  C11 UNL     1      58.028   2.552  -3.982  1.00  0.00     0.000 A 
HETATM   33  C12 UNL     1      58.914   1.546  -3.760  1.00  0.00     0.001 A 
HETATM   34  C13 UNL     1      60.171   1.535  -4.361  1.00  0.00     0.012 A 
ENDBRANCH  26  29
ENDBRANCH   3  21
TORSDOF 6
ENDMDL
