MODEL 1
REMARK VINA RESULT: -10.467909762      0.000      0.000
REMARK  6 active torsions:
REMARK  status: ('A' for Active; 'I' for Inactive)
REMARK    1  A    between atoms: C1_4  and  C2_6 
REMARK    2  A    between atoms: C4_8  and  C5_9 
REMARK    3  A    between atoms: C7_13  and  C8_14 
REMARK    4  A    between atoms: C18_24  and  O1_25 
REMARK    5  A    between atoms: O1_25  and  C19_26 
REMARK    6  A    between atoms: C19_26  and  C20_27 
ROOT
HETATM    1  C5  UNL     1      62.524   0.416  -5.637  1.00  0.00     0.005 A 
HETATM    2  C6  UNL     1      62.926  -0.784  -5.026  1.00  0.00     0.101 A 
HETATM    3  N3  UNL     1      64.150  -1.245  -5.165  1.00  0.00    -0.364 N 
ATOM      4  H3  UNL     1      64.405  -2.120  -4.707  1.00  0.00     0.165 HD
HETATM    5  C7  UNL     1      65.087  -0.585  -5.904  1.00  0.00     0.053 A 
HETATM    6  C14 UNL     1      64.769   0.581  -6.525  1.00  0.00     0.005 A 
HETATM    7  C15 UNL     1      65.657   1.262  -7.293  1.00  0.00     0.015 A 
HETATM    8  C16 UNL     1      65.312   2.444  -7.943  1.00  0.00     0.004 A 
HETATM    9  C17 UNL     1      64.056   2.953  -7.824  1.00  0.00     0.038 A 
HETATM   10  C18 UNL     1      63.136   2.266  -7.040  1.00  0.00     0.081 A 
HETATM   11  C26 UNL     1      63.450   1.089  -6.382  1.00  0.00     0.022 A 
ENDROOT
BRANCH   1  12
HETATM   12  C4  UNL     1      61.178   0.888  -5.429  1.00  0.00    -0.006 A 
HETATM   13  C3  UNL     1      60.734   1.778  -4.480  1.00  0.00     0.046 A 
HETATM   14  C2  UNL     1      59.376   2.028  -4.658  1.00  0.00     0.074 A 
HETATM   15  N4  UNL     1      59.027   1.267  -5.733  1.00  0.00    -0.362 N 
HETATM   16  C27 UNL     1      60.083   0.587  -6.198  1.00  0.00     0.101 A 
ATOM     17  H4  UNL     1      58.088   1.221  -6.129  1.00  0.00     0.165 HD
BRANCH  14  18
HETATM   18  C1  UNL     1      58.520   2.905  -3.874  1.00  0.00     0.137 C 
HETATM   19  N1  UNL     1      58.967   3.335  -2.749  1.00  0.00    -0.386 N 
ATOM     20  H12 UNL     1      58.367   3.950  -2.199  1.00  0.00     0.157 HD
ATOM     21  H11 UNL     1      59.898   3.046  -2.452  1.00  0.00     0.157 HD
HETATM   22  N2  UNL     1      57.227   3.306  -4.287  1.00  0.00    -0.081 NA
ENDBRANCH  14  18
ENDBRANCH   1  12
BRANCH  10  23
HETATM   23  O1  UNL     1      61.883   2.785  -6.932  1.00  0.00    -0.346 OA
BRANCH  23  24
HETATM   24  C19 UNL     1      61.449   4.063  -7.215  1.00  0.00     0.214 C 
BRANCH  24  25
HETATM   25  C20 UNL     1      61.591   5.072  -6.160  1.00  0.00    -0.034 A 
HETATM   26  C21 UNL     1      62.752   5.838  -5.995  1.00  0.00     0.009 A 
HETATM   27  C22 UNL     1      62.869   6.782  -4.997  1.00  0.00     0.001 A 
HETATM   28  C23 UNL     1      61.830   7.002  -4.120  1.00  0.00     0.000 A 
HETATM   29  C24 UNL     1      60.688   6.262  -4.268  1.00  0.00     0.001 A 
HETATM   30  C25 UNL     1      60.576   5.321  -5.264  1.00  0.00     0.009 A 
ENDBRANCH  24  25
ENDBRANCH  23  24
ENDBRANCH  10  23
BRANCH   5  31
HETATM   31  C8  UNL     1      66.407  -1.178  -5.998  1.00  0.00    -0.009 A 
HETATM   32  C9  UNL     1      66.921  -1.834  -7.084  1.00  0.00     0.014 A 
HETATM   33  C10 UNL     1      68.183  -2.369  -7.068  1.00  0.00     0.001 A 
HETATM   34  C11 UNL     1      68.998  -2.275  -5.961  1.00  0.00     0.000 A 
HETATM   35  C12 UNL     1      68.505  -1.626  -4.869  1.00  0.00     0.001 A 
HETATM   36  C13 UNL     1      67.239  -1.088  -4.883  1.00  0.00     0.014 A 
ENDBRANCH   5  31
TORSDOF 6
ENDMDL
MODEL 2
REMARK VINA RESULT: -9.428925706      3.960      8.115
REMARK  6 active torsions:
REMARK  status: ('A' for Active; 'I' for Inactive)
REMARK    1  A    between atoms: C1_4  and  C2_6 
REMARK    2  A    between atoms: C4_8  and  C5_9 
REMARK    3  A    between atoms: C7_13  and  C8_14 
REMARK    4  A    between atoms: C18_24  and  O1_25 
REMARK    5  A    between atoms: O1_25  and  C19_26 
REMARK    6  A    between atoms: C19_26  and  C20_27 
ROOT
HETATM    1  C5  UNL     1      60.654   4.552  -1.710  1.00  0.00     0.005 A 
HETATM    2  C6  UNL     1      60.631   3.933  -0.449  1.00  0.00     0.101 A 
HETATM    3  N3  UNL     1      60.857   4.616   0.652  1.00  0.00    -0.364 N 
ATOM      4  H3  UNL     1      60.833   4.132   1.549  1.00  0.00     0.165 HD
HETATM    5  C7  UNL     1      61.122   5.953   0.626  1.00  0.00     0.053 A 
HETATM    6  C14 UNL     1      61.161   6.619  -0.559  1.00  0.00     0.005 A 
HETATM    7  C15 UNL     1      61.447   7.943  -0.640  1.00  0.00     0.015 A 
HETATM    8  C16 UNL     1      61.507   8.609  -1.862  1.00  0.00     0.004 A 
HETATM    9  C17 UNL     1      61.279   7.936  -3.022  1.00  0.00     0.038 A 
HETATM   10  C18 UNL     1      60.986   6.579  -2.954  1.00  0.00     0.081 A 
HETATM   11  C26 UNL     1      60.919   5.892  -1.755  1.00  0.00     0.022 A 
ENDROOT
BRANCH   1  12
HETATM   12  C4  UNL     1      60.372   3.761  -2.881  1.00  0.00    -0.006 A 
HETATM   13  C3  UNL     1      61.152   2.775  -3.440  1.00  0.00     0.046 A 
HETATM   14  C2  UNL     1      60.492   2.201  -4.524  1.00  0.00     0.074 A 
HETATM   15  N4  UNL     1      59.306   2.868  -4.593  1.00  0.00    -0.362 N 
HETATM   16  C27 UNL     1      59.222   3.794  -3.628  1.00  0.00     0.101 A 
ATOM     17  H4  UNL     1      58.580   2.686  -5.286  1.00  0.00     0.165 HD
BRANCH  14  18
HETATM   18  C1  UNL     1      60.961   1.129  -5.388  1.00  0.00     0.137 C 
HETATM   19  N1  UNL     1      62.104   0.602  -5.128  1.00  0.00    -0.386 N 
ATOM     20  H12 UNL     1      62.432  -0.150  -5.734  1.00  0.00     0.157 HD
ATOM     21  H11 UNL     1      62.633   0.954  -4.331  1.00  0.00     0.157 HD
HETATM   22  N2  UNL     1      60.226   0.640  -6.494  1.00  0.00    -0.081 NA
ENDBRANCH  14  18
ENDBRANCH   1  12
BRANCH  10  23
HETATM   23  O1  UNL     1      60.763   5.920  -4.123  1.00  0.00    -0.346 OA
BRANCH  23  24
HETATM   24  C19 UNL     1      61.443   6.023  -5.318  1.00  0.00     0.214 C 
BRANCH  24  25
HETATM   25  C20 UNL     1      62.464   5.009  -5.603  1.00  0.00    -0.034 A 
HETATM   26  C21 UNL     1      62.459   4.236  -6.770  1.00  0.00     0.009 A 
HETATM   27  C22 UNL     1      63.426   3.286  -7.022  1.00  0.00     0.001 A 
HETATM   28  C23 UNL     1      64.441   3.067  -6.116  1.00  0.00     0.000 A 
HETATM   29  C24 UNL     1      64.460   3.815  -4.970  1.00  0.00     0.001 A 
HETATM   30  C25 UNL     1      63.493   4.761  -4.723  1.00  0.00     0.009 A 
ENDBRANCH  24  25
ENDBRANCH  23  24
ENDBRANCH  10  23
BRANCH   5  31
HETATM   31  C8  UNL     1      61.360   6.615   1.894  1.00  0.00    -0.009 A 
HETATM   32  C9  UNL     1      60.665   7.685   2.390  1.00  0.00     0.014 A 
HETATM   33  C10 UNL     1      60.978   8.246   3.600  1.00  0.00     0.001 A 
HETATM   34  C11 UNL     1      62.005   7.764   4.381  1.00  0.00     0.000 A 
HETATM   35  C12 UNL     1      62.710   6.699   3.907  1.00  0.00     0.001 A 
HETATM   36  C13 UNL     1      62.397   6.134   2.692  1.00  0.00     0.014 A 
ENDBRANCH   5  31
TORSDOF 6
ENDMDL
MODEL 3
REMARK VINA RESULT: -9.052127770      2.868      7.610
REMARK  6 active torsions:
REMARK  status: ('A' for Active; 'I' for Inactive)
REMARK    1  A    between atoms: C1_4  and  C2_6 
REMARK    2  A    between atoms: C4_8  and  C5_9 
REMARK    3  A    between atoms: C7_13  and  C8_14 
REMARK    4  A    between atoms: C18_24  and  O1_25 
REMARK    5  A    between atoms: O1_25  and  C19_26 
REMARK    6  A    between atoms: C19_26  and  C20_27 
ROOT
HETATM    1  C5  UNL     1      60.457   3.832  -3.213  1.00  0.00     0.005 A 
HETATM    2  C6  UNL     1      60.168   3.472  -1.885  1.00  0.00     0.101 A 
HETATM    3  N3  UNL     1      60.252   4.346  -0.907  1.00  0.00    -0.364 N 
ATOM      4  H3  UNL     1      60.035   4.048   0.045  1.00  0.00     0.165 HD
HETATM    5  C7  UNL     1      60.621   5.640  -1.128  1.00  0.00     0.053 A 
HETATM    6  C14 UNL     1      60.917   6.059  -2.387  1.00  0.00     0.005 A 
HETATM    7  C15 UNL     1      61.315   7.329  -2.656  1.00  0.00     0.015 A 
HETATM    8  C16 UNL     1      61.638   7.740  -3.947  1.00  0.00     0.004 A 
HETATM    9  C17 UNL     1      61.563   6.864  -4.986  1.00  0.00     0.038 A 
HETATM   10  C18 UNL     1      61.157   5.561  -4.724  1.00  0.00     0.081 A 
HETATM   11  C26 UNL     1      60.830   5.124  -3.453  1.00  0.00     0.022 A 
ENDROOT
BRANCH   1  12
HETATM   12  C4  UNL     1      60.322   2.840  -4.250  1.00  0.00    -0.006 A 
HETATM   13  C3  UNL     1      61.240   1.890  -4.633  1.00  0.00     0.046 A 
HETATM   14  C2  UNL     1      60.699   1.075  -5.624  1.00  0.00     0.074 A 
HETATM   15  N4  UNL     1      59.442   1.564  -5.818  1.00  0.00    -0.362 N 
HETATM   16  C27 UNL     1      59.206   2.608  -5.012  1.00  0.00     0.101 A 
ATOM     17  H4  UNL     1      58.771   1.185  -6.487  1.00  0.00     0.165 HD
BRANCH  14  18
HETATM   18  C1  UNL     1      61.332  -0.046  -6.300  1.00  0.00     0.137 C 
HETATM   19  N1  UNL     1      60.642  -0.692  -7.172  1.00  0.00    -0.386 N 
ATOM     20  H12 UNL     1      61.086  -1.478  -7.646  1.00  0.00     0.157 HD
ATOM     21  H11 UNL     1      59.684  -0.394  -7.352  1.00  0.00     0.157 HD
HETATM   22  N2  UNL     1      62.662  -0.460  -6.049  1.00  0.00    -0.081 NA
ENDBRANCH  14  18
ENDBRANCH   1  12
BRANCH  10  23
HETATM   23  O1  UNL     1      61.089   4.697  -5.773  1.00  0.00    -0.346 OA
BRANCH  23  24
HETATM   24  C19 UNL     1      61.924   4.595  -6.865  1.00  0.00     0.214 C 
BRANCH  24  25
HETATM   25  C20 UNL     1      63.099   3.725  -6.738  1.00  0.00    -0.034 A 
HETATM   26  C21 UNL     1      63.920   3.721  -5.605  1.00  0.00     0.009 A 
HETATM   27  C22 UNL     1      65.020   2.897  -5.501  1.00  0.00     0.001 A 
HETATM   28  C23 UNL     1      65.348   2.039  -6.529  1.00  0.00     0.000 A 
HETATM   29  C24 UNL     1      64.554   2.030  -7.644  1.00  0.00     0.001 A 
HETATM   30  C25 UNL     1      63.458   2.854  -7.742  1.00  0.00     0.009 A 
ENDBRANCH  24  25
ENDBRANCH  23  24
ENDBRANCH  10  23
BRANCH   5  31
HETATM   31  C8  UNL     1      60.686   6.525   0.018  1.00  0.00    -0.009 A 
HETATM   32  C9  UNL     1      60.005   7.703   0.169  1.00  0.00     0.014 A 
HETATM   33  C10 UNL     1      60.146   8.475   1.292  1.00  0.00     0.001 A 
HETATM   34  C11 UNL     1      60.977   8.107   2.327  1.00  0.00     0.000 A 
HETATM   35  C12 UNL     1      61.665   6.938   2.198  1.00  0.00     0.001 A 
HETATM   36  C13 UNL     1      61.525   6.162   1.071  1.00  0.00     0.014 A 
ENDBRANCH   5  31
TORSDOF 6
ENDMDL
MODEL 4
REMARK VINA RESULT: -8.380278146      4.080      8.227
REMARK  6 active torsions:
REMARK  status: ('A' for Active; 'I' for Inactive)
REMARK    1  A    between atoms: C1_4  and  C2_6 
REMARK    2  A    between atoms: C4_8  and  C5_9 
REMARK    3  A    between atoms: C7_13  and  C8_14 
REMARK    4  A    between atoms: C18_24  and  O1_25 
REMARK    5  A    between atoms: O1_25  and  C19_26 
REMARK    6  A    between atoms: C19_26  and  C20_27 
ROOT
HETATM    1  C5  UNL     1      60.662   4.619  -1.455  1.00  0.00     0.005 A 
HETATM    2  C6  UNL     1      60.678   3.973  -0.207  1.00  0.00     0.101 A 
HETATM    3  N3  UNL     1      60.965   4.627   0.897  1.00  0.00    -0.364 N 
ATOM      4  H3  UNL     1      60.968   4.124   1.784  1.00  0.00     0.165 HD
HETATM    5  C7  UNL     1      61.257   5.959   0.888  1.00  0.00     0.053 A 
HETATM    6  C14 UNL     1      61.262   6.649  -0.284  1.00  0.00     0.005 A 
HETATM    7  C15 UNL     1      61.573   7.968  -0.349  1.00  0.00     0.015 A 
HETATM    8  C16 UNL     1      61.597   8.658  -1.559  1.00  0.00     0.004 A 
HETATM    9  C17 UNL     1      61.306   8.016  -2.722  1.00  0.00     0.038 A 
HETATM   10  C18 UNL     1      60.986   6.665  -2.669  1.00  0.00     0.081 A 
HETATM   11  C26 UNL     1      60.954   5.953  -1.483  1.00  0.00     0.022 A 
ENDROOT
BRANCH   1  12
HETATM   12  C4  UNL     1      60.314   3.858  -2.630  1.00  0.00    -0.006 A 
HETATM   13  C3  UNL     1      61.013   2.820  -3.200  1.00  0.00     0.046 A 
HETATM   14  C2  UNL     1      60.306   2.305  -4.282  1.00  0.00     0.074 A 
HETATM   15  N4  UNL     1      59.173   3.061  -4.340  1.00  0.00    -0.362 N 
HETATM   16  C27 UNL     1      59.166   3.984  -3.369  1.00  0.00     0.101 A 
ATOM     17  H4  UNL     1      58.432   2.939  -5.030  1.00  0.00     0.165 HD
BRANCH  14  18
HETATM   18  C1  UNL     1      60.687   1.207  -5.156  1.00  0.00     0.137 C 
HETATM   19  N1  UNL     1      59.811   0.763  -5.984  1.00  0.00    -0.386 N 
ATOM     20  H12 UNL     1      60.078  -0.007  -6.597  1.00  0.00     0.157 HD
ATOM     21  H11 UNL     1      58.887   1.196  -5.995  1.00  0.00     0.157 HD
HETATM   22  N2  UNL     1      61.969   0.606  -5.140  1.00  0.00    -0.081 NA
ENDBRANCH  14  18
ENDBRANCH   1  12
BRANCH  10  23
HETATM   23  O1  UNL     1      60.700   6.035  -3.841  1.00  0.00    -0.346 OA
BRANCH  23  24
HETATM   24  C19 UNL     1      61.220   6.267  -5.097  1.00  0.00     0.214 C 
BRANCH  24  25
HETATM   25  C20 UNL     1      61.993   5.185  -5.717  1.00  0.00    -0.034 A 
HETATM   26  C21 UNL     1      63.314   4.894  -5.357  1.00  0.00     0.009 A 
HETATM   27  C22 UNL     1      64.025   3.873  -5.950  1.00  0.00     0.001 A 
HETATM   28  C23 UNL     1      63.446   3.098  -6.931  1.00  0.00     0.000 A 
HETATM   29  C24 UNL     1      62.155   3.369  -7.295  1.00  0.00     0.001 A 
HETATM   30  C25 UNL     1      61.450   4.389  -6.701  1.00  0.00     0.009 A 
ENDBRANCH  24  25
ENDBRANCH  23  24
ENDBRANCH  10  23
BRANCH   5  31
HETATM   31  C8  UNL     1      61.563   6.588   2.158  1.00  0.00    -0.009 A 
HETATM   32  C9  UNL     1      62.605   6.269   2.986  1.00  0.00     0.014 A 
HETATM   33  C10 UNL     1      62.802   6.920   4.176  1.00  0.00     0.001 A 
HETATM   34  C11 UNL     1      61.964   7.928   4.600  1.00  0.00     0.000 A 
HETATM   35  C12 UNL     1      60.920   8.262   3.790  1.00  0.00     0.001 A 
HETATM   36  C13 UNL     1      60.721   7.609   2.596  1.00  0.00     0.014 A 
ENDBRANCH   5  31
TORSDOF 6
ENDMDL
MODEL 5
REMARK VINA RESULT: -8.165965442      3.301      7.862
REMARK  6 active torsions:
REMARK  status: ('A' for Active; 'I' for Inactive)
REMARK    1  A    between atoms: C1_4  and  C2_6 
REMARK    2  A    between atoms: C4_8  and  C5_9 
REMARK    3  A    between atoms: C7_13  and  C8_14 
REMARK    4  A    between atoms: C18_24  and  O1_25 
REMARK    5  A    between atoms: O1_25  and  C19_26 
REMARK    6  A    between atoms: C19_26  and  C20_27 
ROOT
HETATM    1  C5  UNL     1      62.688   3.683  -3.075  1.00  0.00     0.005 A 
HETATM    2  C6  UNL     1      62.945   3.312  -1.744  1.00  0.00     0.101 A 
HETATM    3  N3  UNL     1      62.516   4.040  -0.737  1.00  0.00    -0.364 N 
ATOM      4  H3  UNL     1      62.722   3.739   0.216  1.00  0.00     0.165 HD
HETATM    5  C7  UNL     1      61.802   5.185  -0.931  1.00  0.00     0.053 A 
HETATM    6  C14 UNL     1      61.517   5.607  -2.191  1.00  0.00     0.005 A 
HETATM    7  C15 UNL     1      60.834   6.754  -2.438  1.00  0.00     0.015 A 
HETATM    8  C16 UNL     1      60.568   7.187  -3.735  1.00  0.00     0.004 A 
HETATM    9  C17 UNL     1      60.996   6.461  -4.803  1.00  0.00     0.038 A 
HETATM   10  C18 UNL     1      61.697   5.284  -4.565  1.00  0.00     0.081 A 
HETATM   11  C26 UNL     1      61.976   4.829  -3.288  1.00  0.00     0.022 A 
ENDROOT
BRANCH   1  12
HETATM   12  C4  UNL     1      63.159   2.833  -4.140  1.00  0.00    -0.006 A 
HETATM   13  C3  UNL     1      64.167   3.089  -5.040  1.00  0.00     0.046 A 
HETATM   14  C2  UNL     1      64.363   1.984  -5.864  1.00  0.00     0.074 A 
HETATM   15  N4  UNL     1      63.450   1.070  -5.432  1.00  0.00    -0.362 N 
HETATM   16  C27 UNL     1      62.731   1.559  -4.413  1.00  0.00     0.101 A 
ATOM     17  H4  UNL     1      63.331   0.138  -5.830  1.00  0.00     0.165 HD
BRANCH  14  18
HETATM   18  C1  UNL     1      65.326   1.836  -6.944  1.00  0.00     0.137 C 
HETATM   19  N1  UNL     1      64.958   2.166  -8.130  1.00  0.00    -0.386 N 
ATOM     20  H12 UNL     1      65.633   2.063  -8.887  1.00  0.00     0.157 HD
ATOM     21  H11 UNL     1      64.009   2.515  -8.266  1.00  0.00     0.157 HD
HETATM   22  N2  UNL     1      66.642   1.351  -6.755  1.00  0.00    -0.081 NA
ENDBRANCH  14  18
ENDBRANCH   1  12
BRANCH  10  23
HETATM   23  O1  UNL     1      62.121   4.571  -5.643  1.00  0.00    -0.346 OA
BRANCH  23  24
HETATM   24  C19 UNL     1      61.419   4.217  -6.776  1.00  0.00     0.214 C 
BRANCH  24  25
HETATM   25  C20 UNL     1      60.911   2.843  -6.853  1.00  0.00    -0.034 A 
HETATM   26  C21 UNL     1      60.007   2.316  -5.923  1.00  0.00     0.009 A 
HETATM   27  C22 UNL     1      59.540   1.022  -6.010  1.00  0.00     0.001 A 
HETATM   28  C23 UNL     1      59.957   0.197  -7.031  1.00  0.00     0.000 A 
HETATM   29  C24 UNL     1      60.841   0.697  -7.949  1.00  0.00     0.001 A 
HETATM   30  C25 UNL     1      61.304   1.988  -7.858  1.00  0.00     0.009 A 
ENDBRANCH  24  25
ENDBRANCH  23  24
ENDBRANCH  10  23
BRANCH   5  31
HETATM   31  C8  UNL     1      61.377   5.919   0.245  1.00  0.00    -0.009 A 
HETATM   32  C9  UNL     1      61.794   7.171   0.610  1.00  0.00     0.014 A 
HETATM   33  C10 UNL     1      61.337   7.775   1.752  1.00  0.00     0.001 A 
HETATM   34  C11 UNL     1      60.437   7.156   2.591  1.00  0.00     0.000 A 
HETATM   35  C12 UNL     1      60.008   5.909   2.247  1.00  0.00     0.001 A 
HETATM   36  C13 UNL     1      60.466   5.302   1.101  1.00  0.00     0.014 A 
ENDBRANCH   5  31
TORSDOF 6
ENDMDL
