MODEL 1
REMARK VINA RESULT: -6.866302605      0.000      0.000
REMARK  8 active torsions:
REMARK  status: ('A' for Active; 'I' for Inactive)
REMARK       I    between atoms: C1_4  and  N3_6 
REMARK    1  A    between atoms: N3_6  and  C2_8 
REMARK    2  A    between atoms: C3_9  and  N4_10 
REMARK    3  A    between atoms: C4_14  and  C5_15 
REMARK    4  A    between atoms: C5_15  and  C6_16 
REMARK    5  A    between atoms: C6_16  and  O1_17 
REMARK    6  A    between atoms: O1_17  and  N5_18 
REMARK    7  A    between atoms: N5_18  and  C7_19 
REMARK    8  A    between atoms: C7_19  and  N6_20 
ROOT
HETATM    1  C2  UNL     1     -13.791  38.953  10.313  1.00  0.00     0.119 C 
HETATM    2  C3  UNL     1     -14.272  39.913  11.362  1.00  0.00     0.211 C 
HETATM    3  C4  UNL     1     -15.142  40.893  10.617  1.00  0.00     0.024 C 
HETATM    4  C8  UNL     1     -15.643  40.216   9.396  1.00  0.00    -0.002 A 
HETATM    5  C9  UNL     1     -16.130  38.831   9.360  1.00  0.00     0.012 A 
HETATM    6  C10 UNL     1     -14.669  39.146   9.119  1.00  0.00     0.015 A 
ENDROOT
BRANCH   3   7
HETATM    7  C5  UNL     1     -16.228  41.375  11.546  1.00  0.00     0.035 C 
BRANCH   7   8
HETATM    8  C6  UNL     1     -16.260  42.878  11.656  1.00  0.00     0.196 C 
BRANCH   8   9
HETATM    9  O1  UNL     1     -14.953  43.356  11.521  1.00  0.00    -0.285 OA
BRANCH   9  10
HETATM   10  N5  UNL     1     -14.916  44.553  10.941  1.00  0.00    -0.074 NA
BRANCH  10  11
HETATM   11  C7  UNL     1     -15.909  44.710   9.898  1.00  0.00     0.371 C 
BRANCH  11  12
HETATM   12  N6  UNL     1     -15.424  45.505   8.798  1.00  0.00    -0.064 N 
ATOM     13  H63 UNL     1     -14.559  45.985   9.044  1.00  0.00     0.275 HD
ATOM     14  H62 UNL     1     -15.073  44.915   8.043  1.00  0.00     0.275 HD
ATOM     15  H61 UNL     1     -16.126  46.161   8.457  1.00  0.00     0.275 HD
ENDBRANCH  11  12
ENDBRANCH  10  11
ENDBRANCH   9  10
ENDBRANCH   8   9
ENDBRANCH   7   8
ENDBRANCH   3   7
BRANCH   2  16
HETATM   16  N4  UNL     1     -13.227  40.584  12.070  1.00  0.00    -0.073 N 
ATOM     17  H43 UNL     1     -12.733  39.932  12.678  1.00  0.00     0.274 HD
ATOM     18  H42 UNL     1     -12.470  40.836  11.434  1.00  0.00     0.274 HD
ATOM     19  H41 UNL     1     -13.534  41.401  12.599  1.00  0.00     0.274 HD
ENDBRANCH   2  16
BRANCH   1  20
HETATM   20  N3  UNL     1     -12.388  39.072  10.018  1.00  0.00    -0.358 N 
HETATM   21  C1  UNL     1     -11.600  37.907   9.844  1.00  0.00     0.182 C 
HETATM   22  N1  UNL     1     -12.055  36.945   9.132  1.00  0.00    -0.374 N 
HETATM   23  N2  UNL     1     -10.314  37.798  10.449  1.00  0.00    -0.064 NA
ATOM     24  H12 UNL     1     -11.488  36.107   9.007  1.00  0.00     0.158 HD
ATOM     25  H11 UNL     1     -12.975  37.022   8.698  1.00  0.00     0.158 HD
ATOM     26  H3  UNL     1     -11.960  39.995   9.935  1.00  0.00     0.162 HD
ENDBRANCH   1  20
TORSDOF 8
ENDMDL
MODEL 2
REMARK VINA RESULT: -6.459716693      2.984      4.325
REMARK  8 active torsions:
REMARK  status: ('A' for Active; 'I' for Inactive)
REMARK       I    between atoms: C1_4  and  N3_6 
REMARK    1  A    between atoms: N3_6  and  C2_8 
REMARK    2  A    between atoms: C3_9  and  N4_10 
REMARK    3  A    between atoms: C4_14  and  C5_15 
REMARK    4  A    between atoms: C5_15  and  C6_16 
REMARK    5  A    between atoms: C6_16  and  O1_17 
REMARK    6  A    between atoms: O1_17  and  N5_18 
REMARK    7  A    between atoms: N5_18  and  C7_19 
REMARK    8  A    between atoms: C7_19  and  N6_20 
ROOT
HETATM    1  C2  UNL     1     -15.952  41.287  10.155  1.00  0.00     0.119 C 
HETATM    2  C3  UNL     1     -16.850  42.166   9.334  1.00  0.00     0.211 C 
HETATM    3  C4  UNL     1     -17.644  42.954  10.345  1.00  0.00     0.024 C 
HETATM    4  C8  UNL     1     -16.852  43.010  11.597  1.00  0.00    -0.002 A 
HETATM    5  C9  UNL     1     -15.405  43.250  11.650  1.00  0.00     0.012 A 
HETATM    6  C10 UNL     1     -15.954  41.844  11.541  1.00  0.00     0.015 A 
ENDROOT
BRANCH   3   7
HETATM    7  C5  UNL     1     -17.966  44.305   9.756  1.00  0.00     0.035 C 
BRANCH   7   8
HETATM    8  C6  UNL     1     -16.828  44.856   8.937  1.00  0.00     0.196 C 
BRANCH   8   9
HETATM    9  O1  UNL     1     -17.279  45.044   7.627  1.00  0.00    -0.285 OA
BRANCH   9  10
HETATM   10  N5  UNL     1     -17.343  46.333   7.300  1.00  0.00    -0.074 NA
BRANCH  10  11
HETATM   11  C7  UNL     1     -16.508  46.672   6.166  1.00  0.00     0.371 C 
BRANCH  11  12
HETATM   12  N6  UNL     1     -15.114  46.757   6.522  1.00  0.00    -0.064 N 
ATOM     13  H63 UNL     1     -14.639  45.868   6.368  1.00  0.00     0.275 HD
ATOM     14  H62 UNL     1     -14.598  47.334   5.858  1.00  0.00     0.275 HD
ATOM     15  H61 UNL     1     -14.980  47.086   7.478  1.00  0.00     0.275 HD
ENDBRANCH  11  12
ENDBRANCH  10  11
ENDBRANCH   9  10
ENDBRANCH   8   9
ENDBRANCH   7   8
ENDBRANCH   3   7
BRANCH   2  16
HETATM   16  N4  UNL     1     -17.711  41.457   8.440  1.00  0.00    -0.073 N 
ATOM     17  H43 UNL     1     -17.289  41.396   7.513  1.00  0.00     0.274 HD
ATOM     18  H42 UNL     1     -17.740  40.467   8.682  1.00  0.00     0.274 HD
ATOM     19  H41 UNL     1     -18.656  41.836   8.376  1.00  0.00     0.274 HD
ENDBRANCH   2  16
BRANCH   1  20
HETATM   20  N3  UNL     1     -16.296  39.891  10.096  1.00  0.00    -0.358 N 
HETATM   21  C1  UNL     1     -15.903  39.111   8.980  1.00  0.00     0.182 C 
HETATM   22  N1  UNL     1     -14.712  39.225   8.525  1.00  0.00    -0.374 N 
HETATM   23  N2  UNL     1     -16.816  38.206   8.365  1.00  0.00    -0.064 NA
ATOM     24  H12 UNL     1     -14.429  38.663   7.722  1.00  0.00     0.158 HD
ATOM     25  H11 UNL     1     -14.057  39.873   8.965  1.00  0.00     0.158 HD
ATOM     26  H3  UNL     1     -16.823  39.463  10.858  1.00  0.00     0.162 HD
ENDBRANCH   1  20
TORSDOF 8
ENDMDL
MODEL 3
REMARK VINA RESULT: -6.352475746      2.472      3.449
REMARK  8 active torsions:
REMARK  status: ('A' for Active; 'I' for Inactive)
REMARK       I    between atoms: C1_4  and  N3_6 
REMARK    1  A    between atoms: N3_6  and  C2_8 
REMARK    2  A    between atoms: C3_9  and  N4_10 
REMARK    3  A    between atoms: C4_14  and  C5_15 
REMARK    4  A    between atoms: C5_15  and  C6_16 
REMARK    5  A    between atoms: C6_16  and  O1_17 
REMARK    6  A    between atoms: O1_17  and  N5_18 
REMARK    7  A    between atoms: N5_18  and  C7_19 
REMARK    8  A    between atoms: C7_19  and  N6_20 
ROOT
HETATM    1  C2  UNL     1     -15.277  40.130  10.192  1.00  0.00     0.119 C 
HETATM    2  C3  UNL     1     -15.596  41.579   9.960  1.00  0.00     0.211 C 
HETATM    3  C4  UNL     1     -15.644  42.187  11.338  1.00  0.00     0.024 C 
HETATM    4  C8  UNL     1     -14.811  41.348  12.232  1.00  0.00    -0.002 A 
HETATM    5  C9  UNL     1     -13.501  40.795  11.864  1.00  0.00     0.012 A 
HETATM    6  C10 UNL     1     -14.773  40.021  11.595  1.00  0.00     0.015 A 
ENDROOT
BRANCH   3   7
HETATM    7  C5  UNL     1     -15.196  43.625  11.245  1.00  0.00     0.035 C 
BRANCH   7   8
HETATM    8  C6  UNL     1     -16.325  44.551  10.872  1.00  0.00     0.196 C 
BRANCH   8   9
HETATM    9  O1  UNL     1     -15.775  45.726  10.350  1.00  0.00    -0.285 OA
BRANCH   9  10
HETATM   10  N5  UNL     1     -15.766  45.725   9.019  1.00  0.00    -0.074 NA
BRANCH  10  11
HETATM   11  C7  UNL     1     -17.019  45.282   8.443  1.00  0.00     0.371 C 
BRANCH  11  12
HETATM   12  N6  UNL     1     -17.157  45.683   7.066  1.00  0.00    -0.064 N 
ATOM     13  H63 UNL     1     -17.451  46.656   6.993  1.00  0.00     0.275 HD
ATOM     14  H62 UNL     1     -16.248  45.754   6.609  1.00  0.00     0.275 HD
ATOM     15  H61 UNL     1     -17.783  45.069   6.546  1.00  0.00     0.275 HD
ENDBRANCH  11  12
ENDBRANCH  10  11
ENDBRANCH   9  10
ENDBRANCH   8   9
ENDBRANCH   7   8
ENDBRANCH   3   7
BRANCH   2  16
HETATM   16  N4  UNL     1     -16.817  41.807   9.251  1.00  0.00    -0.073 N 
ATOM     17  H43 UNL     1     -16.639  41.878   8.249  1.00  0.00     0.274 HD
ATOM     18  H42 UNL     1     -17.399  40.969   9.265  1.00  0.00     0.274 HD
ATOM     19  H41 UNL     1     -17.348  42.615   9.577  1.00  0.00     0.274 HD
ENDBRANCH   2  16
BRANCH   1  20
HETATM   20  N3  UNL     1     -16.371  39.242   9.904  1.00  0.00    -0.358 N 
HETATM   21  C1  UNL     1     -16.193  38.171   8.992  1.00  0.00     0.182 C 
HETATM   22  N1  UNL     1     -15.135  37.454   9.069  1.00  0.00    -0.374 N 
HETATM   23  N2  UNL     1     -17.175  37.887   8.000  1.00  0.00    -0.064 NA
ATOM     24  H12 UNL     1     -15.007  36.684   8.414  1.00  0.00     0.158 HD
ATOM     25  H11 UNL     1     -14.432  37.657   9.780  1.00  0.00     0.158 HD
ATOM     26  H3  UNL     1     -17.275  39.383  10.355  1.00  0.00     0.162 HD
ENDBRANCH   1  20
TORSDOF 8
ENDMDL
MODEL 4
REMARK VINA RESULT: -6.310560839      2.485      5.505
REMARK  8 active torsions:
REMARK  status: ('A' for Active; 'I' for Inactive)
REMARK       I    between atoms: C1_4  and  N3_6 
REMARK    1  A    between atoms: N3_6  and  C2_8 
REMARK    2  A    between atoms: C3_9  and  N4_10 
REMARK    3  A    between atoms: C4_14  and  C5_15 
REMARK    4  A    between atoms: C5_15  and  C6_16 
REMARK    5  A    between atoms: C6_16  and  O1_17 
REMARK    6  A    between atoms: O1_17  and  N5_18 
REMARK    7  A    between atoms: N5_18  and  C7_19 
REMARK    8  A    between atoms: C7_19  and  N6_20 
ROOT
HETATM    1  C2  UNL     1     -15.891  41.058  10.614  1.00  0.00     0.119 C 
HETATM    2  C3  UNL     1     -14.487  40.909  11.122  1.00  0.00     0.211 C 
HETATM    3  C4  UNL     1     -14.291  39.422  11.280  1.00  0.00     0.024 C 
HETATM    4  C8  UNL     1     -15.233  38.742  10.359  1.00  0.00    -0.002 A 
HETATM    5  C9  UNL     1     -15.495  39.170   8.979  1.00  0.00     0.012 A 
HETATM    6  C10 UNL     1     -16.318  39.710  10.129  1.00  0.00     0.015 A 
ENDROOT
BRANCH   3   7
HETATM    7  C5  UNL     1     -12.839  39.099  11.029  1.00  0.00     0.035 C 
BRANCH   7   8
HETATM    8  C6  UNL     1     -12.283  39.850   9.846  1.00  0.00     0.196 C 
BRANCH   8   9
HETATM    9  O1  UNL     1     -11.027  40.353  10.197  1.00  0.00    -0.285 OA
BRANCH   9  10
HETATM   10  N5  UNL     1     -10.057  39.851   9.437  1.00  0.00    -0.074 NA
BRANCH  10  11
HETATM   11  C7  UNL     1     -10.439  39.712   8.046  1.00  0.00     0.371 C 
BRANCH  11  12
HETATM   12  N6  UNL     1      -9.724  40.625   7.191  1.00  0.00    -0.064 N 
ATOM     13  H63 UNL     1      -8.825  40.883   7.597  1.00  0.00     0.275 HD
ATOM     14  H62 UNL     1      -9.393  40.158   6.347  1.00  0.00     0.275 HD
ATOM     15  H61 UNL     1     -10.276  41.452   6.963  1.00  0.00     0.275 HD
ENDBRANCH  11  12
ENDBRANCH  10  11
ENDBRANCH   9  10
ENDBRANCH   8   9
ENDBRANCH   7   8
ENDBRANCH   3   7
BRANCH   2  16
HETATM   16  N4  UNL     1     -14.227  41.598  12.347  1.00  0.00    -0.073 N 
ATOM     17  H43 UNL     1     -13.648  41.025  12.962  1.00  0.00     0.274 HD
ATOM     18  H42 UNL     1     -13.592  42.380  12.188  1.00  0.00     0.274 HD
ATOM     19  H41 UNL     1     -15.064  41.913  12.838  1.00  0.00     0.274 HD
ENDBRANCH   2  16
BRANCH   1  20
HETATM   20  N3  UNL     1     -16.795  41.637  11.571  1.00  0.00    -0.358 N 
HETATM   21  C1  UNL     1     -17.480  42.839  11.262  1.00  0.00     0.182 C 
HETATM   22  N1  UNL     1     -18.015  42.975  10.107  1.00  0.00    -0.374 N 
HETATM   23  N2  UNL     1     -17.577  43.890  12.220  1.00  0.00    -0.064 NA
ATOM     24  H12 UNL     1     -18.508  43.840   9.886  1.00  0.00     0.158 HD
ATOM     25  H11 UNL     1     -17.946  42.223   9.421  1.00  0.00     0.158 HD
ATOM     26  H3  UNL     1     -16.944  41.182  12.472  1.00  0.00     0.162 HD
ENDBRANCH   1  20
TORSDOF 8
ENDMDL
MODEL 5
REMARK VINA RESULT: -6.309373316      2.198      6.011
REMARK  8 active torsions:
REMARK  status: ('A' for Active; 'I' for Inactive)
REMARK       I    between atoms: C1_4  and  N3_6 
REMARK    1  A    between atoms: N3_6  and  C2_8 
REMARK    2  A    between atoms: C3_9  and  N4_10 
REMARK    3  A    between atoms: C4_14  and  C5_15 
REMARK    4  A    between atoms: C5_15  and  C6_16 
REMARK    5  A    between atoms: C6_16  and  O1_17 
REMARK    6  A    between atoms: O1_17  and  N5_18 
REMARK    7  A    between atoms: N5_18  and  C7_19 
REMARK    8  A    between atoms: C7_19  and  N6_20 
ROOT
HETATM    1  C2  UNL     1     -15.931  41.166  10.311  1.00  0.00     0.119 C 
HETATM    2  C3  UNL     1     -14.659  40.942  11.075  1.00  0.00     0.211 C 
HETATM    3  C4  UNL     1     -14.596  39.450  11.287  1.00  0.00     0.024 C 
HETATM    4  C8  UNL     1     -15.393  38.807  10.216  1.00  0.00    -0.002 A 
HETATM    5  C9  UNL     1     -15.366  39.215   8.806  1.00  0.00     0.012 A 
HETATM    6  C10 UNL     1     -16.350  39.836   9.774  1.00  0.00     0.015 A 
ENDROOT
BRANCH   3   7
HETATM    7  C5  UNL     1     -13.147  39.030  11.317  1.00  0.00     0.035 C 
BRANCH   7   8
HETATM    8  C6  UNL     1     -12.350  39.650  10.198  1.00  0.00     0.196 C 
BRANCH   8   9
HETATM    9  O1  UNL     1     -11.088  39.049  10.173  1.00  0.00    -0.285 OA
BRANCH   9  10
HETATM   10  N5  UNL     1     -11.075  37.884  10.817  1.00  0.00    -0.074 NA
BRANCH  10  11
HETATM   11  C7  UNL     1     -10.589  36.790  10.002  1.00  0.00     0.371 C 
BRANCH  11  12
HETATM   12  N6  UNL     1     -11.659  36.070   9.361  1.00  0.00    -0.064 N 
ATOM     13  H63 UNL     1     -12.569  36.433   9.644  1.00  0.00     0.275 HD
ATOM     14  H62 UNL     1     -11.703  36.284   8.364  1.00  0.00     0.275 HD
ATOM     15  H61 UNL     1     -11.597  35.065   9.519  1.00  0.00     0.275 HD
ENDBRANCH  11  12
ENDBRANCH  10  11
ENDBRANCH   9  10
ENDBRANCH   8   9
ENDBRANCH   7   8
ENDBRANCH   3   7
BRANCH   2  16
HETATM   16  N4  UNL     1     -14.586  41.644  12.318  1.00  0.00    -0.073 N 
ATOM     17  H43 UNL     1     -14.247  41.028  13.056  1.00  0.00     0.274 HD
ATOM     18  H42 UNL     1     -13.827  42.325  12.298  1.00  0.00     0.274 HD
ATOM     19  H41 UNL     1     -15.458  42.092  12.600  1.00  0.00     0.274 HD
ENDBRANCH   2  16
BRANCH   1  20
HETATM   20  N3  UNL     1     -16.957  41.825  11.075  1.00  0.00    -0.358 N 
HETATM   21  C1  UNL     1     -17.395  43.121  10.702  1.00  0.00     0.182 C 
HETATM   22  N1  UNL     1     -17.623  43.373   9.468  1.00  0.00    -0.374 N 
HETATM   23  N2  UNL     1     -17.585  44.137  11.683  1.00  0.00    -0.064 NA
ATOM     24  H12 UNL     1     -17.938  44.305   9.200  1.00  0.00     0.158 HD
ATOM     25  H11 UNL     1     -17.487  42.646   8.765  1.00  0.00     0.158 HD
ATOM     26  H3  UNL     1     -17.369  41.360  11.884  1.00  0.00     0.162 HD
ENDBRANCH   1  20
TORSDOF 8
ENDMDL
