MODEL 1
REMARK VINA RESULT: -7.848150629      0.000      0.000
REMARK  9 active torsions:
REMARK  status: ('A' for Active; 'I' for Inactive)
REMARK    1  A    between atoms: C2_2  and  C3_3 
REMARK    2  A    between atoms: C3_3  and  C5_5 
REMARK    3  A    between atoms: C5_5  and  C6_6 
REMARK    4  A    between atoms: C5_5  and  C13_15 
REMARK    5  A    between atoms: C6_6  and  O1_7 
REMARK    6  A    between atoms: O1_7  and  C7_8 
REMARK    7  A    between atoms: C13_15  and  N1_16 
REMARK    8  A    between atoms: C16_19  and  N2_20 
REMARK    9  A    between atoms: C17_24  and  O3_25 
ROOT
HETATM    1  C5  UNL     1       4.813  23.886   5.128  1.00  0.00     0.051 C 
ENDROOT
BRANCH   1   2
HETATM    2  C3  UNL     1       5.800  22.905   5.666  1.00  0.00    -0.008 C 
HETATM    3  C4  UNL     1       6.557  23.386   6.887  1.00  0.00     0.011 C 
BRANCH   2   4
HETATM    4  C2  UNL     1       6.862  22.639   4.615  1.00  0.00     0.000 C 
HETATM    5  C1  UNL     1       8.162  23.289   5.085  1.00  0.00     0.005 C 
ENDBRANCH   2   4
ENDBRANCH   1   2
BRANCH   1   6
HETATM    6  C6  UNL     1       3.415  23.469   5.500  1.00  0.00     0.178 C 
BRANCH   6   7
HETATM    7  O1  UNL     1       3.407  22.300   6.274  1.00  0.00    -0.383 OA
BRANCH   7   8
HETATM    8  C7  UNL     1       2.118  21.887   6.547  1.00  0.00     0.152 C 
HETATM    9  C8  UNL     1       1.095  22.987   6.292  1.00  0.00     0.066 C 
HETATM   10  C9  UNL     1       0.425  23.104   7.642  1.00  0.00     0.124 C 
HETATM   11  C10 UNL     1      -0.446  21.911   7.862  1.00  0.00     0.034 C 
HETATM   12  O2  UNL     1       1.505  22.837   8.500  1.00  0.00    -0.378 OA
HETATM   13  C11 UNL     1       0.569  20.810   8.134  1.00  0.00     0.037 C 
HETATM   14  C12 UNL     1       1.867  21.567   7.991  1.00  0.00     0.151 C 
ENDBRANCH   7   8
ENDBRANCH   6   7
ENDBRANCH   1   6
BRANCH   1  15
HETATM   15  C13 UNL     1       5.072  25.323   5.493  1.00  0.00     0.065 C 
BRANCH  15  16
HETATM   16  N1  UNL     1       5.787  26.115   4.574  1.00  0.00    -0.390 N 
HETATM   17  C14 UNL     1       7.083  26.567   4.969  1.00  0.00     0.124 C 
HETATM   18  C15 UNL     1       7.675  27.431   3.893  1.00  0.00     0.055 C 
HETATM   19  C16 UNL     1       7.947  26.691   2.607  1.00  0.00     0.215 C 
HETATM   20  C17 UNL     1       7.028  25.516   2.520  1.00  0.00     0.166 C 
HETATM   21  C18 UNL     1       5.716  25.700   3.214  1.00  0.00     0.155 C 
BRANCH  19  22
HETATM   22  N2  UNL     1       9.314  26.202   2.531  1.00  0.00    -0.072 N 
ATOM     23  H23 UNL     1       9.863  26.521   3.328  1.00  0.00     0.274 HD
ATOM     24  H22 UNL     1       9.354  25.196   2.696  1.00  0.00     0.274 HD
ATOM     25  H21 UNL     1       9.765  26.448   1.650  1.00  0.00     0.274 HD
ENDBRANCH  19  22
BRANCH  20  26
HETATM   26  O3  UNL     1       6.746  25.309   1.155  1.00  0.00    -0.392 OA
ATOM     27  H3  UNL     1       5.944  25.780   0.960  1.00  0.00     0.210 HD
ENDBRANCH  20  26
ENDBRANCH  15  16
ENDBRANCH   1  15
TORSDOF 9
ENDMDL
MODEL 2
REMARK VINA RESULT: -7.442140744      1.754      2.804
REMARK  9 active torsions:
REMARK  status: ('A' for Active; 'I' for Inactive)
REMARK    1  A    between atoms: C2_2  and  C3_3 
REMARK    2  A    between atoms: C3_3  and  C5_5 
REMARK    3  A    between atoms: C5_5  and  C6_6 
REMARK    4  A    between atoms: C5_5  and  C13_15 
REMARK    5  A    between atoms: C6_6  and  O1_7 
REMARK    6  A    between atoms: O1_7  and  C7_8 
REMARK    7  A    between atoms: C13_15  and  N1_16 
REMARK    8  A    between atoms: C16_19  and  N2_20 
REMARK    9  A    between atoms: C17_24  and  O3_25 
ROOT
HETATM    1  C5  UNL     1       5.985  25.433   4.012  1.00  0.00     0.051 C 
ENDROOT
BRANCH   1   2
HETATM    2  C3  UNL     1       6.905  25.552   5.179  1.00  0.00    -0.008 C 
HETATM    3  C4  UNL     1       7.148  26.974   5.641  1.00  0.00     0.011 C 
BRANCH   2   4
HETATM    4  C2  UNL     1       8.272  25.018   4.794  1.00  0.00     0.000 C 
HETATM    5  C1  UNL     1       8.205  23.492   4.819  1.00  0.00     0.005 C 
ENDBRANCH   2   4
ENDBRANCH   1   2
BRANCH   1   6
HETATM    6  C6  UNL     1       4.598  25.079   4.479  1.00  0.00     0.178 C 
BRANCH   6   7
HETATM    7  O1  UNL     1       4.489  23.719   4.807  1.00  0.00    -0.383 OA
BRANCH   7   8
HETATM    8  C7  UNL     1       3.825  23.543   6.005  1.00  0.00     0.152 C 
HETATM    9  C8  UNL     1       4.504  22.508   6.893  1.00  0.00     0.066 C 
HETATM   10  C9  UNL     1       3.387  21.514   7.116  1.00  0.00     0.124 C 
HETATM   11  C10 UNL     1       2.380  22.110   8.044  1.00  0.00     0.034 C 
HETATM   12  O2  UNL     1       2.719  21.580   5.882  1.00  0.00    -0.378 OA
HETATM   13  C11 UNL     1       1.685  23.135   7.158  1.00  0.00     0.037 C 
HETATM   14  C12 UNL     1       2.446  22.969   5.866  1.00  0.00     0.151 C 
ENDBRANCH   7   8
ENDBRANCH   6   7
ENDBRANCH   1   6
BRANCH   1  15
HETATM   15  C13 UNL     1       5.964  26.619   3.086  1.00  0.00     0.065 C 
BRANCH  15  16
HETATM   16  N1  UNL     1       6.640  26.505   1.856  1.00  0.00    -0.390 N 
HETATM   17  C14 UNL     1       7.681  27.446   1.590  1.00  0.00     0.124 C 
HETATM   18  C15 UNL     1       8.255  27.205   0.224  1.00  0.00     0.055 C 
HETATM   19  C16 UNL     1       8.954  25.875   0.090  1.00  0.00     0.215 C 
HETATM   20  C17 UNL     1       8.381  24.924   1.090  1.00  0.00     0.166 C 
HETATM   21  C18 UNL     1       6.950  25.178   1.442  1.00  0.00     0.155 C 
BRANCH  19  22
HETATM   22  N2  UNL     1      10.383  25.976   0.330  1.00  0.00    -0.072 N 
ATOM     23  H23 UNL     1      10.685  26.950   0.351  1.00  0.00     0.274 HD
ATOM     24  H22 UNL     1      10.615  25.713   1.288  1.00  0.00     0.274 HD
ATOM     25  H21 UNL     1      10.929  25.436  -0.342  1.00  0.00     0.274 HD
ENDBRANCH  19  22
BRANCH  20  26
HETATM   26  O3  UNL     1       8.443  23.636   0.521  1.00  0.00    -0.392 OA
ATOM     27  H3  UNL     1       8.643  23.029   1.224  1.00  0.00     0.210 HD
ENDBRANCH  20  26
ENDBRANCH  15  16
ENDBRANCH   1  15
TORSDOF 9
ENDMDL
MODEL 3
REMARK VINA RESULT: -7.147598362      2.365      7.832
REMARK  9 active torsions:
REMARK  status: ('A' for Active; 'I' for Inactive)
REMARK    1  A    between atoms: C2_2  and  C3_3 
REMARK    2  A    between atoms: C3_3  and  C5_5 
REMARK    3  A    between atoms: C5_5  and  C6_6 
REMARK    4  A    between atoms: C5_5  and  C13_15 
REMARK    5  A    between atoms: C6_6  and  O1_7 
REMARK    6  A    between atoms: O1_7  and  C7_8 
REMARK    7  A    between atoms: C13_15  and  N1_16 
REMARK    8  A    between atoms: C16_19  and  N2_20 
REMARK    9  A    between atoms: C17_24  and  O3_25 
ROOT
HETATM    1  C5  UNL     1       6.432  25.822   4.236  1.00  0.00     0.051 C 
ENDROOT
BRANCH   1   2
HETATM    2  C3  UNL     1       7.026  27.186   4.338  1.00  0.00    -0.008 C 
HETATM    3  C4  UNL     1       8.503  27.203   4.674  1.00  0.00     0.011 C 
BRANCH   2   4
HETATM    4  C2  UNL     1       6.350  27.942   5.468  1.00  0.00     0.000 C 
HETATM    5  C1  UNL     1       7.439  28.454   6.409  1.00  0.00     0.005 C 
ENDBRANCH   2   4
ENDBRANCH   1   2
BRANCH   1   6
HETATM    6  C6  UNL     1       7.327  24.928   3.420  1.00  0.00     0.178 C 
BRANCH   6   7
HETATM    7  O1  UNL     1       7.062  25.038   2.047  1.00  0.00    -0.383 OA
BRANCH   7   8
HETATM    8  C7  UNL     1       8.113  25.637   1.380  1.00  0.00     0.152 C 
HETATM    9  C8  UNL     1       7.717  26.974   0.766  1.00  0.00     0.066 C 
HETATM   10  C9  UNL     1       8.044  26.752  -0.693  1.00  0.00     0.124 C 
HETATM   11  C10 UNL     1       9.528  26.754  -0.868  1.00  0.00     0.034 C 
HETATM   12  O2  UNL     1       7.738  25.388  -0.832  1.00  0.00    -0.378 OA
HETATM   13  C11 UNL     1       9.929  25.412  -0.271  1.00  0.00     0.037 C 
HETATM   14  C12 UNL     1       8.591  24.879   0.177  1.00  0.00     0.151 C 
ENDBRANCH   7   8
ENDBRANCH   6   7
ENDBRANCH   1   6
BRANCH   1  15
HETATM   15  C13 UNL     1       6.068  25.182   5.549  1.00  0.00     0.065 C 
BRANCH  15  16
HETATM   16  N1  UNL     1       5.370  23.959   5.511  1.00  0.00    -0.390 N 
HETATM   17  C14 UNL     1       5.554  23.066   6.610  1.00  0.00     0.124 C 
HETATM   18  C15 UNL     1       4.776  21.802   6.382  1.00  0.00     0.055 C 
HETATM   19  C16 UNL     1       3.283  22.010   6.357  1.00  0.00     0.215 C 
HETATM   20  C17 UNL     1       2.996  23.420   5.952  1.00  0.00     0.166 C 
HETATM   21  C18 UNL     1       4.023  24.030   5.053  1.00  0.00     0.155 C 
BRANCH  19  22
HETATM   22  N2  UNL     1       2.672  21.780   7.656  1.00  0.00    -0.072 N 
ATOM     23  H23 UNL     1       3.373  21.527   8.352  1.00  0.00     0.274 HD
ATOM     24  H22 UNL     1       2.342  22.654   8.067  1.00  0.00     0.274 HD
ATOM     25  H21 UNL     1       1.925  21.087   7.616  1.00  0.00     0.274 HD
ENDBRANCH  19  22
BRANCH  20  26
HETATM   26  O3  UNL     1       1.780  23.408   5.240  1.00  0.00    -0.392 OA
ATOM     27  H3  UNL     1       1.973  23.689   4.353  1.00  0.00     0.210 HD
ENDBRANCH  20  26
ENDBRANCH  15  16
ENDBRANCH   1  15
TORSDOF 9
ENDMDL
MODEL 4
REMARK VINA RESULT: -7.109340237      1.384      1.701
REMARK  9 active torsions:
REMARK  status: ('A' for Active; 'I' for Inactive)
REMARK    1  A    between atoms: C2_2  and  C3_3 
REMARK    2  A    between atoms: C3_3  and  C5_5 
REMARK    3  A    between atoms: C5_5  and  C6_6 
REMARK    4  A    between atoms: C5_5  and  C13_15 
REMARK    5  A    between atoms: C6_6  and  O1_7 
REMARK    6  A    between atoms: O1_7  and  C7_8 
REMARK    7  A    between atoms: C13_15  and  N1_16 
REMARK    8  A    between atoms: C16_19  and  N2_20 
REMARK    9  A    between atoms: C17_24  and  O3_25 
ROOT
HETATM    1  C5  UNL     1       4.727  23.774   5.066  1.00  0.00     0.051 C 
ENDROOT
BRANCH   1   2
HETATM    2  C3  UNL     1       5.769  22.895   5.670  1.00  0.00    -0.008 C 
HETATM    3  C4  UNL     1       6.496  23.507   6.849  1.00  0.00     0.011 C 
BRANCH   2   4
HETATM    4  C2  UNL     1       6.846  22.616   4.637  1.00  0.00     0.000 C 
HETATM    5  C1  UNL     1       8.118  23.337   5.077  1.00  0.00     0.005 C 
ENDBRANCH   2   4
ENDBRANCH   1   2
BRANCH   1   6
HETATM    6  C6  UNL     1       3.379  23.460   5.657  1.00  0.00     0.178 C 
BRANCH   6   7
HETATM    7  O1  UNL     1       3.364  22.206   6.285  1.00  0.00    -0.383 OA
BRANCH   7   8
HETATM    8  C7  UNL     1       2.077  21.817   6.601  1.00  0.00     0.152 C 
HETATM    9  C8  UNL     1       1.063  22.927   6.352  1.00  0.00     0.066 C 
HETATM   10  C9  UNL     1       0.432  23.080   7.717  1.00  0.00     0.124 C 
HETATM   11  C10 UNL     1      -0.450  21.905   7.983  1.00  0.00     0.034 C 
HETATM   12  O2  UNL     1       1.530  22.813   8.551  1.00  0.00    -0.378 OA
HETATM   13  C11 UNL     1       0.557  20.794   8.250  1.00  0.00     0.037 C 
HETATM   14  C12 UNL     1       1.861  21.528   8.057  1.00  0.00     0.151 C 
ENDBRANCH   7   8
ENDBRANCH   6   7
ENDBRANCH   1   6
BRANCH   1  15
HETATM   15  C13 UNL     1       5.019  25.249   5.122  1.00  0.00     0.065 C 
BRANCH  15  16
HETATM   16  N1  UNL     1       6.018  25.754   4.267  1.00  0.00    -0.390 N 
HETATM   17  C14 UNL     1       5.705  25.846   2.877  1.00  0.00     0.124 C 
HETATM   18  C15 UNL     1       6.894  26.358   2.116  1.00  0.00     0.055 C 
HETATM   19  C16 UNL     1       7.275  27.772   2.473  1.00  0.00     0.215 C 
HETATM   20  C17 UNL     1       6.805  28.064   3.862  1.00  0.00     0.166 C 
HETATM   21  C18 UNL     1       6.749  26.872   4.763  1.00  0.00     0.155 C 
BRANCH  19  22
HETATM   22  N2  UNL     1       6.676  28.749   1.580  1.00  0.00    -0.072 N 
ATOM     23  H23 UNL     1       6.432  28.327   0.684  1.00  0.00     0.274 HD
ATOM     24  H22 UNL     1       5.742  29.012   1.895  1.00  0.00     0.274 HD
ATOM     25  H21 UNL     1       7.266  29.571   1.452  1.00  0.00     0.274 HD
ENDBRANCH  19  22
BRANCH  20  26
HETATM   26  O3  UNL     1       7.726  28.967   4.431  1.00  0.00    -0.392 OA
ATOM     27  H3  UNL     1       7.332  29.830   4.392  1.00  0.00     0.210 HD
ENDBRANCH  20  26
ENDBRANCH  15  16
ENDBRANCH   1  15
TORSDOF 9
ENDMDL
MODEL 5
REMARK VINA RESULT: -7.103468291      3.438      6.763
REMARK  9 active torsions:
REMARK  status: ('A' for Active; 'I' for Inactive)
REMARK    1  A    between atoms: C2_2  and  C3_3 
REMARK    2  A    between atoms: C3_3  and  C5_5 
REMARK    3  A    between atoms: C5_5  and  C6_6 
REMARK    4  A    between atoms: C5_5  and  C13_15 
REMARK    5  A    between atoms: C6_6  and  O1_7 
REMARK    6  A    between atoms: O1_7  and  C7_8 
REMARK    7  A    between atoms: C13_15  and  N1_16 
REMARK    8  A    between atoms: C16_19  and  N2_20 
REMARK    9  A    between atoms: C17_24  and  O3_25 
ROOT
HETATM    1  C5  UNL     1       7.183  26.067   5.290  1.00  0.00     0.051 C 
ENDROOT
BRANCH   1   2
HETATM    2  C3  UNL     1       7.843  25.454   4.102  1.00  0.00    -0.008 C 
HETATM    3  C4  UNL     1       8.549  24.144   4.384  1.00  0.00     0.011 C 
BRANCH   2   4
HETATM    4  C2  UNL     1       8.926  26.390   3.595  1.00  0.00     0.000 C 
HETATM    5  C1  UNL     1       8.837  26.430   2.071  1.00  0.00     0.005 C 
ENDBRANCH   2   4
ENDBRANCH   1   2
BRANCH   1   6
HETATM    6  C6  UNL     1       7.484  27.541   5.347  1.00  0.00     0.178 C 
BRANCH   6   7
HETATM    7  O1  UNL     1       6.345  28.295   5.663  1.00  0.00    -0.383 OA
BRANCH   7   8
HETATM    8  C7  UNL     1       6.638  29.292   6.572  1.00  0.00     0.152 C 
HETATM    9  C8  UNL     1       7.312  28.749   7.826  1.00  0.00     0.066 C 
HETATM   10  C9  UNL     1       6.373  29.224   8.910  1.00  0.00     0.124 C 
HETATM   11  C10 UNL     1       6.533  30.699   9.084  1.00  0.00     0.034 C 
HETATM   12  O2  UNL     1       5.136  29.142   8.249  1.00  0.00    -0.378 OA
HETATM   13  C11 UNL     1       5.847  31.250   7.842  1.00  0.00     0.037 C 
HETATM   14  C12 UNL     1       5.434  29.977   7.145  1.00  0.00     0.151 C 
ENDBRANCH   7   8
ENDBRANCH   6   7
ENDBRANCH   1   6
BRANCH   1  15
HETATM   15  C13 UNL     1       5.705  25.806   5.408  1.00  0.00     0.065 C 
BRANCH  15  16
HETATM   16  N1  UNL     1       5.270  24.467   5.374  1.00  0.00    -0.390 N 
HETATM   17  C14 UNL     1       5.643  23.628   6.468  1.00  0.00     0.124 C 
HETATM   18  C15 UNL     1       5.135  22.233   6.242  1.00  0.00     0.055 C 
HETATM   19  C16 UNL     1       3.631  22.133   6.233  1.00  0.00     0.215 C 
HETATM   20  C17 UNL     1       3.059  23.456   5.837  1.00  0.00     0.166 C 
HETATM   21  C18 UNL     1       3.932  24.263   4.929  1.00  0.00     0.155 C 
BRANCH  19  22
HETATM   22  N2  UNL     1       3.093  21.782   7.537  1.00  0.00    -0.072 N 
ATOM     23  H23 UNL     1       3.462  20.887   7.858  1.00  0.00     0.274 HD
ATOM     24  H22 UNL     1       3.473  22.386   8.266  1.00  0.00     0.274 HD
ATOM     25  H21 UNL     1       2.073  21.787   7.550  1.00  0.00     0.274 HD
ENDBRANCH  19  22
BRANCH  20  26
HETATM   26  O3  UNL     1       1.864  23.199   5.137  1.00  0.00    -0.392 OA
ATOM     27  H3  UNL     1       2.023  23.410   4.224  1.00  0.00     0.210 HD
ENDBRANCH  20  26
ENDBRANCH  15  16
ENDBRANCH   1  15
TORSDOF 9
ENDMDL
