MODEL 1
REMARK VINA RESULT: -3.756705069      0.000      0.000
REMARK  2 active torsions:
REMARK  status: ('A' for Active; 'I' for Inactive)
REMARK    1  A    between atoms: N1_1  and  N2_4 
REMARK    2  A    between atoms: N2_4  and  C1_6 
ROOT
HETATM    1  C1  UNL     1      86.765  -5.024   6.739  1.00  0.00     0.088 A 
HETATM    2  C2  UNL     1      85.965  -6.093   6.472  1.00  0.00     0.039 A 
HETATM    3  C3  UNL     1      85.605  -6.878   7.503  1.00  0.00     0.010 A 
HETATM    4  C4  UNL     1      86.076  -6.527   8.746  1.00  0.00     0.052 A 
HETATM    5  S1  UNL     1      87.002  -5.124   8.429  1.00  0.00    -0.083 SA
ENDROOT
BRANCH   1   6
HETATM    6  N2  UNL     1      87.306  -4.059   5.800  1.00  0.00    -0.300 N 
ATOM      7  H2  UNL     1      88.298  -4.085   5.565  1.00  0.00     0.187 HD
BRANCH   6   8
HETATM    8  N1  UNL     1      86.472  -3.084   5.208  1.00  0.00    -0.344 N 
ATOM      9  H12 UNL     1      85.460  -3.192   5.288  1.00  0.00     0.176 HD
ATOM     10  H11 UNL     1      86.873  -2.289   4.711  1.00  0.00     0.176 HD
ENDBRANCH   6   8
ENDBRANCH   1   6
TORSDOF 2
ENDMDL
MODEL 2
REMARK VINA RESULT: -3.713955994      2.707      3.311
REMARK  2 active torsions:
REMARK  status: ('A' for Active; 'I' for Inactive)
REMARK    1  A    between atoms: N1_1  and  N2_4 
REMARK    2  A    between atoms: N2_4  and  C1_6 
ROOT
HETATM    1  C1  UNL     1      85.931  -5.826   7.558  1.00  0.00     0.088 A 
HETATM    2  C2  UNL     1      85.894  -5.910   6.199  1.00  0.00     0.039 A 
HETATM    3  C3  UNL     1      86.953  -5.442   5.513  1.00  0.00     0.010 A 
HETATM    4  C4  UNL     1      87.989  -4.919   6.250  1.00  0.00     0.052 A 
HETATM    5  S1  UNL     1      87.448  -5.097   7.863  1.00  0.00    -0.083 SA
ENDROOT
BRANCH   1   6
HETATM    6  N2  UNL     1      84.910  -6.231   8.505  1.00  0.00    -0.300 N 
ATOM      7  H2  UNL     1      84.406  -5.522   9.037  1.00  0.00     0.187 HD
BRANCH   6   8
HETATM    8  N1  UNL     1      84.606  -7.598   8.696  1.00  0.00    -0.344 N 
ATOM      9  H12 UNL     1      85.309  -8.201   9.122  1.00  0.00     0.176 HD
ATOM     10  H11 UNL     1      83.700  -7.973   8.414  1.00  0.00     0.176 HD
ENDBRANCH   6   8
ENDBRANCH   1   6
TORSDOF 2
ENDMDL
MODEL 3
REMARK VINA RESULT: -3.661590417      2.766      3.475
REMARK  2 active torsions:
REMARK  status: ('A' for Active; 'I' for Inactive)
REMARK    1  A    between atoms: N1_1  and  N2_4 
REMARK    2  A    between atoms: N2_4  and  C1_6 
ROOT
HETATM    1  C1  UNL     1      86.306  -6.317   6.919  1.00  0.00     0.088 A 
HETATM    2  C2  UNL     1      87.582  -6.419   6.456  1.00  0.00     0.039 A 
HETATM    3  C3  UNL     1      88.149  -5.317   5.932  1.00  0.00     0.010 A 
HETATM    4  C4  UNL     1      87.383  -4.175   5.911  1.00  0.00     0.052 A 
HETATM    5  S1  UNL     1      85.910  -4.681   6.619  1.00  0.00    -0.083 SA
ENDROOT
BRANCH   1   6
HETATM    6  N2  UNL     1      85.480  -7.362   7.494  1.00  0.00    -0.300 N 
ATOM      7  H2  UNL     1      85.420  -8.270   7.034  1.00  0.00     0.187 HD
BRANCH   6   8
HETATM    8  N1  UNL     1      84.757  -7.134   8.687  1.00  0.00    -0.344 N 
ATOM      9  H12 UNL     1      85.148  -7.468   9.568  1.00  0.00     0.176 HD
ATOM     10  H11 UNL     1      83.863  -6.644   8.667  1.00  0.00     0.176 HD
ENDBRANCH   6   8
ENDBRANCH   1   6
TORSDOF 2
ENDMDL
MODEL 4
REMARK VINA RESULT: -3.638715363      2.617      3.050
REMARK  2 active torsions:
REMARK  status: ('A' for Active; 'I' for Inactive)
REMARK    1  A    between atoms: N1_1  and  N2_4 
REMARK    2  A    between atoms: N2_4  and  C1_6 
ROOT
HETATM    1  C1  UNL     1      86.242  -5.331   8.314  1.00  0.00     0.088 A 
HETATM    2  C2  UNL     1      85.486  -5.785   7.277  1.00  0.00     0.039 A 
HETATM    3  C3  UNL     1      86.095  -5.972   6.092  1.00  0.00     0.010 A 
HETATM    4  C4  UNL     1      87.440  -5.688   6.033  1.00  0.00     0.052 A 
HETATM    5  S1  UNL     1      87.799  -5.172   7.624  1.00  0.00    -0.083 SA
ENDROOT
BRANCH   1   6
HETATM    6  N2  UNL     1      85.811  -5.027   9.666  1.00  0.00    -0.300 N 
ATOM      7  H2  UNL     1      84.962  -5.454  10.033  1.00  0.00     0.187 HD
BRANCH   6   8
HETATM    8  N1  UNL     1      86.558  -4.144  10.478  1.00  0.00    -0.344 N 
ATOM      9  H12 UNL     1      87.493  -3.871  10.175  1.00  0.00     0.176 HD
ATOM     10  H11 UNL     1      86.169  -3.786  11.351  1.00  0.00     0.176 HD
ENDBRANCH   6   8
ENDBRANCH   1   6
TORSDOF 2
ENDMDL
MODEL 5
REMARK VINA RESULT: -3.621269609      1.228      1.470
REMARK  2 active torsions:
REMARK  status: ('A' for Active; 'I' for Inactive)
REMARK    1  A    between atoms: N1_1  and  N2_4 
REMARK    2  A    between atoms: N2_4  and  C1_6 
ROOT
HETATM    1  C1  UNL     1      86.445  -4.475   6.065  1.00  0.00     0.088 A 
HETATM    2  C2  UNL     1      87.397  -5.424   5.850  1.00  0.00     0.039 A 
HETATM    3  C3  UNL     1      87.497  -6.426   6.742  1.00  0.00     0.010 A 
HETATM    4  C4  UNL     1      86.618  -6.406   7.800  1.00  0.00     0.052 A 
HETATM    5  S1  UNL     1      85.694  -4.996   7.511  1.00  0.00    -0.083 SA
ENDROOT
BRANCH   1   6
HETATM    6  N2  UNL     1      86.166  -3.295   5.270  1.00  0.00    -0.300 N 
ATOM      7  H2  UNL     1      85.225  -3.140   4.909  1.00  0.00     0.187 HD
BRANCH   6   8
HETATM    8  N1  UNL     1      87.186  -2.358   4.990  1.00  0.00    -0.344 N 
ATOM      9  H12 UNL     1      87.237  -1.955   4.054  1.00  0.00     0.176 HD
ATOM     10  H11 UNL     1      87.857  -2.089   5.709  1.00  0.00     0.176 HD
ENDBRANCH   6   8
ENDBRANCH   1   6
TORSDOF 2
ENDMDL
