MODEL 1
REMARK VINA RESULT: -4.485107577      0.000      0.000
REMARK  1 active torsions:
REMARK  status: ('A' for Active; 'I' for Inactive)
REMARK    1  A    between atoms: N1_2  and  C2_4 
ROOT
HETATM    1  C2  UNL     1      86.415  -5.903   6.578  1.00  0.00     0.054 A 
HETATM    2  C3  UNL     1      87.734  -6.072   6.199  1.00  0.00     0.173 A 
HETATM    3  O1  UNL     1      88.174  -4.943   5.693  1.00  0.00    -0.306 OA
HETATM    4  C4  UNL     1      87.256  -4.024   5.699  1.00  0.00     0.158 A 
HETATM    5  N2  UNL     1      87.370  -2.684   5.231  1.00  0.00    -0.074 NA
HETATM    6  C5  UNL     1      86.127  -4.585   6.249  1.00  0.00     0.084 A 
ENDROOT
BRANCH   1   7
HETATM    7  N1  UNL     1      85.540  -6.857   7.170  1.00  0.00    -0.393 N 
HETATM    8  C1  UNL     1      85.398  -6.874   8.611  1.00  0.00     0.146 C 
ATOM      9  H1  UNL     1      85.022  -7.516   6.589  1.00  0.00     0.159 HD
ENDBRANCH   1   7
TORSDOF 1
ENDMDL
MODEL 2
REMARK VINA RESULT: -4.434484292      1.889      3.829
REMARK  1 active torsions:
REMARK  status: ('A' for Active; 'I' for Inactive)
REMARK    1  A    between atoms: N1_2  and  C2_4 
ROOT
HETATM    1  C2  UNL     1      86.908  -5.057   7.068  1.00  0.00     0.054 A 
HETATM    2  C3  UNL     1      87.336  -5.100   8.382  1.00  0.00     0.173 A 
HETATM    3  O1  UNL     1      86.653  -6.024   9.017  1.00  0.00    -0.306 OA
HETATM    4  C4  UNL     1      85.795  -6.609   8.236  1.00  0.00     0.158 A 
HETATM    5  N2  UNL     1      84.886  -7.652   8.574  1.00  0.00    -0.074 NA
HETATM    6  C5  UNL     1      85.921  -6.031   6.994  1.00  0.00     0.084 A 
ENDROOT
BRANCH   1   7
HETATM    7  N1  UNL     1      87.367  -4.211   6.020  1.00  0.00    -0.393 N 
HETATM    8  C1  UNL     1      86.409  -3.377   5.324  1.00  0.00     0.146 C 
ATOM      9  H1  UNL     1      88.354  -4.192   5.763  1.00  0.00     0.159 HD
ENDBRANCH   1   7
TORSDOF 1
ENDMDL
MODEL 3
REMARK VINA RESULT: -4.118351691      1.268      3.588
REMARK  1 active torsions:
REMARK  status: ('A' for Active; 'I' for Inactive)
REMARK    1  A    between atoms: N1_2  and  C2_4 
ROOT
HETATM    1  C2  UNL     1      86.448  -4.670   6.050  1.00  0.00     0.054 A 
HETATM    2  C3  UNL     1      87.501  -5.563   5.981  1.00  0.00     0.173 A 
HETATM    3  O1  UNL     1      87.221  -6.602   6.735  1.00  0.00    -0.306 OA
HETATM    4  C4  UNL     1      86.062  -6.480   7.309  1.00  0.00     0.158 A 
HETATM    5  N2  UNL     1      85.431  -7.402   8.191  1.00  0.00    -0.074 NA
HETATM    6  C5  UNL     1      85.536  -5.274   6.905  1.00  0.00     0.084 A 
ENDROOT
BRANCH   1   7
HETATM    7  N1  UNL     1      86.318  -3.412   5.397  1.00  0.00    -0.393 N 
HETATM    8  C1  UNL     1      87.503  -2.605   5.190  1.00  0.00     0.146 C 
ATOM      9  H1  UNL     1      85.405  -3.084   5.081  1.00  0.00     0.159 HD
ENDBRANCH   1   7
TORSDOF 1
ENDMDL
MODEL 4
REMARK VINA RESULT: -3.723938488      1.686      3.799
REMARK  1 active torsions:
REMARK  status: ('A' for Active; 'I' for Inactive)
REMARK    1  A    between atoms: N1_2  and  C2_4 
ROOT
HETATM    1  C2  UNL     1      86.879  -4.946   6.388  1.00  0.00     0.054 A 
HETATM    2  C3  UNL     1      85.868  -5.505   5.629  1.00  0.00     0.173 A 
HETATM    3  O1  UNL     1      85.232  -6.391   6.362  1.00  0.00    -0.306 OA
HETATM    4  C4  UNL     1      85.736  -6.475   7.556  1.00  0.00     0.158 A 
HETATM    5  N2  UNL     1      85.308  -7.323   8.618  1.00  0.00    -0.074 NA
HETATM    6  C5  UNL     1      86.779  -5.580   7.620  1.00  0.00     0.084 A 
ENDROOT
BRANCH   1   7
HETATM    7  N1  UNL     1      87.818  -3.947   6.006  1.00  0.00    -0.393 N 
HETATM    8  C1  UNL     1      87.349  -2.796   5.262  1.00  0.00     0.146 C 
ATOM      9  H1  UNL     1      88.803  -4.041   6.251  1.00  0.00     0.159 HD
ENDBRANCH   1   7
TORSDOF 1
ENDMDL
MODEL 5
REMARK VINA RESULT: -3.426724336      2.471      2.743
REMARK  1 active torsions:
REMARK  status: ('A' for Active; 'I' for Inactive)
REMARK    1  A    between atoms: N1_2  and  C2_4 
ROOT
HETATM    1  C2  UNL     1      86.318  -5.447   8.485  1.00  0.00     0.054 A 
HETATM    2  C3  UNL     1      85.727  -6.467   7.763  1.00  0.00     0.173 A 
HETATM    3  O1  UNL     1      86.410  -6.649   6.655  1.00  0.00    -0.306 OA
HETATM    4  C4  UNL     1      87.416  -5.831   6.572  1.00  0.00     0.158 A 
HETATM    5  N2  UNL     1      88.371  -5.737   5.520  1.00  0.00    -0.074 NA
HETATM    6  C5  UNL     1      87.398  -5.052   7.706  1.00  0.00     0.084 A 
ENDROOT
BRANCH   1   7
HETATM    7  N1  UNL     1      85.920  -4.913   9.742  1.00  0.00    -0.393 N 
HETATM    8  C1  UNL     1      86.722  -3.869  10.345  1.00  0.00     0.146 C 
ATOM      9  H1  UNL     1      85.083  -5.260  10.211  1.00  0.00     0.159 HD
ENDBRANCH   1   7
TORSDOF 1
ENDMDL
