MODEL 1
REMARK VINA RESULT: -6.324818787      0.000      0.000
REMARK  13 active torsions:
REMARK  status: ('A' for Active; 'I' for Inactive)
REMARK    1  A    between atoms: C2_2  and  C4_4 
REMARK    2  A    between atoms: C4_4  and  C5_5 
REMARK    3  A    between atoms: C5_5  and  C6_6 
REMARK    4  A    between atoms: C6_6  and  C7_7 
REMARK    5  A    between atoms: C7_7  and  O2_9 
REMARK    6  A    between atoms: O2_9  and  C8_10 
REMARK    7  A    between atoms: C12_14  and  O3_16 
REMARK    8  A    between atoms: C15_20  and  C16_21 
REMARK    9  A    between atoms: C16_21  and  O5_23 
REMARK   10  A    between atoms: C16_21  and  O6_25 
REMARK   11  A    between atoms: O6_25  and  C18_26 
REMARK   12  A    between atoms: C18_26  and  O7_27 
REMARK   13  A    between atoms: C18_26  and  C19_29 
ROOT
HETATM    1  C8  UNL     1      49.982  44.181  75.821  1.00  0.00     0.295 C 
HETATM    2  C9  UNL     1      50.167  42.850  75.199  1.00  0.00     0.030 C 
HETATM    3  C10 UNL     1      50.557  42.724  73.968  1.00  0.00    -0.014 C 
HETATM    4  C11 UNL     1      50.834  43.902  73.136  1.00  0.00     0.098 A 
HETATM    5  C12 UNL     1      49.832  44.223  72.083  1.00  0.00     0.128 A 
HETATM    6  C13 UNL     1      50.401  44.245  70.680  1.00  0.00     0.055 C 
HETATM    7  C14 UNL     1      49.669  45.575  72.660  1.00  0.00     0.202 A 
HETATM    8  O4  UNL     1      49.052  46.594  72.359  1.00  0.00    -0.291 OA
HETATM    9  C15 UNL     1      50.580  45.203  73.795  1.00  0.00     0.193 A 
HETATM   10  O8  UNL     1      49.870  45.207  74.950  1.00  0.00    -0.332 OA
ENDROOT
BRANCH   9  11
HETATM   11  C16 UNL     1      51.814  46.107  73.775  1.00  0.00     0.201 C 
HETATM   12  C17 UNL     1      52.950  45.441  74.452  1.00  0.00     0.083 C 
BRANCH  11  13
HETATM   13  O5  UNL     1      51.441  47.206  74.593  1.00  0.00    -0.363 OA
ATOM     14  H5  UNL     1      51.391  47.934  73.984  1.00  0.00     0.213 HD
ENDBRANCH  11  13
BRANCH  11  15
HETATM   15  O6  UNL     1      52.108  46.536  72.504  1.00  0.00    -0.317 OA
BRANCH  15  16
HETATM   16  C18 UNL     1      52.386  47.871  72.454  1.00  0.00     0.314 C 
BRANCH  16  17
HETATM   17  O7  UNL     1      51.307  48.478  71.649  1.00  0.00    -0.366 OA
ATOM     18  H7  UNL     1      51.610  48.450  70.748  1.00  0.00     0.213 HD
ENDBRANCH  16  17
BRANCH  16  19
HETATM   19  C19 UNL     1      53.615  48.286  71.784  1.00  0.00     0.088 A 
HETATM   20  N1  UNL     1      54.146  49.541  71.920  1.00  0.00    -0.344 N 
HETATM   21  C20 UNL     1      55.274  49.649  71.229  1.00  0.00     0.077 A 
ATOM     22  H1  UNL     1      53.733  50.289  72.476  1.00  0.00     0.167 HD
HETATM   23  C21 UNL     1      56.143  50.864  71.132  1.00  0.00     0.089 C 
HETATM   24  N2  UNL     1      55.486  48.488  70.646  1.00  0.00    -0.348 N 
HETATM   25  C22 UNL     1      54.488  47.624  70.963  1.00  0.00     0.034 A 
ATOM     26  H2  UNL     1      56.281  48.271  70.046  1.00  0.00     0.167 HD
HETATM   27  C23 UNL     1      54.387  46.241  70.485  1.00  0.00     0.070 C 
ENDBRANCH  16  19
ENDBRANCH  15  16
ENDBRANCH  11  15
ENDBRANCH   9  11
BRANCH   5  28
HETATM   28  O3  UNL     1      48.700  43.415  72.195  1.00  0.00    -0.382 OA
ATOM     29  H3  UNL     1      47.942  43.917  72.471  1.00  0.00     0.211 HD
ENDBRANCH   5  28
BRANCH   1  30
HETATM   30  O2  UNL     1      48.791  44.068  76.592  1.00  0.00    -0.285 OA
BRANCH  30  31
HETATM   31  C7  UNL     1      48.004  45.162  76.927  1.00  0.00     0.270 C 
HETATM   32  O1  UNL     1      48.493  45.954  77.769  1.00  0.00    -0.264 OA
BRANCH  31  33
HETATM   33  C6  UNL     1      46.677  45.427  76.369  1.00  0.00     0.051 A 
HETATM   34  C24 UNL     1      46.318  46.876  76.170  1.00  0.00     0.020 A 
HETATM   35  C25 UNL     1      46.348  46.709  74.689  1.00  0.00     0.002 A 
HETATM   36  C26 UNL     1      46.663  45.253  74.868  1.00  0.00     0.020 A 
BRANCH  33  37
HETATM   37  C5  UNL     1      45.532  44.682  77.016  1.00  0.00     0.047 C 
BRANCH  37  38
HETATM   38  C4  UNL     1      45.276  43.384  76.379  1.00  0.00    -0.023 C 
BRANCH  38  39
HETATM   39  C2  UNL     1      45.882  42.254  76.693  1.00  0.00    -0.091 C 
HETATM   40  C1  UNL     1      46.273  41.275  75.630  1.00  0.00     0.042 C 
HETATM   41  C3  UNL     1      46.206  41.896  78.101  1.00  0.00     0.042 C 
ENDBRANCH  38  39
ENDBRANCH  37  38
ENDBRANCH  33  37
ENDBRANCH  31  33
ENDBRANCH  30  31
ENDBRANCH   1  30
TORSDOF 13
ENDMDL
MODEL 2
REMARK VINA RESULT: -6.286801469     11.709     14.452
REMARK  13 active torsions:
REMARK  status: ('A' for Active; 'I' for Inactive)
REMARK    1  A    between atoms: C2_2  and  C4_4 
REMARK    2  A    between atoms: C4_4  and  C5_5 
REMARK    3  A    between atoms: C5_5  and  C6_6 
REMARK    4  A    between atoms: C6_6  and  C7_7 
REMARK    5  A    between atoms: C7_7  and  O2_9 
REMARK    6  A    between atoms: O2_9  and  C8_10 
REMARK    7  A    between atoms: C12_14  and  O3_16 
REMARK    8  A    between atoms: C15_20  and  C16_21 
REMARK    9  A    between atoms: C16_21  and  O5_23 
REMARK   10  A    between atoms: C16_21  and  O6_25 
REMARK   11  A    between atoms: O6_25  and  C18_26 
REMARK   12  A    between atoms: C18_26  and  O7_27 
REMARK   13  A    between atoms: C18_26  and  C19_29 
ROOT
HETATM    1  C8  UNL     1      49.262  44.316  62.146  1.00  0.00     0.295 C 
HETATM    2  C9  UNL     1      49.478  44.406  60.684  1.00  0.00     0.030 C 
HETATM    3  C10 UNL     1      49.821  43.370  59.982  1.00  0.00    -0.014 C 
HETATM    4  C11 UNL     1      50.011  42.057  60.612  1.00  0.00     0.098 A 
HETATM    5  C12 UNL     1      51.416  41.588  60.760  1.00  0.00     0.128 A 
HETATM    6  C13 UNL     1      51.699  40.269  60.072  1.00  0.00     0.055 C 
HETATM    7  C14 UNL     1      51.205  41.443  62.217  1.00  0.00     0.202 A 
HETATM    8  O4  UNL     1      51.862  41.018  63.166  1.00  0.00    -0.291 OA
HETATM    9  C15 UNL     1      49.834  42.040  62.081  1.00  0.00     0.193 A 
HETATM   10  O8  UNL     1      49.803  43.227  62.736  1.00  0.00    -0.332 OA
ENDROOT
BRANCH   9  11
HETATM   11  C16 UNL     1      48.786  41.016  62.522  1.00  0.00     0.201 C 
HETATM   12  C17 UNL     1      47.442  41.634  62.545  1.00  0.00     0.083 C 
BRANCH  11  13
HETATM   13  O5  UNL     1      49.131  40.740  63.871  1.00  0.00    -0.363 OA
ATOM     14  H5  UNL     1      48.485  40.098  64.143  1.00  0.00     0.213 HD
ENDBRANCH  11  13
BRANCH  11  15
HETATM   15  O6  UNL     1      48.851  39.869  61.769  1.00  0.00    -0.317 OA
BRANCH  15  16
HETATM   16  C18 UNL     1      48.466  38.762  62.469  1.00  0.00     0.314 C 
BRANCH  16  17
HETATM   17  O7  UNL     1      49.706  38.013  62.751  1.00  0.00    -0.366 OA
ATOM     18  H7  UNL     1      50.379  38.669  62.894  1.00  0.00     0.213 HD
ENDBRANCH  16  17
BRANCH  16  19
HETATM   19  C19 UNL     1      47.605  37.796  61.793  1.00  0.00     0.088 A 
HETATM   20  N1  UNL     1      47.961  37.175  60.626  1.00  0.00    -0.344 N 
HETATM   21  C20 UNL     1      47.014  36.330  60.239  1.00  0.00     0.077 A 
ATOM     22  H1  UNL     1      48.833  37.339  60.124  1.00  0.00     0.167 HD
HETATM   23  C21 UNL     1      47.040  35.468  59.014  1.00  0.00     0.089 C 
HETATM   24  N2  UNL     1      46.050  36.389  61.131  1.00  0.00    -0.348 N 
HETATM   25  C22 UNL     1      46.375  37.280  62.104  1.00  0.00     0.034 A 
ATOM     26  H2  UNL     1      45.186  35.848  61.099  1.00  0.00     0.167 HD
HETATM   27  C23 UNL     1      45.533  37.614  63.257  1.00  0.00     0.070 C 
ENDBRANCH  16  19
ENDBRANCH  15  16
ENDBRANCH  11  15
ENDBRANCH   9  11
BRANCH   5  28
HETATM   28  O3  UNL     1      52.325  42.586  60.412  1.00  0.00    -0.382 OA
ATOM     29  H3  UNL     1      52.500  42.584  59.478  1.00  0.00     0.211 HD
ENDBRANCH   5  28
BRANCH   1  30
HETATM   30  O2  UNL     1      49.847  45.497  62.681  1.00  0.00    -0.285 OA
BRANCH  30  31
HETATM   31  C7  UNL     1      49.349  46.768  62.424  1.00  0.00     0.270 C 
HETATM   32  O1  UNL     1      50.172  47.599  61.966  1.00  0.00    -0.264 OA
BRANCH  31  33
HETATM   33  C6  UNL     1      47.962  47.174  62.655  1.00  0.00     0.051 A 
HETATM   34  C24 UNL     1      47.301  46.609  63.885  1.00  0.00     0.020 A 
HETATM   35  C25 UNL     1      47.265  47.958  64.518  1.00  0.00     0.002 A 
HETATM   36  C26 UNL     1      47.884  48.546  63.283  1.00  0.00     0.020 A 
BRANCH  33  37
HETATM   37  C5  UNL     1      47.040  47.066  61.461  1.00  0.00     0.047 C 
BRANCH  37  38
HETATM   38  C4  UNL     1      45.976  46.074  61.664  1.00  0.00    -0.023 C 
BRANCH  38  39
HETATM   39  C2  UNL     1      44.696  46.274  61.408  1.00  0.00    -0.091 C 
HETATM   40  C1  UNL     1      44.267  47.320  60.426  1.00  0.00     0.042 C 
HETATM   41  C3  UNL     1      43.624  45.483  62.073  1.00  0.00     0.042 C 
ENDBRANCH  38  39
ENDBRANCH  37  38
ENDBRANCH  33  37
ENDBRANCH  31  33
ENDBRANCH  30  31
ENDBRANCH   1  30
TORSDOF 13
ENDMDL
MODEL 3
REMARK VINA RESULT: -6.246830619      3.799      8.720
REMARK  13 active torsions:
REMARK  status: ('A' for Active; 'I' for Inactive)
REMARK    1  A    between atoms: C2_2  and  C4_4 
REMARK    2  A    between atoms: C4_4  and  C5_5 
REMARK    3  A    between atoms: C5_5  and  C6_6 
REMARK    4  A    between atoms: C6_6  and  C7_7 
REMARK    5  A    between atoms: C7_7  and  O2_9 
REMARK    6  A    between atoms: O2_9  and  C8_10 
REMARK    7  A    between atoms: C12_14  and  O3_16 
REMARK    8  A    between atoms: C15_20  and  C16_21 
REMARK    9  A    between atoms: C16_21  and  O5_23 
REMARK   10  A    between atoms: C16_21  and  O6_25 
REMARK   11  A    between atoms: O6_25  and  C18_26 
REMARK   12  A    between atoms: C18_26  and  O7_27 
REMARK   13  A    between atoms: C18_26  and  C19_29 
ROOT
HETATM    1  C8  UNL     1      49.937  46.263  75.168  1.00  0.00     0.295 C 
HETATM    2  C9  UNL     1      49.712  46.766  76.543  1.00  0.00     0.030 C 
HETATM    3  C10 UNL     1      48.745  46.315  77.282  1.00  0.00    -0.014 C 
HETATM    4  C11 UNL     1      47.827  45.283  76.782  1.00  0.00     0.098 A 
HETATM    5  C12 UNL     1      46.453  45.731  76.426  1.00  0.00     0.128 A 
HETATM    6  C13 UNL     1      45.358  45.023  77.195  1.00  0.00     0.055 C 
HETATM    7  C14 UNL     1      46.639  45.191  75.061  1.00  0.00     0.202 A 
HETATM    8  O4  UNL     1      45.937  45.059  74.061  1.00  0.00    -0.291 OA
HETATM    9  C15 UNL     1      48.068  44.860  75.384  1.00  0.00     0.193 A 
HETATM   10  O8  UNL     1      48.882  45.624  74.616  1.00  0.00    -0.332 OA
ENDROOT
BRANCH   9  11
HETATM   11  C16 UNL     1      48.279  43.349  75.270  1.00  0.00     0.201 C 
HETATM   12  C17 UNL     1      49.694  43.006  75.537  1.00  0.00     0.083 C 
BRANCH  11  13
HETATM   13  O5  UNL     1      48.048  43.079  73.896  1.00  0.00    -0.363 OA
ATOM     14  H5  UNL     1      47.589  42.247  73.903  1.00  0.00     0.213 HD
ENDBRANCH  11  13
BRANCH  11  15
HETATM   15  O6  UNL     1      47.388  42.653  76.049  1.00  0.00    -0.317 OA
BRANCH  15  16
HETATM   16  C18 UNL     1      46.708  41.702  75.344  1.00  0.00     0.314 C 
BRANCH  16  17
HETATM   17  O7  UNL     1      45.307  42.166  75.290  1.00  0.00    -0.366 OA
ATOM     18  H7  UNL     1      45.279  42.826  74.606  1.00  0.00     0.213 HD
ENDBRANCH  16  17
BRANCH  16  19
HETATM   19  C19 UNL     1      46.623  40.361  75.915  1.00  0.00     0.088 A 
HETATM   20  N1  UNL     1      45.673  40.007  76.836  1.00  0.00    -0.344 N 
HETATM   21  C20 UNL     1      45.802  38.730  77.173  1.00  0.00     0.077 A 
ATOM     22  H1  UNL     1      44.964  40.637  77.211  1.00  0.00     0.167 HD
HETATM   23  C21 UNL     1      44.950  37.978  78.148  1.00  0.00     0.089 C 
HETATM   24  N2  UNL     1      46.817  38.247  76.489  1.00  0.00    -0.348 N 
HETATM   25  C22 UNL     1      47.348  39.220  75.704  1.00  0.00     0.034 A 
ATOM     26  H2  UNL     1      47.154  37.287  76.540  1.00  0.00     0.167 HD
HETATM   27  C23 UNL     1      48.500  39.048  74.812  1.00  0.00     0.070 C 
ENDBRANCH  16  19
ENDBRANCH  15  16
ENDBRANCH  11  15
ENDBRANCH   9  11
BRANCH   5  28
HETATM   28  O3  UNL     1      46.341  47.120  76.480  1.00  0.00    -0.382 OA
ATOM     29  H3  UNL     1      46.351  47.502  75.610  1.00  0.00     0.211 HD
ENDBRANCH   5  28
BRANCH   1  30
HETATM   30  O2  UNL     1      50.259  47.418  74.400  1.00  0.00    -0.285 OA
BRANCH  30  31
HETATM   31  C7  UNL     1      50.007  47.511  73.038  1.00  0.00     0.270 C 
HETATM   32  O1  UNL     1      48.998  48.184  72.711  1.00  0.00    -0.264 OA
BRANCH  31  33
HETATM   33  C6  UNL     1      50.827  46.884  72.001  1.00  0.00     0.051 A 
HETATM   34  C24 UNL     1      51.591  45.653  72.413  1.00  0.00     0.020 A 
HETATM   35  C25 UNL     1      50.738  44.798  71.539  1.00  0.00     0.002 A 
HETATM   36  C26 UNL     1      49.994  46.020  71.084  1.00  0.00     0.020 A 
BRANCH  33  37
HETATM   37  C5  UNL     1      51.715  47.820  71.212  1.00  0.00     0.047 C 
BRANCH  37  38
HETATM   38  C4  UNL     1      52.866  48.291  71.994  1.00  0.00    -0.023 C 
BRANCH  38  39
HETATM   39  C2  UNL     1      54.107  48.357  71.549  1.00  0.00    -0.091 C 
HETATM   40  C1  UNL     1      54.771  47.154  70.956  1.00  0.00     0.042 C 
HETATM   41  C3  UNL     1      54.903  49.614  71.610  1.00  0.00     0.042 C 
ENDBRANCH  38  39
ENDBRANCH  37  38
ENDBRANCH  33  37
ENDBRANCH  31  33
ENDBRANCH  30  31
ENDBRANCH   1  30
TORSDOF 13
ENDMDL
MODEL 4
REMARK VINA RESULT: -6.218878306      2.753      4.254
REMARK  13 active torsions:
REMARK  status: ('A' for Active; 'I' for Inactive)
REMARK    1  A    between atoms: C2_2  and  C4_4 
REMARK    2  A    between atoms: C4_4  and  C5_5 
REMARK    3  A    between atoms: C5_5  and  C6_6 
REMARK    4  A    between atoms: C6_6  and  C7_7 
REMARK    5  A    between atoms: C7_7  and  O2_9 
REMARK    6  A    between atoms: O2_9  and  C8_10 
REMARK    7  A    between atoms: C12_14  and  O3_16 
REMARK    8  A    between atoms: C15_20  and  C16_21 
REMARK    9  A    between atoms: C16_21  and  O5_23 
REMARK   10  A    between atoms: C16_21  and  O6_25 
REMARK   11  A    between atoms: O6_25  and  C18_26 
REMARK   12  A    between atoms: C18_26  and  O7_27 
REMARK   13  A    between atoms: C18_26  and  C19_29 
ROOT
HETATM    1  C8  UNL     1      51.036  47.349  73.647  1.00  0.00     0.295 C 
HETATM    2  C9  UNL     1      51.806  46.550  74.628  1.00  0.00     0.030 C 
HETATM    3  C10 UNL     1      52.336  45.409  74.309  1.00  0.00    -0.014 C 
HETATM    4  C11 UNL     1      52.192  44.859  72.955  1.00  0.00     0.098 A 
HETATM    5  C12 UNL     1      51.258  43.711  72.799  1.00  0.00     0.128 A 
HETATM    6  C13 UNL     1      51.906  42.462  72.240  1.00  0.00     0.055 C 
HETATM    7  C14 UNL     1      50.504  44.474  71.781  1.00  0.00     0.202 A 
HETATM    8  O4  UNL     1      49.559  44.245  71.028  1.00  0.00    -0.291 OA
HETATM    9  C15 UNL     1      51.368  45.675  72.036  1.00  0.00     0.193 A 
HETATM   10  O8  UNL     1      50.605  46.662  72.566  1.00  0.00    -0.332 OA
ENDROOT
BRANCH   9  11
HETATM   11  C16 UNL     1      52.124  46.039  70.757  1.00  0.00     0.201 C 
HETATM   12  C17 UNL     1      53.316  46.857  71.080  1.00  0.00     0.083 C 
BRANCH  11  13
HETATM   13  O5  UNL     1      51.224  46.891  70.063  1.00  0.00    -0.363 OA
ATOM     14  H5  UNL     1      51.790  47.538  69.660  1.00  0.00     0.213 HD
ENDBRANCH  11  13
BRANCH  11  15
HETATM   15  O6  UNL     1      52.408  44.928  70.002  1.00  0.00    -0.317 OA
BRANCH  15  16
HETATM   16  C18 UNL     1      53.738  44.813  69.719  1.00  0.00     0.314 C 
BRANCH  16  17
HETATM   17  O7  UNL     1      53.842  44.846  68.247  1.00  0.00    -0.366 OA
ATOM     18  H7  UNL     1      53.074  44.389  67.923  1.00  0.00     0.213 HD
ENDBRANCH  16  17
BRANCH  16  19
HETATM   19  C19 UNL     1      54.411  43.575  70.102  1.00  0.00     0.088 A 
HETATM   20  N1  UNL     1      54.222  42.393  69.437  1.00  0.00    -0.344 N 
HETATM   21  C20 UNL     1      54.966  41.432  69.970  1.00  0.00     0.077 A 
ATOM     22  H1  UNL     1      53.595  42.268  68.641  1.00  0.00     0.167 HD
HETATM   23  C21 UNL     1      55.032  40.006  69.517  1.00  0.00     0.089 C 
HETATM   24  N2  UNL     1      55.635  41.967  70.968  1.00  0.00    -0.348 N 
HETATM   25  C22 UNL     1      55.321  43.283  71.082  1.00  0.00     0.034 A 
ATOM     26  H2  UNL     1      56.291  41.467  71.568  1.00  0.00     0.167 HD
HETATM   27  C23 UNL     1      55.867  44.196  72.092  1.00  0.00     0.070 C 
ENDBRANCH  16  19
ENDBRANCH  15  16
ENDBRANCH  11  15
ENDBRANCH   9  11
BRANCH   5  28
HETATM   28  O3  UNL     1      50.546  43.471  73.975  1.00  0.00    -0.382 OA
ATOM     29  H3  UNL     1      50.505  44.249  74.519  1.00  0.00     0.211 HD
ENDBRANCH   5  28
BRANCH   1  30
HETATM   30  O2  UNL     1      49.922  47.855  74.375  1.00  0.00    -0.285 OA
BRANCH  30  31
HETATM   31  C7  UNL     1      48.608  47.663  73.969  1.00  0.00     0.270 C 
HETATM   32  O1  UNL     1      48.204  48.408  73.042  1.00  0.00    -0.264 OA
BRANCH  31  33
HETATM   33  C6  UNL     1      47.700  46.673  74.550  1.00  0.00     0.051 A 
HETATM   34  C24 UNL     1      47.868  46.403  76.023  1.00  0.00     0.020 A 
HETATM   35  C25 UNL     1      46.549  47.033  76.316  1.00  0.00     0.002 A 
HETATM   36  C26 UNL     1      46.345  47.272  74.849  1.00  0.00     0.020 A 
BRANCH  33  37
HETATM   37  C5  UNL     1      47.568  45.375  73.785  1.00  0.00     0.047 C 
BRANCH  37  38
HETATM   38  C4  UNL     1      46.346  44.640  74.137  1.00  0.00    -0.023 C 
BRANCH  38  39
HETATM   39  C2  UNL     1      46.310  43.530  74.849  1.00  0.00    -0.091 C 
HETATM   40  C1  UNL     1      47.251  42.403  74.556  1.00  0.00     0.042 C 
HETATM   41  C3  UNL     1      45.346  43.339  75.967  1.00  0.00     0.042 C 
ENDBRANCH  38  39
ENDBRANCH  37  38
ENDBRANCH  33  37
ENDBRANCH  31  33
ENDBRANCH  30  31
ENDBRANCH   1  30
TORSDOF 13
ENDMDL
MODEL 5
REMARK VINA RESULT: -6.209745401      3.845      8.292
REMARK  13 active torsions:
REMARK  status: ('A' for Active; 'I' for Inactive)
REMARK    1  A    between atoms: C2_2  and  C4_4 
REMARK    2  A    between atoms: C4_4  and  C5_5 
REMARK    3  A    between atoms: C5_5  and  C6_6 
REMARK    4  A    between atoms: C6_6  and  C7_7 
REMARK    5  A    between atoms: C7_7  and  O2_9 
REMARK    6  A    between atoms: O2_9  and  C8_10 
REMARK    7  A    between atoms: C12_14  and  O3_16 
REMARK    8  A    between atoms: C15_20  and  C16_21 
REMARK    9  A    between atoms: C16_21  and  O5_23 
REMARK   10  A    between atoms: C16_21  and  O6_25 
REMARK   11  A    between atoms: O6_25  and  C18_26 
REMARK   12  A    between atoms: C18_26  and  O7_27 
REMARK   13  A    between atoms: C18_26  and  C19_29 
ROOT
HETATM    1  C8  UNL     1      49.791  46.327  75.356  1.00  0.00     0.295 C 
HETATM    2  C9  UNL     1      49.512  46.789  76.735  1.00  0.00     0.030 C 
HETATM    3  C10 UNL     1      48.545  46.284  77.438  1.00  0.00    -0.014 C 
HETATM    4  C11 UNL     1      47.681  45.230  76.892  1.00  0.00     0.098 A 
HETATM    5  C12 UNL     1      46.300  45.633  76.510  1.00  0.00     0.128 A 
HETATM    6  C13 UNL     1      45.213  44.867  77.235  1.00  0.00     0.055 C 
HETATM    7  C14 UNL     1      46.541  45.133  75.140  1.00  0.00     0.202 A 
HETATM    8  O4  UNL     1      45.869  44.997  74.119  1.00  0.00    -0.291 OA
HETATM    9  C15 UNL     1      47.973  44.849  75.492  1.00  0.00     0.193 A 
HETATM   10  O8  UNL     1      48.776  45.661  74.762  1.00  0.00    -0.332 OA
ENDROOT
BRANCH   9  11
HETATM   11  C16 UNL     1      48.245  43.350  75.350  1.00  0.00     0.201 C 
HETATM   12  C17 UNL     1      49.672  43.059  75.616  1.00  0.00     0.083 C 
BRANCH  11  13
HETATM   13  O5  UNL     1      48.028  43.097  73.970  1.00  0.00    -0.363 OA
ATOM     14  H5  UNL     1      48.821  42.649  73.695  1.00  0.00     0.213 HD
ENDBRANCH  11  13
BRANCH  11  15
HETATM   15  O6  UNL     1      47.381  42.604  76.113  1.00  0.00    -0.317 OA
BRANCH  15  16
HETATM   16  C18 UNL     1      46.738  41.643  75.386  1.00  0.00     0.314 C 
BRANCH  16  17
HETATM   17  O7  UNL     1      45.341  42.103  75.257  1.00  0.00    -0.366 OA
ATOM     18  H7  UNL     1      44.813  41.315  75.194  1.00  0.00     0.213 HD
ENDBRANCH  16  17
BRANCH  16  19
HETATM   19  C19 UNL     1      46.627  40.309  75.970  1.00  0.00     0.088 A 
HETATM   20  N1  UNL     1      45.702  39.995  76.930  1.00  0.00    -0.344 N 
HETATM   21  C20 UNL     1      45.797  38.715  77.269  1.00  0.00     0.077 A 
ATOM     22  H1  UNL     1      45.032  40.653  77.328  1.00  0.00     0.167 HD
HETATM   23  C21 UNL     1      44.958  38.001  78.283  1.00  0.00     0.089 C 
HETATM   24  N2  UNL     1      46.766  38.192  76.549  1.00  0.00    -0.348 N 
HETATM   25  C22 UNL     1      47.301  39.140  75.737  1.00  0.00     0.034 A 
ATOM     26  H2  UNL     1      47.070  37.220  76.593  1.00  0.00     0.167 HD
HETATM   27  C23 UNL     1      48.409  38.922  74.801  1.00  0.00     0.070 C 
ENDBRANCH  16  19
ENDBRANCH  15  16
ENDBRANCH  11  15
ENDBRANCH   9  11
BRANCH   5  28
HETATM   28  O3  UNL     1      46.133  47.016  76.592  1.00  0.00    -0.382 OA
ATOM     29  H3  UNL     1      45.248  47.272  76.358  1.00  0.00     0.211 HD
ENDBRANCH   5  28
BRANCH   1  30
HETATM   30  O2  UNL     1      50.088  47.510  74.622  1.00  0.00    -0.285 OA
BRANCH  30  31
HETATM   31  C7  UNL     1      50.028  47.572  73.236  1.00  0.00     0.270 C 
HETATM   32  O1  UNL     1      49.046  48.190  72.755  1.00  0.00    -0.264 OA
BRANCH  31  33
HETATM   33  C6  UNL     1      51.017  46.973  72.340  1.00  0.00     0.051 A 
HETATM   34  C24 UNL     1      51.777  47.927  71.457  1.00  0.00     0.020 A 
HETATM   35  C25 UNL     1      53.039  47.655  72.201  1.00  0.00     0.002 A 
HETATM   36  C26 UNL     1      52.308  46.667  73.063  1.00  0.00     0.020 A 
BRANCH  33  37
HETATM   37  C5  UNL     1      50.541  45.779  71.543  1.00  0.00     0.047 C 
BRANCH  37  38
HETATM   38  C4  UNL     1      50.802  44.507  72.229  1.00  0.00    -0.023 C 
BRANCH  38  39
HETATM   39  C2  UNL     1      51.586  43.548  71.773  1.00  0.00    -0.091 C 
HETATM   40  C1  UNL     1      52.268  43.684  70.447  1.00  0.00     0.042 C 
HETATM   41  C3  UNL     1      51.833  42.296  72.540  1.00  0.00     0.042 C 
ENDBRANCH  38  39
ENDBRANCH  37  38
ENDBRANCH  33  37
ENDBRANCH  31  33
ENDBRANCH  30  31
ENDBRANCH   1  30
TORSDOF 13
ENDMDL
