MODEL 1
REMARK VINA RESULT: -6.461187635      0.000      0.000
REMARK  11 active torsions:
REMARK  status: ('A' for Active; 'I' for Inactive)
REMARK    1  A    between atoms: O1_2  and  C2_3 
REMARK    2  A    between atoms: C3_4  and  N1_5 
REMARK    3  A    between atoms: C7_12  and  C8_13 
REMARK    4  A    between atoms: C8_13  and  O2_14 
REMARK    5  A    between atoms: O2_14  and  C9_15 
REMARK    6  A    between atoms: C12_19  and  N2_20 
REMARK       I    between atoms: N2_20  and  C13_22 
REMARK    7  A    between atoms: C13_22  and  C14_24 
REMARK    8  A    between atoms: C15_25  and  O5_26 
REMARK    9  A    between atoms: C17_30  and  O7_31 
REMARK   10  A    between atoms: C18_33  and  N3_34 
REMARK   11  A    between atoms: N3_34  and  C19_36 
ROOT
HETATM    1  C9  UNL     1      48.438  42.769  61.530  1.00  0.00     0.177 C 
HETATM    2  C10 UNL     1      49.259  41.525  61.520  1.00  0.00     0.151 C 
HETATM    3  C11 UNL     1      49.801  41.329  60.110  1.00  0.00     0.042 C 
HETATM    4  O3  UNL     1      48.512  40.460  61.948  1.00  0.00    -0.357 OA
HETATM    5  C12 UNL     1      47.244  40.913  62.282  1.00  0.00     0.249 C 
HETATM    6  C18 UNL     1      47.027  42.186  61.489  1.00  0.00     0.163 C 
ENDROOT
BRANCH   1   7
HETATM    7  O2  UNL     1      48.644  43.538  62.646  1.00  0.00    -0.381 OA
BRANCH   7   8
HETATM    8  C8  UNL     1      49.612  44.495  62.565  1.00  0.00     0.175 C 
BRANCH   8   9
HETATM    9  C7  UNL     1      49.266  45.828  63.193  1.00  0.00     0.040 C 
HETATM   10  C2  UNL     1      49.320  46.837  62.068  1.00  0.00     0.157 C 
HETATM   11  C3  UNL     1      48.631  48.142  62.431  1.00  0.00     0.212 C 
HETATM   12  C4  UNL     1      47.152  47.752  62.558  1.00  0.00     0.035 C 
HETATM   13  C5  UNL     1      47.047  46.916  63.783  1.00  0.00     0.003 C 
HETATM   14  C6  UNL     1      47.980  45.781  63.917  1.00  0.00     0.009 C 
BRANCH  10  15
HETATM   15  O1  UNL     1      48.671  46.368  60.930  1.00  0.00    -0.388 OA
HETATM   16  C1  UNL     1      49.400  46.757  59.817  1.00  0.00     0.202 C 
ENDBRANCH  10  15
BRANCH  11  17
HETATM   17  N1  UNL     1      49.174  48.632  63.658  1.00  0.00    -0.073 N 
ATOM     18  H13 UNL     1      48.633  49.408  64.040  1.00  0.00     0.274 HD
ATOM     19  H12 UNL     1      49.046  47.975  64.427  1.00  0.00     0.274 HD
ATOM     20  H11 UNL     1      50.154  48.875  63.515  1.00  0.00     0.274 HD
ENDBRANCH  11  17
ENDBRANCH   8   9
ENDBRANCH   7   8
ENDBRANCH   1   7
BRANCH   6  21
HETATM   21  N3  UNL     1      46.058  43.059  62.075  1.00  0.00    -0.367 N 
ATOM     22  H3  UNL     1      45.761  42.935  63.043  1.00  0.00     0.161 HD
BRANCH  21  23
HETATM   23  C19 UNL     1      45.565  44.012  61.344  1.00  0.00     0.113 A 
HETATM   24  S1  UNL     1      45.819  44.432  59.716  1.00  0.00    -0.076 SA
HETATM   25  C20 UNL     1      44.880  45.789  59.335  1.00  0.00     0.066 A 
HETATM   26  C21 UNL     1      44.146  46.228  60.406  1.00  0.00    -0.012 A 
HETATM   27  C22 UNL     1      43.239  47.426  60.287  1.00  0.00     0.057 C 
HETATM   28  S2  UNL     1      44.451  45.234  61.747  1.00  0.00    -0.070 SA
ENDBRANCH  21  23
ENDBRANCH   6  21
BRANCH   5  29
HETATM   29  N2  UNL     1      46.296  39.871  61.900  1.00  0.00    -0.328 N 
HETATM   30  C13 UNL     1      46.242  38.621  62.560  1.00  0.00     0.261 C 
HETATM   31  O4  UNL     1      47.085  38.470  63.515  1.00  0.00    -0.267 OA
ATOM     32  H2  UNL     1      45.649  40.052  61.131  1.00  0.00     0.165 HD
BRANCH  30  33
HETATM   33  C14 UNL     1      45.338  37.536  62.249  1.00  0.00     0.125 A 
HETATM   34  C15 UNL     1      44.545  37.435  61.124  1.00  0.00     0.108 A 
HETATM   35  C16 UNL     1      43.866  36.247  61.268  1.00  0.00     0.182 A 
HETATM   36  O6  UNL     1      44.229  35.693  62.385  1.00  0.00    -0.297 OA
HETATM   37  C17 UNL     1      45.123  36.428  63.030  1.00  0.00     0.201 A 
BRANCH  34  38
HETATM   38  O5  UNL     1      44.420  38.306  60.058  1.00  0.00    -0.358 OA
ATOM     39  H5  UNL     1      43.800  38.292  59.338  1.00  0.00     0.217 HD
ENDBRANCH  34  38
BRANCH  37  40
HETATM   40  O7  UNL     1      45.661  36.044  64.248  1.00  0.00    -0.340 OA
ATOM     41  H7  UNL     1      45.354  35.431  64.907  1.00  0.00     0.220 HD
ENDBRANCH  37  40
ENDBRANCH  30  33
ENDBRANCH   5  29
TORSDOF 11
ENDMDL
MODEL 2
REMARK VINA RESULT: -6.416900656      3.144      9.130
REMARK  11 active torsions:
REMARK  status: ('A' for Active; 'I' for Inactive)
REMARK    1  A    between atoms: O1_2  and  C2_3 
REMARK    2  A    between atoms: C3_4  and  N1_5 
REMARK    3  A    between atoms: C7_12  and  C8_13 
REMARK    4  A    between atoms: C8_13  and  O2_14 
REMARK    5  A    between atoms: O2_14  and  C9_15 
REMARK    6  A    between atoms: C12_19  and  N2_20 
REMARK       I    between atoms: N2_20  and  C13_22 
REMARK    7  A    between atoms: C13_22  and  C14_24 
REMARK    8  A    between atoms: C15_25  and  O5_26 
REMARK    9  A    between atoms: C17_30  and  O7_31 
REMARK   10  A    between atoms: C18_33  and  N3_34 
REMARK   11  A    between atoms: N3_34  and  C19_36 
ROOT
HETATM    1  C9  UNL     1      47.692  41.255  61.932  1.00  0.00     0.177 C 
HETATM    2  C10 UNL     1      46.525  42.059  61.470  1.00  0.00     0.151 C 
HETATM    3  C11 UNL     1      46.480  41.990  59.948  1.00  0.00     0.042 C 
HETATM    4  O3  UNL     1      46.620  43.344  61.934  1.00  0.00    -0.357 OA
HETATM    5  C12 UNL     1      47.762  43.451  62.714  1.00  0.00     0.249 C 
HETATM    6  C18 UNL     1      48.701  42.359  62.242  1.00  0.00     0.163 C 
ENDROOT
BRANCH   1   7
HETATM    7  O2  UNL     1      47.412  40.491  63.036  1.00  0.00    -0.381 OA
BRANCH   7   8
HETATM    8  C8  UNL     1      47.441  39.137  62.872  1.00  0.00     0.175 C 
BRANCH   8   9
HETATM    9  C7  UNL     1      46.105  38.488  62.579  1.00  0.00     0.040 C 
HETATM   10  C2  UNL     1      46.211  37.955  61.169  1.00  0.00     0.157 C 
HETATM   11  C3  UNL     1      45.118  36.946  60.850  1.00  0.00     0.212 C 
HETATM   12  C4  UNL     1      45.443  35.755  61.763  1.00  0.00     0.035 C 
HETATM   13  C5  UNL     1      45.151  36.204  63.151  1.00  0.00     0.003 C 
HETATM   14  C6  UNL     1      45.746  37.478  63.595  1.00  0.00     0.009 C 
BRANCH  10  15
HETATM   15  O1  UNL     1      47.414  37.287  60.964  1.00  0.00    -0.388 OA
HETATM   16  C1  UNL     1      47.839  37.535  59.668  1.00  0.00     0.202 C 
ENDBRANCH  10  15
BRANCH  11  17
HETATM   17  N1  UNL     1      43.847  37.528  61.143  1.00  0.00    -0.073 N 
ATOM     18  H13 UNL     1      43.852  38.544  61.044  1.00  0.00     0.274 HD
ATOM     19  H12 UNL     1      43.151  37.318  60.429  1.00  0.00     0.274 HD
ATOM     20  H11 UNL     1      43.551  37.230  62.073  1.00  0.00     0.274 HD
ENDBRANCH  11  17
ENDBRANCH   8   9
ENDBRANCH   7   8
ENDBRANCH   1   7
BRANCH   6  21
HETATM   21  N3  UNL     1      49.655  41.966  63.232  1.00  0.00    -0.367 N 
ATOM     22  H3  UNL     1      49.401  41.937  64.220  1.00  0.00     0.161 HD
BRANCH  21  23
HETATM   23  C19 UNL     1      50.852  41.646  62.843  1.00  0.00     0.113 A 
HETATM   24  S1  UNL     1      52.353  42.412  63.071  1.00  0.00    -0.076 SA
HETATM   25  C20 UNL     1      53.566  41.500  62.316  1.00  0.00     0.066 A 
HETATM   26  C21 UNL     1      53.067  40.378  61.708  1.00  0.00    -0.012 A 
HETATM   27  C22 UNL     1      53.974  39.423  60.976  1.00  0.00     0.057 C 
HETATM   28  S2  UNL     1      51.386  40.310  61.937  1.00  0.00    -0.070 SA
ENDBRANCH  21  23
ENDBRANCH   6  21
BRANCH   5  29
HETATM   29  N2  UNL     1      48.322  44.779  62.486  1.00  0.00    -0.328 N 
HETATM   30  C13 UNL     1      48.047  45.870  63.344  1.00  0.00     0.261 C 
HETATM   31  O4  UNL     1      47.273  45.608  64.333  1.00  0.00    -0.267 OA
ATOM     32  H2  UNL     1      48.933  44.925  61.682  1.00  0.00     0.165 HD
BRANCH  30  33
HETATM   33  C14 UNL     1      48.558  47.215  63.195  1.00  0.00     0.125 A 
HETATM   34  C15 UNL     1      49.722  47.577  62.547  1.00  0.00     0.108 A 
HETATM   35  C16 UNL     1      49.789  48.946  62.664  1.00  0.00     0.182 A 
HETATM   36  O6  UNL     1      48.750  49.358  63.326  1.00  0.00    -0.297 OA
HETATM   37  C17 UNL     1      47.961  48.354  63.677  1.00  0.00     0.201 A 
BRANCH  34  38
HETATM   38  O5  UNL     1      50.652  46.780  61.907  1.00  0.00    -0.358 OA
ATOM     39  H5  UNL     1      51.073  46.904  61.064  1.00  0.00     0.217 HD
ENDBRANCH  34  38
BRANCH  37  40
HETATM   40  O7  UNL     1      46.789  48.544  64.393  1.00  0.00    -0.340 OA
ATOM     41  H7  UNL     1      46.634  48.873  65.271  1.00  0.00     0.220 HD
ENDBRANCH  37  40
ENDBRANCH  30  33
ENDBRANCH   5  29
TORSDOF 11
ENDMDL
MODEL 3
REMARK VINA RESULT: -6.380659587      1.983      2.342
REMARK  11 active torsions:
REMARK  status: ('A' for Active; 'I' for Inactive)
REMARK    1  A    between atoms: O1_2  and  C2_3 
REMARK    2  A    between atoms: C3_4  and  N1_5 
REMARK    3  A    between atoms: C7_12  and  C8_13 
REMARK    4  A    between atoms: C8_13  and  O2_14 
REMARK    5  A    between atoms: O2_14  and  C9_15 
REMARK    6  A    between atoms: C12_19  and  N2_20 
REMARK       I    between atoms: N2_20  and  C13_22 
REMARK    7  A    between atoms: C13_22  and  C14_24 
REMARK    8  A    between atoms: C15_25  and  O5_26 
REMARK    9  A    between atoms: C17_30  and  O7_31 
REMARK   10  A    between atoms: C18_33  and  N3_34 
REMARK   11  A    between atoms: N3_34  and  C19_36 
ROOT
HETATM    1  C9  UNL     1      49.408  41.908  61.871  1.00  0.00     0.177 C 
HETATM    2  C10 UNL     1      50.409  40.872  62.250  1.00  0.00     0.151 C 
HETATM    3  C11 UNL     1      51.227  40.531  61.010  1.00  0.00     0.042 C 
HETATM    4  O3  UNL     1      49.782  39.777  62.782  1.00  0.00    -0.357 OA
HETATM    5  C12 UNL     1      48.417  40.023  62.820  1.00  0.00     0.249 C 
HETATM    6  C18 UNL     1      48.144  41.059  61.749  1.00  0.00     0.163 C 
ENDROOT
BRANCH   1   7
HETATM    7  O2  UNL     1      49.274  42.895  62.813  1.00  0.00    -0.381 OA
BRANCH   7   8
HETATM    8  C8  UNL     1      49.205  44.179  62.356  1.00  0.00     0.175 C 
BRANCH   8   9
HETATM    9  C7  UNL     1      48.194  45.065  63.051  1.00  0.00     0.040 C 
HETATM   10  C2  UNL     1      48.981  46.237  63.591  1.00  0.00     0.157 C 
HETATM   11  C3  UNL     1      48.086  47.404  63.976  1.00  0.00     0.212 C 
HETATM   12  C4  UNL     1      47.510  47.881  62.635  1.00  0.00     0.035 C 
HETATM   13  C5  UNL     1      46.573  46.818  62.184  1.00  0.00     0.003 C 
HETATM   14  C6  UNL     1      47.075  45.431  62.161  1.00  0.00     0.009 C 
BRANCH  10  15
HETATM   15  O1  UNL     1      49.869  46.736  62.643  1.00  0.00    -0.388 OA
HETATM   16  C1  UNL     1      51.010  47.174  63.298  1.00  0.00     0.202 C 
ENDBRANCH  10  15
BRANCH  11  17
HETATM   17  N1  UNL     1      47.073  46.940  64.871  1.00  0.00    -0.073 N 
ATOM     18  H13 UNL     1      46.233  46.630  64.380  1.00  0.00     0.274 HD
ATOM     19  H12 UNL     1      47.319  46.052  65.307  1.00  0.00     0.274 HD
ATOM     20  H11 UNL     1      46.876  47.668  65.557  1.00  0.00     0.274 HD
ENDBRANCH  11  17
ENDBRANCH   8   9
ENDBRANCH   7   8
ENDBRANCH   1   7
BRANCH   6  21
HETATM   21  N3  UNL     1      46.952  41.815  61.984  1.00  0.00    -0.367 N 
ATOM     22  H3  UNL     1      46.848  42.376  62.829  1.00  0.00     0.161 HD
BRANCH  21  23
HETATM   23  C19 UNL     1      46.008  41.770  61.094  1.00  0.00     0.113 A 
HETATM   24  S1  UNL     1      45.504  40.529  60.046  1.00  0.00    -0.076 SA
HETATM   25  C20 UNL     1      44.203  41.080  59.110  1.00  0.00     0.066 A 
HETATM   26  C21 UNL     1      43.864  42.374  59.407  1.00  0.00    -0.012 A 
HETATM   27  C22 UNL     1      42.732  43.064  58.692  1.00  0.00     0.057 C 
HETATM   28  S2  UNL     1      44.888  42.963  60.627  1.00  0.00    -0.070 SA
ENDBRANCH  21  23
ENDBRANCH   6  21
BRANCH   5  29
HETATM   29  N2  UNL     1      47.740  38.762  62.535  1.00  0.00    -0.328 N 
HETATM   30  C13 UNL     1      46.469  38.450  63.075  1.00  0.00     0.261 C 
HETATM   31  O4  UNL     1      45.958  39.352  63.829  1.00  0.00    -0.267 OA
ATOM     32  H2  UNL     1      48.198  38.083  61.926  1.00  0.00     0.165 HD
BRANCH  30  33
HETATM   33  C14 UNL     1      45.728  37.229  62.846  1.00  0.00     0.125 A 
HETATM   34  C15 UNL     1      46.114  36.182  62.033  1.00  0.00     0.108 A 
HETATM   35  C16 UNL     1      45.101  35.257  62.132  1.00  0.00     0.182 A 
HETATM   36  O6  UNL     1      44.192  35.719  62.936  1.00  0.00    -0.297 OA
HETATM   37  C17 UNL     1      44.514  36.915  63.406  1.00  0.00     0.201 A 
BRANCH  34  38
HETATM   38  O5  UNL     1      47.256  36.043  61.266  1.00  0.00    -0.358 OA
ATOM     39  H5  UNL     1      48.081  35.627  61.485  1.00  0.00     0.217 HD
ENDBRANCH  34  38
BRANCH  37  40
HETATM   40  O7  UNL     1      43.700  37.613  64.284  1.00  0.00    -0.340 OA
ATOM     41  H7  UNL     1      43.890  38.053  65.104  1.00  0.00     0.220 HD
ENDBRANCH  37  40
ENDBRANCH  30  33
ENDBRANCH   5  29
TORSDOF 11
ENDMDL
MODEL 4
REMARK VINA RESULT: -6.348899945      1.665      2.077
REMARK  11 active torsions:
REMARK  status: ('A' for Active; 'I' for Inactive)
REMARK    1  A    between atoms: O1_2  and  C2_3 
REMARK    2  A    between atoms: C3_4  and  N1_5 
REMARK    3  A    between atoms: C7_12  and  C8_13 
REMARK    4  A    between atoms: C8_13  and  O2_14 
REMARK    5  A    between atoms: O2_14  and  C9_15 
REMARK    6  A    between atoms: C12_19  and  N2_20 
REMARK       I    between atoms: N2_20  and  C13_22 
REMARK    7  A    between atoms: C13_22  and  C14_24 
REMARK    8  A    between atoms: C15_25  and  O5_26 
REMARK    9  A    between atoms: C17_30  and  O7_31 
REMARK   10  A    between atoms: C18_33  and  N3_34 
REMARK   11  A    between atoms: N3_34  and  C19_36 
ROOT
HETATM    1  C9  UNL     1      49.062  43.308  62.012  1.00  0.00     0.177 C 
HETATM    2  C10 UNL     1      50.256  42.426  62.149  1.00  0.00     0.151 C 
HETATM    3  C11 UNL     1      50.978  42.400  60.807  1.00  0.00     0.042 C 
HETATM    4  O3  UNL     1      49.879  41.178  62.568  1.00  0.00    -0.357 OA
HETATM    5  C12 UNL     1      48.505  41.170  62.758  1.00  0.00     0.249 C 
HETATM    6  C18 UNL     1      47.949  42.270  61.877  1.00  0.00     0.163 C 
ENDROOT
BRANCH   1   7
HETATM    7  O2  UNL     1      48.872  44.126  63.096  1.00  0.00    -0.381 OA
BRANCH   7   8
HETATM    8  C8  UNL     1      48.369  45.370  62.849  1.00  0.00     0.175 C 
BRANCH   8   9
HETATM    9  C7  UNL     1      49.101  46.513  63.520  1.00  0.00     0.040 C 
HETATM   10  C2  UNL     1      50.378  46.699  62.734  1.00  0.00     0.157 C 
HETATM   11  C3  UNL     1      51.043  48.035  63.022  1.00  0.00     0.212 C 
HETATM   12  C4  UNL     1      50.058  49.065  62.450  1.00  0.00     0.035 C 
HETATM   13  C5  UNL     1      48.866  49.036  63.339  1.00  0.00     0.003 C 
HETATM   14  C6  UNL     1      48.260  47.722  63.626  1.00  0.00     0.009 C 
BRANCH  10  15
HETATM   15  O1  UNL     1      50.141  46.680  61.363  1.00  0.00    -0.388 OA
HETATM   16  C1  UNL     1      51.257  46.155  60.730  1.00  0.00     0.202 C 
ENDBRANCH  10  15
BRANCH  11  17
HETATM   17  N1  UNL     1      51.220  48.173  64.432  1.00  0.00    -0.073 N 
ATOM     18  H13 UNL     1      50.604  48.880  64.834  1.00  0.00     0.274 HD
ATOM     19  H12 UNL     1      50.869  47.367  64.948  1.00  0.00     0.274 HD
ATOM     20  H11 UNL     1      52.204  48.360  64.627  1.00  0.00     0.274 HD
ENDBRANCH  11  17
ENDBRANCH   8   9
ENDBRANCH   7   8
ENDBRANCH   1   7
BRANCH   6  21
HETATM   21  N3  UNL     1      46.683  42.765  62.321  1.00  0.00    -0.367 N 
ATOM     22  H3  UNL     1      46.501  42.920  63.312  1.00  0.00     0.161 HD
BRANCH  21  23
HETATM   23  C19 UNL     1      45.771  43.012  61.430  1.00  0.00     0.113 A 
HETATM   24  S1  UNL     1      45.061  42.027  60.239  1.00  0.00    -0.076 SA
HETATM   25  C20 UNL     1      43.918  42.930  59.374  1.00  0.00     0.066 A 
HETATM   26  C21 UNL     1      43.830  44.221  59.825  1.00  0.00    -0.012 A 
HETATM   27  C22 UNL     1      42.872  45.200  59.196  1.00  0.00     0.057 C 
HETATM   28  S2  UNL     1      44.918  44.448  61.109  1.00  0.00    -0.070 SA
ENDBRANCH  21  23
ENDBRANCH   6  21
BRANCH   5  29
HETATM   29  N2  UNL     1      48.018  39.856  62.352  1.00  0.00    -0.328 N 
HETATM   30  C13 UNL     1      46.864  39.270  62.924  1.00  0.00     0.261 C 
HETATM   31  O4  UNL     1      46.279  39.976  63.821  1.00  0.00    -0.267 OA
ATOM     32  H2  UNL     1      48.526  39.343  61.631  1.00  0.00     0.165 HD
BRANCH  30  33
HETATM   33  C14 UNL     1      46.312  37.978  62.582  1.00  0.00     0.125 A 
HETATM   34  C15 UNL     1      45.191  37.397  63.142  1.00  0.00     0.108 A 
HETATM   35  C16 UNL     1      45.058  36.184  62.508  1.00  0.00     0.182 A 
HETATM   36  O6  UNL     1      46.021  36.059  61.644  1.00  0.00    -0.297 OA
HETATM   37  C17 UNL     1      46.818  37.117  61.640  1.00  0.00     0.201 A 
BRANCH  34  38
HETATM   38  O5  UNL     1      44.352  37.883  64.128  1.00  0.00    -0.358 OA
ATOM     39  H5  UNL     1      44.106  37.490  64.957  1.00  0.00     0.217 HD
ENDBRANCH  34  38
BRANCH  37  40
HETATM   40  O7  UNL     1      47.918  37.216  60.802  1.00  0.00    -0.340 OA
ATOM     41  H7  UNL     1      48.037  36.979  59.890  1.00  0.00     0.220 HD
ENDBRANCH  37  40
ENDBRANCH  30  33
ENDBRANCH   5  29
TORSDOF 11
ENDMDL
MODEL 5
REMARK VINA RESULT: -6.280135900      1.744      2.358
REMARK  11 active torsions:
REMARK  status: ('A' for Active; 'I' for Inactive)
REMARK    1  A    between atoms: O1_2  and  C2_3 
REMARK    2  A    between atoms: C3_4  and  N1_5 
REMARK    3  A    between atoms: C7_12  and  C8_13 
REMARK    4  A    between atoms: C8_13  and  O2_14 
REMARK    5  A    between atoms: O2_14  and  C9_15 
REMARK    6  A    between atoms: C12_19  and  N2_20 
REMARK       I    between atoms: N2_20  and  C13_22 
REMARK    7  A    between atoms: C13_22  and  C14_24 
REMARK    8  A    between atoms: C15_25  and  O5_26 
REMARK    9  A    between atoms: C17_30  and  O7_31 
REMARK   10  A    between atoms: C18_33  and  N3_34 
REMARK   11  A    between atoms: N3_34  and  C19_36 
ROOT
HETATM    1  C9  UNL     1      48.923  43.430  61.673  1.00  0.00     0.177 C 
HETATM    2  C10 UNL     1      50.138  42.567  61.646  1.00  0.00     0.151 C 
HETATM    3  C11 UNL     1      50.689  42.574  60.225  1.00  0.00     0.042 C 
HETATM    4  O3  UNL     1      49.836  41.307  62.087  1.00  0.00    -0.357 OA
HETATM    5  C12 UNL     1      48.496  41.272  62.445  1.00  0.00     0.249 C 
HETATM    6  C18 UNL     1      47.818  42.375  61.658  1.00  0.00     0.163 C 
ENDROOT
BRANCH   1   7
HETATM    7  O2  UNL     1      48.856  44.227  62.787  1.00  0.00    -0.381 OA
BRANCH   7   8
HETATM    8  C8  UNL     1      48.500  45.530  62.592  1.00  0.00     0.175 C 
BRANCH   8   9
HETATM    9  C7  UNL     1      49.643  46.487  62.334  1.00  0.00     0.040 C 
HETATM   10  C2  UNL     1      49.135  47.851  62.744  1.00  0.00     0.157 C 
HETATM   11  C3  UNL     1      50.262  48.857  62.918  1.00  0.00     0.212 C 
HETATM   12  C4  UNL     1      51.040  48.329  64.131  1.00  0.00     0.035 C 
HETATM   13  C5  UNL     1      51.713  47.082  63.681  1.00  0.00     0.003 C 
HETATM   14  C6  UNL     1      50.884  46.062  63.012  1.00  0.00     0.009 C 
BRANCH  10  15
HETATM   15  O1  UNL     1      48.477  47.803  63.969  1.00  0.00    -0.388 OA
HETATM   16  C1  UNL     1      47.401  48.677  63.924  1.00  0.00     0.202 C 
ENDBRANCH  10  15
BRANCH  11  17
HETATM   17  N1  UNL     1      51.054  48.881  61.729  1.00  0.00    -0.073 N 
ATOM     18  H13 UNL     1      51.334  47.946  61.430  1.00  0.00     0.274 HD
ATOM     19  H12 UNL     1      50.509  49.136  60.906  1.00  0.00     0.274 HD
ATOM     20  H11 UNL     1      51.852  49.498  61.873  1.00  0.00     0.274 HD
ENDBRANCH  11  17
ENDBRANCH   8   9
ENDBRANCH   7   8
ENDBRANCH   1   7
BRANCH   6  21
HETATM   21  N3  UNL     1      46.609  42.841  62.264  1.00  0.00    -0.367 N 
ATOM     22  H3  UNL     1      46.495  42.830  63.278  1.00  0.00     0.161 HD
BRANCH  21  23
HETATM   23  C19 UNL     1      45.661  43.278  61.492  1.00  0.00     0.113 A 
HETATM   24  S1  UNL     1      44.792  42.527  60.237  1.00  0.00    -0.076 SA
HETATM   25  C20 UNL     1      43.670  43.625  59.599  1.00  0.00     0.066 A 
HETATM   26  C21 UNL     1      43.720  44.841  60.229  1.00  0.00    -0.012 A 
HETATM   27  C22 UNL     1      42.805  45.966  59.819  1.00  0.00     0.057 C 
HETATM   28  S2  UNL     1      44.909  44.803  61.440  1.00  0.00    -0.070 SA
ENDBRANCH  21  23
ENDBRANCH   6  21
BRANCH   5  29
HETATM   29  N2  UNL     1      47.982  39.955  62.079  1.00  0.00    -0.328 N 
HETATM   30  C13 UNL     1      46.921  39.339  62.783  1.00  0.00     0.261 C 
HETATM   31  O4  UNL     1      46.444  40.018  63.761  1.00  0.00    -0.267 OA
ATOM     32  H2  UNL     1      48.402  39.464  61.290  1.00  0.00     0.165 HD
BRANCH  30  33
HETATM   33  C14 UNL     1      46.350  38.042  62.490  1.00  0.00     0.125 A 
HETATM   34  C15 UNL     1      45.243  37.484  63.096  1.00  0.00     0.108 A 
HETATM   35  C16 UNL     1      45.084  36.256  62.496  1.00  0.00     0.182 A 
HETATM   36  O6  UNL     1      46.020  36.102  61.609  1.00  0.00    -0.297 OA
HETATM   37  C17 UNL     1      46.824  37.154  61.556  1.00  0.00     0.201 A 
BRANCH  34  38
HETATM   38  O5  UNL     1      44.436  38.000  64.092  1.00  0.00    -0.358 OA
ATOM     39  H5  UNL     1      44.012  37.554  64.816  1.00  0.00     0.217 HD
ENDBRANCH  34  38
BRANCH  37  40
HETATM   40  O7  UNL     1      47.900  37.224  60.684  1.00  0.00    -0.340 OA
ATOM     41  H7  UNL     1      47.950  37.449  59.763  1.00  0.00     0.220 HD
ENDBRANCH  37  40
ENDBRANCH  30  33
ENDBRANCH   5  29
TORSDOF 11
ENDMDL
