MODEL 1
REMARK VINA RESULT: -3.288648084      0.000      0.000
REMARK  0 active torsions:
REMARK  status: ('A' for Active; 'I' for Inactive)
ROOT
HETATM    1  C1  UNL     1      -8.826  26.883  38.206  1.00  0.00     0.297 C 
HETATM    2  N1  UNL     1      -8.458  25.547  38.436  1.00  0.00     0.007 N 
HETATM    3  C2  UNL     1      -9.457  24.559  38.120  1.00  0.00     0.260 C 
HETATM    4  C3  UNL     1      -9.110  23.310  38.943  1.00  0.00     0.037 C 
HETATM    5  C4  UNL     1      -7.831  23.772  39.607  1.00  0.00     0.031 C 
HETATM    6  C5  UNL     1      -6.808  23.955  38.517  1.00  0.00     0.149 C 
HETATM    7  N2  UNL     1      -7.266  25.153  37.833  1.00  0.00    -0.047 NA
HETATM    8  C6  UNL     1      -8.202  25.243  39.857  1.00  0.00     0.265 C 
ENDROOT
TORSDOF 0
ENDMDL
MODEL 2
REMARK VINA RESULT: -3.248526937      2.392      4.342
REMARK  0 active torsions:
REMARK  status: ('A' for Active; 'I' for Inactive)
ROOT
HETATM    1  C1  UNL     1      -8.056  26.119  37.916  1.00  0.00     0.297 C 
HETATM    2  N1  UNL     1      -8.319  27.476  38.168  1.00  0.00     0.007 N 
HETATM    3  C2  UNL     1      -9.694  27.806  38.443  1.00  0.00     0.260 C 
HETATM    4  C3  UNL     1      -9.856  29.299  38.119  1.00  0.00     0.037 C 
HETATM    5  C4  UNL     1      -8.432  29.649  37.746  1.00  0.00     0.031 C 
HETATM    6  C5  UNL     1      -7.597  29.493  38.989  1.00  0.00     0.149 C 
HETATM    7  N2  UNL     1      -7.536  28.052  39.166  1.00  0.00    -0.047 NA
HETATM    8  C6  UNL     1      -8.046  28.354  37.014  1.00  0.00     0.265 C 
ENDROOT
TORSDOF 0
ENDMDL
MODEL 3
REMARK VINA RESULT: -3.216799397      3.702      5.203
REMARK  0 active torsions:
REMARK  status: ('A' for Active; 'I' for Inactive)
ROOT
HETATM    1  C1  UNL     1      -6.063  29.566  35.458  1.00  0.00     0.297 C 
HETATM    2  N1  UNL     1      -7.261  29.261  36.127  1.00  0.00     0.007 N 
HETATM    3  C2  UNL     1      -8.466  29.740  35.500  1.00  0.00     0.260 C 
HETATM    4  C3  UNL     1      -9.528  29.822  36.607  1.00  0.00     0.037 C 
HETATM    5  C4  UNL     1      -8.741  29.273  37.776  1.00  0.00     0.031 C 
HETATM    6  C5  UNL     1      -8.445  27.828  37.471  1.00  0.00     0.149 C 
HETATM    7  N2  UNL     1      -7.443  27.912  36.421  1.00  0.00    -0.047 NA
HETATM    8  C6  UNL     1      -7.368  29.887  37.458  1.00  0.00     0.265 C 
ENDROOT
TORSDOF 0
ENDMDL
MODEL 4
REMARK VINA RESULT: -3.214040798      2.785      4.848
REMARK  0 active torsions:
REMARK  status: ('A' for Active; 'I' for Inactive)
ROOT
HETATM    1  C1  UNL     1      -8.348  26.610  38.125  1.00  0.00     0.297 C 
HETATM    2  N1  UNL     1      -8.186  28.001  38.010  1.00  0.00     0.007 N 
HETATM    3  C2  UNL     1      -7.731  28.678  39.197  1.00  0.00     0.260 C 
HETATM    4  C3  UNL     1      -8.164  30.145  39.054  1.00  0.00     0.037 C 
HETATM    5  C4  UNL     1      -8.787  30.108  37.675  1.00  0.00     0.031 C 
HETATM    6  C5  UNL     1      -7.681  29.814  36.697  1.00  0.00     0.149 C 
HETATM    7  N2  UNL     1      -7.381  28.414  36.951  1.00  0.00    -0.047 NA
HETATM    8  C6  UNL     1      -9.445  28.721  37.742  1.00  0.00     0.265 C 
ENDROOT
TORSDOF 0
ENDMDL
MODEL 5
REMARK VINA RESULT: -3.199323255      1.067      1.158
REMARK  0 active torsions:
REMARK  status: ('A' for Active; 'I' for Inactive)
ROOT
HETATM    1  C1  UNL     1      -8.816  26.638  40.333  1.00  0.00     0.297 C 
HETATM    2  N1  UNL     1      -8.504  25.541  39.512  1.00  0.00     0.007 N 
HETATM    3  C2  UNL     1      -9.431  25.277  38.441  1.00  0.00     0.260 C 
HETATM    4  C3  UNL     1      -9.251  23.799  38.065  1.00  0.00     0.037 C 
HETATM    5  C4  UNL     1      -8.117  23.422  38.992  1.00  0.00     0.031 C 
HETATM    6  C5  UNL     1      -6.906  24.202  38.553  1.00  0.00     0.149 C 
HETATM    7  N2  UNL     1      -7.222  25.559  38.968  1.00  0.00    -0.047 NA
HETATM    8  C6  UNL     1      -8.521  24.249  40.223  1.00  0.00     0.265 C 
ENDROOT
TORSDOF 0
ENDMDL
