MODEL 1
REMARK VINA RESULT: -11.587753963      0.000      0.000
REMARK  6 active torsions:
REMARK  status: ('A' for Active; 'I' for Inactive)
REMARK    1  A    between atoms: C2_5  and  N2_6 
REMARK    2  A    between atoms: N2_6  and  C3_8 
REMARK    3  A    between atoms: C15_20  and  C16_21 
REMARK    4  A    between atoms: C19_26  and  N4_27 
REMARK    5  A    between atoms: N4_27  and  C20_29 
REMARK    6  A    between atoms: C20_29  and  C21_30 
ROOT
HETATM    1  O1  UNL     1      10.038  23.184  31.961  1.00  0.00    -0.267 OA
HETATM    2  C1  UNL     1       9.707  24.084  32.773  1.00  0.00     0.259 A 
HETATM    3  N1  UNL     1       8.499  24.700  32.655  1.00  0.00    -0.308 N 
ATOM      4  H1  UNL     1       7.875  24.416  31.900  1.00  0.00     0.170 HD
HETATM    5  C2  UNL     1       8.093  25.679  33.505  1.00  0.00     0.119 A 
HETATM    6  C9  UNL     1       8.955  26.048  34.519  1.00  0.00     0.019 A 
HETATM    7  C10 UNL     1       8.620  27.035  35.416  1.00  0.00     0.016 A 
HETATM    8  C11 UNL     1       9.485  27.402  36.423  1.00  0.00     0.001 A 
HETATM    9  C12 UNL     1      10.694  26.765  36.519  1.00  0.00     0.001 A 
HETATM   10  C13 UNL     1      11.066  25.775  35.642  1.00  0.00     0.013 A 
HETATM   11  C14 UNL     1      10.205  25.404  34.634  1.00  0.00    -0.006 A 
HETATM   12  C15 UNL     1      10.594  24.416  33.762  1.00  0.00     0.053 A 
ENDROOT
BRANCH  12  13
HETATM   13  C16 UNL     1      11.884  23.726  33.863  1.00  0.00    -0.015 A 
HETATM   14  C17 UNL     1      13.004  24.304  33.278  1.00  0.00     0.029 A 
HETATM   15  C18 UNL     1      14.235  23.696  33.348  1.00  0.00     0.090 A 
HETATM   16  N3  UNL     1      14.366  22.507  33.998  1.00  0.00    -0.353 N 
HETATM   17  C19 UNL     1      13.315  21.908  34.579  1.00  0.00     0.101 A 
ATOM     18  H3  UNL     1      15.283  22.062  34.045  1.00  0.00     0.166 HD
HETATM   19  C27 UNL     1      12.063  22.527  34.509  1.00  0.00     0.060 A 
BRANCH  17  20
HETATM   20  N4  UNL     1      13.418  20.797  35.185  1.00  0.00    -0.372 N 
ATOM     21  H4  UNL     1      13.975  20.791  36.040  1.00  0.00     0.161 HD
BRANCH  20  22
HETATM   22  C20 UNL     1      12.827  19.543  34.787  1.00  0.00     0.159 C 
BRANCH  22  23
HETATM   23  C21 UNL     1      13.863  18.553  34.429  1.00  0.00    -0.041 A 
HETATM   24  C22 UNL     1      13.929  17.405  35.228  1.00  0.00     0.009 A 
HETATM   25  C23 UNL     1      14.880  16.484  34.921  1.00  0.00     0.001 A 
HETATM   26  C24 UNL     1      15.747  16.647  33.881  1.00  0.00     0.000 A 
HETATM   27  C25 UNL     1      15.658  17.793  33.107  1.00  0.00     0.001 A 
HETATM   28  C26 UNL     1      14.705  18.753  33.387  1.00  0.00     0.009 A 
ENDBRANCH  22  23
ENDBRANCH  20  22
ENDBRANCH  17  20
ENDBRANCH  12  13
BRANCH   5  29
HETATM   29  N2  UNL     1       6.822  26.268  33.397  1.00  0.00    -0.342 N 
ATOM     30  H2  UNL     1       6.810  27.231  33.060  1.00  0.00     0.167 HD
BRANCH  29  31
HETATM   31  C3  UNL     1       5.569  25.713  33.689  1.00  0.00     0.033 A 
HETATM   32  C4  UNL     1       4.434  26.349  33.242  1.00  0.00     0.029 A 
HETATM   33  C5  UNL     1       3.164  25.858  33.441  1.00  0.00     0.002 A 
HETATM   34  C6  UNL     1       2.992  24.679  34.113  1.00  0.00     0.000 A 
HETATM   35  C7  UNL     1       4.107  24.014  34.575  1.00  0.00     0.002 A 
HETATM   36  C8  UNL     1       5.393  24.535  34.359  1.00  0.00     0.029 A 
ENDBRANCH  29  31
ENDBRANCH   5  29
TORSDOF 6
ENDMDL
MODEL 2
REMARK VINA RESULT: -11.528172544      0.085      1.187
REMARK  6 active torsions:
REMARK  status: ('A' for Active; 'I' for Inactive)
REMARK    1  A    between atoms: C2_5  and  N2_6 
REMARK    2  A    between atoms: N2_6  and  C3_8 
REMARK    3  A    between atoms: C15_20  and  C16_21 
REMARK    4  A    between atoms: C19_26  and  N4_27 
REMARK    5  A    between atoms: N4_27  and  C20_29 
REMARK    6  A    between atoms: C20_29  and  C21_30 
ROOT
HETATM    1  O1  UNL     1      10.056  23.172  31.967  1.00  0.00    -0.267 OA
HETATM    2  C1  UNL     1       9.729  24.086  32.765  1.00  0.00     0.259 A 
HETATM    3  N1  UNL     1       8.527  24.709  32.634  1.00  0.00    -0.308 N 
ATOM      4  H1  UNL     1       7.903  24.419  31.881  1.00  0.00     0.170 HD
HETATM    5  C2  UNL     1       8.125  25.703  33.468  1.00  0.00     0.119 A 
HETATM    6  C9  UNL     1       8.987  26.080  34.480  1.00  0.00     0.019 A 
HETATM    7  C10 UNL     1       8.656  27.083  35.362  1.00  0.00     0.016 A 
HETATM    8  C11 UNL     1       9.520  27.459  36.366  1.00  0.00     0.001 A 
HETATM    9  C12 UNL     1      10.724  26.814  36.475  1.00  0.00     0.001 A 
HETATM   10  C13 UNL     1      11.092  25.808  35.614  1.00  0.00     0.013 A 
HETATM   11  C14 UNL     1      10.231  25.430  34.608  1.00  0.00    -0.006 A 
HETATM   12  C15 UNL     1      10.616  24.426  33.752  1.00  0.00     0.053 A 
ENDROOT
BRANCH  12  13
HETATM   13  C16 UNL     1      11.900  23.728  33.868  1.00  0.00    -0.015 A 
HETATM   14  C17 UNL     1      13.033  24.308  33.310  1.00  0.00     0.029 A 
HETATM   15  C18 UNL     1      14.260  23.692  33.395  1.00  0.00     0.090 A 
HETATM   16  N3  UNL     1      14.373  22.495  34.032  1.00  0.00    -0.353 N 
HETATM   17  C19 UNL     1      13.309  21.894  34.587  1.00  0.00     0.101 A 
ATOM     18  H3  UNL     1      15.287  22.044  34.089  1.00  0.00     0.166 HD
HETATM   19  C27 UNL     1      12.061  22.520  34.501  1.00  0.00     0.060 A 
BRANCH  17  20
HETATM   20  N4  UNL     1      13.396  20.775  35.180  1.00  0.00    -0.372 N 
ATOM     21  H4  UNL     1      13.939  20.755  36.044  1.00  0.00     0.161 HD
BRANCH  20  22
HETATM   22  C20 UNL     1      12.804  19.529  34.757  1.00  0.00     0.159 C 
BRANCH  22  23
HETATM   23  C21 UNL     1      13.838  18.513  34.475  1.00  0.00    -0.041 A 
HETATM   24  C22 UNL     1      14.673  18.763  33.379  1.00  0.00     0.009 A 
HETATM   25  C23 UNL     1      15.628  17.838  33.097  1.00  0.00     0.001 A 
HETATM   26  C24 UNL     1      15.788  16.704  33.837  1.00  0.00     0.000 A 
HETATM   27  C25 UNL     1      14.947  16.483  34.917  1.00  0.00     0.001 A 
HETATM   28  C26 UNL     1      13.964  17.399  35.236  1.00  0.00     0.009 A 
ENDBRANCH  22  23
ENDBRANCH  20  22
ENDBRANCH  17  20
ENDBRANCH  12  13
BRANCH   5  29
HETATM   29  N2  UNL     1       6.859  26.300  33.347  1.00  0.00    -0.342 N 
ATOM     30  H2  UNL     1       6.858  27.276  33.049  1.00  0.00     0.167 HD
BRANCH  29  31
HETATM   31  C3  UNL     1       5.597  25.737  33.580  1.00  0.00     0.033 A 
HETATM   32  C4  UNL     1       5.506  24.575  34.311  1.00  0.00     0.029 A 
HETATM   33  C5  UNL     1       4.311  23.973  34.629  1.00  0.00     0.002 A 
HETATM   34  C6  UNL     1       3.137  24.537  34.211  1.00  0.00     0.000 A 
HETATM   35  C7  UNL     1       3.189  25.702  33.476  1.00  0.00     0.002 A 
HETATM   36  C8  UNL     1       4.422  26.298  33.165  1.00  0.00     0.029 A 
ENDBRANCH  29  31
ENDBRANCH   5  29
TORSDOF 6
ENDMDL
MODEL 3
REMARK VINA RESULT: -11.470514512      1.694      9.057
REMARK  6 active torsions:
REMARK  status: ('A' for Active; 'I' for Inactive)
REMARK    1  A    between atoms: C2_5  and  N2_6 
REMARK    2  A    between atoms: N2_6  and  C3_8 
REMARK    3  A    between atoms: C15_20  and  C16_21 
REMARK    4  A    between atoms: C19_26  and  N4_27 
REMARK    5  A    between atoms: N4_27  and  C20_29 
REMARK    6  A    between atoms: C20_29  and  C21_30 
ROOT
HETATM    1  O1  UNL     1      11.825  24.155  36.865  1.00  0.00    -0.267 OA
HETATM    2  C1  UNL     1      12.287  24.032  35.703  1.00  0.00     0.259 A 
HETATM    3  N1  UNL     1      13.255  23.111  35.446  1.00  0.00    -0.308 N 
ATOM      4  H1  UNL     1      13.593  22.528  36.212  1.00  0.00     0.170 HD
HETATM    5  C2  UNL     1      13.789  22.937  34.209  1.00  0.00     0.119 A 
HETATM    6  C9  UNL     1      13.317  23.739  33.188  1.00  0.00     0.019 A 
HETATM    7  C10 UNL     1      13.811  23.630  31.909  1.00  0.00     0.016 A 
HETATM    8  C11 UNL     1      13.341  24.434  30.895  1.00  0.00     0.001 A 
HETATM    9  C12 UNL     1      12.365  25.353  31.181  1.00  0.00     0.001 A 
HETATM   10  C13 UNL     1      11.846  25.494  32.446  1.00  0.00     0.013 A 
HETATM   11  C14 UNL     1      12.314  24.692  33.462  1.00  0.00    -0.006 A 
HETATM   12  C15 UNL     1      11.789  24.849  34.722  1.00  0.00     0.053 A 
ENDROOT
BRANCH  12  13
HETATM   13  C16 UNL     1      10.741  25.825  35.034  1.00  0.00    -0.015 A 
HETATM   14  C17 UNL     1      11.108  27.075  35.518  1.00  0.00     0.029 A 
HETATM   15  C18 UNL     1      10.160  28.024  35.822  1.00  0.00     0.090 A 
HETATM   16  N3  UNL     1       8.840  27.742  35.649  1.00  0.00    -0.353 N 
HETATM   17  C19 UNL     1       8.435  26.550  35.185  1.00  0.00     0.101 A 
ATOM     18  H3  UNL     1       8.144  28.452  35.878  1.00  0.00     0.166 HD
HETATM   19  C27 UNL     1       9.397  25.584  34.875  1.00  0.00     0.060 A 
BRANCH  17  20
HETATM   20  N4  UNL     1       7.208  26.269  35.023  1.00  0.00    -0.372 N 
ATOM     21  H4  UNL     1       6.609  27.014  34.668  1.00  0.00     0.161 HD
BRANCH  20  22
HETATM   22  C20 UNL     1       6.574  25.000  35.289  1.00  0.00     0.159 C 
BRANCH  22  23
HETATM   23  C21 UNL     1       5.238  24.927  34.663  1.00  0.00    -0.041 A 
HETATM   24  C22 UNL     1       4.485  26.107  34.663  1.00  0.00     0.009 A 
HETATM   25  C23 UNL     1       3.250  26.061  34.099  1.00  0.00     0.001 A 
HETATM   26  C24 UNL     1       2.741  24.923  33.547  1.00  0.00     0.000 A 
HETATM   27  C25 UNL     1       3.509  23.769  33.560  1.00  0.00     0.001 A 
HETATM   28  C26 UNL     1       4.769  23.775  34.125  1.00  0.00     0.009 A 
ENDBRANCH  22  23
ENDBRANCH  20  22
ENDBRANCH  17  20
ENDBRANCH  12  13
BRANCH   5  29
HETATM   29  N2  UNL     1      14.752  21.947  33.954  1.00  0.00    -0.342 N 
ATOM     30  H2  UNL     1      15.704  22.285  33.806  1.00  0.00     0.167 HD
BRANCH  29  31
HETATM   31  C3  UNL     1      14.584  20.558  33.875  1.00  0.00     0.033 A 
HETATM   32  C4  UNL     1      15.285  19.851  32.925  1.00  0.00     0.029 A 
HETATM   33  C5  UNL     1      15.220  18.483  32.801  1.00  0.00     0.002 A 
HETATM   34  C6  UNL     1      14.426  17.763  33.650  1.00  0.00     0.000 A 
HETATM   35  C7  UNL     1      13.708  18.438  34.614  1.00  0.00     0.002 A 
HETATM   36  C8  UNL     1      13.792  19.835  34.723  1.00  0.00     0.029 A 
ENDBRANCH  29  31
ENDBRANCH   5  29
TORSDOF 6
ENDMDL
MODEL 4
REMARK VINA RESULT: -11.145584422      1.273      1.816
REMARK  6 active torsions:
REMARK  status: ('A' for Active; 'I' for Inactive)
REMARK    1  A    between atoms: C2_5  and  N2_6 
REMARK    2  A    between atoms: N2_6  and  C3_8 
REMARK    3  A    between atoms: C15_20  and  C16_21 
REMARK    4  A    between atoms: C19_26  and  N4_27 
REMARK    5  A    between atoms: N4_27  and  C20_29 
REMARK    6  A    between atoms: C20_29  and  C21_30 
ROOT
HETATM    1  O1  UNL     1       9.678  23.435  32.130  1.00  0.00    -0.267 OA
HETATM    2  C1  UNL     1       9.529  24.455  32.849  1.00  0.00     0.259 A 
HETATM    3  N1  UNL     1       8.290  24.809  33.285  1.00  0.00    -0.308 N 
ATOM      4  H1  UNL     1       7.492  24.231  33.017  1.00  0.00     0.170 HD
HETATM    5  C2  UNL     1       8.073  25.901  34.062  1.00  0.00     0.119 A 
HETATM    6  C9  UNL     1       9.168  26.668  34.411  1.00  0.00     0.019 A 
HETATM    7  C10 UNL     1       9.032  27.793  35.190  1.00  0.00     0.016 A 
HETATM    8  C11 UNL     1      10.125  28.557  35.532  1.00  0.00     0.001 A 
HETATM    9  C12 UNL     1      11.362  28.178  35.080  1.00  0.00     0.001 A 
HETATM   10  C13 UNL     1      11.540  27.061  34.299  1.00  0.00     0.013 A 
HETATM   11  C14 UNL     1      10.449  26.294  33.955  1.00  0.00    -0.006 A 
HETATM   12  C15 UNL     1      10.643  25.185  33.169  1.00  0.00     0.053 A 
ENDROOT
BRANCH  12  13
HETATM   13  C16 UNL     1      11.965  24.769  32.687  1.00  0.00    -0.015 A 
HETATM   14  C17 UNL     1      12.504  25.402  31.573  1.00  0.00     0.029 A 
HETATM   15  C18 UNL     1      13.740  25.048  31.087  1.00  0.00     0.090 A 
HETATM   16  N3  UNL     1      14.452  24.063  31.699  1.00  0.00    -0.353 N 
HETATM   17  C19 UNL     1      13.975  23.423  32.778  1.00  0.00     0.101 A 
ATOM     18  H3  UNL     1      15.368  23.807  31.331  1.00  0.00     0.166 HD
HETATM   19  C27 UNL     1      12.718  23.782  33.274  1.00  0.00     0.060 A 
BRANCH  17  20
HETATM   20  N4  UNL     1      14.624  22.498  33.358  1.00  0.00    -0.372 N 
ATOM     21  H4  UNL     1      14.771  22.602  34.362  1.00  0.00     0.161 HD
BRANCH  20  22
HETATM   22  C20 UNL     1      15.173  21.315  32.741  1.00  0.00     0.159 C 
BRANCH  22  23
HETATM   23  C21 UNL     1      14.700  20.090  33.418  1.00  0.00    -0.041 A 
HETATM   24  C22 UNL     1      15.267  18.884  32.990  1.00  0.00     0.009 A 
HETATM   25  C23 UNL     1      14.841  17.744  33.593  1.00  0.00     0.001 A 
HETATM   26  C24 UNL     1      13.900  17.747  34.581  1.00  0.00     0.000 A 
HETATM   27  C25 UNL     1      13.357  18.956  34.985  1.00  0.00     0.001 A 
HETATM   28  C26 UNL     1      13.763  20.137  34.395  1.00  0.00     0.009 A 
ENDBRANCH  22  23
ENDBRANCH  20  22
ENDBRANCH  17  20
ENDBRANCH  12  13
BRANCH   5  29
HETATM   29  N2  UNL     1       6.793  26.221  34.543  1.00  0.00    -0.342 N 
ATOM     30  H2  UNL     1       6.737  27.058  35.125  1.00  0.00     0.167 HD
BRANCH  29  31
HETATM   31  C3  UNL     1       5.582  25.548  34.333  1.00  0.00     0.033 A 
HETATM   32  C4  UNL     1       4.614  26.138  33.552  1.00  0.00     0.029 A 
HETATM   33  C5  UNL     1       3.414  25.537  33.253  1.00  0.00     0.002 A 
HETATM   34  C6  UNL     1       3.142  24.289  33.743  1.00  0.00     0.000 A 
HETATM   35  C7  UNL     1       4.088  23.667  34.530  1.00  0.00     0.002 A 
HETATM   36  C8  UNL     1       5.306  24.302  34.821  1.00  0.00     0.029 A 
ENDBRANCH  29  31
ENDBRANCH   5  29
TORSDOF 6
ENDMDL
MODEL 5
REMARK VINA RESULT: -11.038967167      1.195      1.602
REMARK  6 active torsions:
REMARK  status: ('A' for Active; 'I' for Inactive)
REMARK    1  A    between atoms: C2_5  and  N2_6 
REMARK    2  A    between atoms: N2_6  and  C3_8 
REMARK    3  A    between atoms: C15_20  and  C16_21 
REMARK    4  A    between atoms: C19_26  and  N4_27 
REMARK    5  A    between atoms: N4_27  and  C20_29 
REMARK    6  A    between atoms: C20_29  and  C21_30 
ROOT
HETATM    1  O1  UNL     1      10.499  22.793  31.737  1.00  0.00    -0.267 OA
HETATM    2  C1  UNL     1      10.309  23.539  32.730  1.00  0.00     0.259 A 
HETATM    3  N1  UNL     1       9.137  24.219  32.859  1.00  0.00    -0.308 N 
ATOM      4  H1  UNL     1       8.425  24.109  32.137  1.00  0.00     0.170 HD
HETATM    5  C2  UNL     1       8.880  25.038  33.912  1.00  0.00     0.119 A 
HETATM    6  C9  UNL     1       9.860  25.172  34.875  1.00  0.00     0.019 A 
HETATM    7  C10 UNL     1       9.679  25.987  35.969  1.00  0.00     0.016 A 
HETATM    8  C11 UNL     1      10.661  26.120  36.925  1.00  0.00     0.001 A 
HETATM    9  C12 UNL     1      11.831  25.424  36.771  1.00  0.00     0.001 A 
HETATM   10  C13 UNL     1      12.050  24.600  35.694  1.00  0.00     0.013 A 
HETATM   11  C14 UNL     1      11.071  24.463  34.735  1.00  0.00    -0.006 A 
HETATM   12  C15 UNL     1      11.309  23.640  33.661  1.00  0.00     0.053 A 
ENDROOT
BRANCH  12  13
HETATM   13  C16 UNL     1      12.556  22.887  33.493  1.00  0.00    -0.015 A 
HETATM   14  C17 UNL     1      13.571  23.431  32.717  1.00  0.00     0.029 A 
HETATM   15  C18 UNL     1      14.759  22.763  32.533  1.00  0.00     0.090 A 
HETATM   16  N3  UNL     1      14.949  21.548  33.116  1.00  0.00    -0.353 N 
HETATM   17  C19 UNL     1      13.999  20.980  33.875  1.00  0.00     0.101 A 
ATOM     18  H3  UNL     1      15.833  21.059  32.974  1.00  0.00     0.166 HD
HETATM   19  C27 UNL     1      12.791  21.659  34.063  1.00  0.00     0.060 A 
BRANCH  17  20
HETATM   20  N4  UNL     1      14.158  19.846  34.422  1.00  0.00    -0.372 N 
ATOM     21  H4  UNL     1      13.412  19.526  35.040  1.00  0.00     0.161 HD
BRANCH  20  22
HETATM   22  C20 UNL     1      15.287  18.963  34.259  1.00  0.00     0.159 C 
BRANCH  22  23
HETATM   23  C21 UNL     1      14.863  17.548  34.247  1.00  0.00    -0.041 A 
HETATM   24  C22 UNL     1      15.876  16.596  34.086  1.00  0.00     0.009 A 
HETATM   25  C23 UNL     1      15.508  15.288  34.065  1.00  0.00     0.001 A 
HETATM   26  C24 UNL     1      14.209  14.893  34.195  1.00  0.00     0.000 A 
HETATM   27  C25 UNL     1      13.227  15.857  34.354  1.00  0.00     0.001 A 
HETATM   28  C26 UNL     1      13.561  17.197  34.380  1.00  0.00     0.009 A 
ENDBRANCH  22  23
ENDBRANCH  20  22
ENDBRANCH  17  20
ENDBRANCH  12  13
BRANCH   5  29
HETATM   29  N2  UNL     1       7.645  25.693  34.052  1.00  0.00    -0.342 N 
ATOM     30  H2  UNL     1       7.695  26.689  34.265  1.00  0.00     0.167 HD
BRANCH  29  31
HETATM   31  C3  UNL     1       6.353  25.163  33.938  1.00  0.00     0.033 A 
HETATM   32  C4  UNL     1       5.787  25.037  32.690  1.00  0.00     0.029 A 
HETATM   33  C5  UNL     1       4.544  24.488  32.476  1.00  0.00     0.002 A 
HETATM   34  C6  UNL     1       3.811  24.037  33.538  1.00  0.00     0.000 A 
HETATM   35  C7  UNL     1       4.345  24.148  34.804  1.00  0.00     0.002 A 
HETATM   36  C8  UNL     1       5.617  24.711  34.998  1.00  0.00     0.029 A 
ENDBRANCH  29  31
ENDBRANCH   5  29
TORSDOF 6
ENDMDL
