MODEL 1
REMARK VINA RESULT: -5.403790696      0.000      0.000
REMARK  1 active torsions:
REMARK  status: ('A' for Active; 'I' for Inactive)
REMARK    1  A    between atoms: O1_1  and  C1_3 
ROOT
HETATM    1  C1  UNL     1      18.928  17.606  20.181  1.00  0.00     0.214 C 
HETATM    2  S1  UNL     1      17.946  17.255  18.668  1.00  0.00    -0.105 SA
HETATM    3  C2  UNL     1      16.458  16.620  19.547  1.00  0.00     0.349 C 
HETATM    4  N1  UNL     1      16.665  17.265  20.831  1.00  0.00     0.105 N 
HETATM    5  C3  UNL     1      15.731  16.783  21.767  1.00  0.00     0.274 C 
HETATM    6  C4  UNL     1      16.019  16.987  23.202  1.00  0.00     0.030 C 
HETATM    7  C5  UNL     1      17.444  17.144  23.579  1.00  0.00     0.004 C 
HETATM    8  C6  UNL     1      18.214  17.851  22.516  1.00  0.00     0.039 C 
HETATM    9  C7  UNL     1      18.015  17.039  21.237  1.00  0.00     0.262 C 
ENDROOT
BRANCH   1  10
HETATM   10  O1  UNL     1      20.048  16.783  20.114  1.00  0.00    -0.383 OA
ATOM     11  H1  UNL     1      20.428  16.783  20.985  1.00  0.00     0.211 HD
ENDBRANCH   1  10
TORSDOF 1
ENDMDL
MODEL 2
REMARK VINA RESULT: -4.912642764      2.245      3.336
REMARK  1 active torsions:
REMARK  status: ('A' for Active; 'I' for Inactive)
REMARK    1  A    between atoms: O1_1  and  C1_3 
ROOT
HETATM    1  C1  UNL     1      18.006  17.111  23.076  1.00  0.00     0.214 C 
HETATM    2  S1  UNL     1      16.283  16.793  23.630  1.00  0.00    -0.105 SA
HETATM    3  C2  UNL     1      15.515  16.937  21.964  1.00  0.00     0.349 C 
HETATM    4  N1  UNL     1      16.684  16.649  21.153  1.00  0.00     0.105 N 
HETATM    5  C3  UNL     1      16.396  16.879  19.795  1.00  0.00     0.274 C 
HETATM    6  C4  UNL     1      17.530  17.047  18.864  1.00  0.00     0.030 C 
HETATM    7  C5  UNL     1      18.807  17.522  19.450  1.00  0.00     0.004 C 
HETATM    8  C6  UNL     1      18.998  17.003  20.834  1.00  0.00     0.039 C 
HETATM    9  C7  UNL     1      17.769  17.446  21.627  1.00  0.00     0.262 C 
ENDROOT
BRANCH   1  10
HETATM   10  O1  UNL     1      18.408  18.280  23.713  1.00  0.00    -0.383 OA
ATOM     11  H1  UNL     1      19.080  18.025  24.333  1.00  0.00     0.211 HD
ENDBRANCH   1  10
TORSDOF 1
ENDMDL
MODEL 3
REMARK VINA RESULT: -4.888579321      4.727      6.359
REMARK  1 active torsions:
REMARK  status: ('A' for Active; 'I' for Inactive)
REMARK    1  A    between atoms: O1_1  and  C1_3 
ROOT
HETATM    1  C1  UNL     1      14.486  14.939  18.846  1.00  0.00     0.214 C 
HETATM    2  S1  UNL     1      15.761  16.262  18.897  1.00  0.00    -0.105 SA
HETATM    3  C2  UNL     1      15.286  17.050  17.303  1.00  0.00     0.349 C 
HETATM    4  N1  UNL     1      13.914  16.581  17.222  1.00  0.00     0.105 N 
HETATM    5  C3  UNL     1      13.368  16.908  15.967  1.00  0.00     0.274 C 
HETATM    6  C4  UNL     1      12.160  16.181  15.526  1.00  0.00     0.030 C 
HETATM    7  C5  UNL     1      11.943  14.835  16.110  1.00  0.00     0.004 C 
HETATM    8  C6  UNL     1      12.430  14.768  17.518  1.00  0.00     0.039 C 
HETATM    9  C7  UNL     1      13.901  15.177  17.478  1.00  0.00     0.262 C 
ENDROOT
BRANCH   1  10
HETATM   10  O1  UNL     1      15.180  13.735  18.798  1.00  0.00    -0.383 OA
ATOM     11  H1  UNL     1      14.935  13.321  17.979  1.00  0.00     0.211 HD
ENDBRANCH   1  10
TORSDOF 1
ENDMDL
MODEL 4
REMARK VINA RESULT: -4.773912836      4.685      5.826
REMARK  1 active torsions:
REMARK  status: ('A' for Active; 'I' for Inactive)
REMARK    1  A    between atoms: O1_1  and  C1_3 
ROOT
HETATM    1  C1  UNL     1      12.660  14.735  17.804  1.00  0.00     0.214 C 
HETATM    2  S1  UNL     1      12.201  15.377  16.145  1.00  0.00    -0.105 SA
HETATM    3  C2  UNL     1      13.513  16.665  16.067  1.00  0.00     0.349 C 
HETATM    4  N1  UNL     1      14.450  16.088  17.013  1.00  0.00     0.105 N 
HETATM    5  C3  UNL     1      15.491  16.998  17.275  1.00  0.00     0.274 C 
HETATM    6  C4  UNL     1      16.305  16.789  18.491  1.00  0.00     0.030 C 
HETATM    7  C5  UNL     1      15.663  16.043  19.601  1.00  0.00     0.004 C 
HETATM    8  C6  UNL     1      14.735  14.996  19.089  1.00  0.00     0.039 C 
HETATM    9  C7  UNL     1      13.732  15.720  18.191  1.00  0.00     0.262 C 
ENDROOT
BRANCH   1  10
HETATM   10  O1  UNL     1      11.564  14.969  18.627  1.00  0.00    -0.383 OA
ATOM     11  H1  UNL     1      11.352  15.890  18.530  1.00  0.00     0.211 HD
ENDBRANCH   1  10
TORSDOF 1
ENDMDL
MODEL 5
REMARK VINA RESULT: -4.742069281      5.940      6.981
REMARK  1 active torsions:
REMARK  status: ('A' for Active; 'I' for Inactive)
REMARK    1  A    between atoms: O1_1  and  C1_3 
ROOT
HETATM    1  C1  UNL     1      11.793  16.360  15.575  1.00  0.00     0.214 C 
HETATM    2  S1  UNL     1      12.833  17.674  14.820  1.00  0.00    -0.105 SA
HETATM    3  C2  UNL     1      14.170  17.611  16.083  1.00  0.00     0.349 C 
HETATM    4  N1  UNL     1      13.949  16.263  16.576  1.00  0.00     0.105 N 
HETATM    5  C3  UNL     1      14.752  16.027  17.706  1.00  0.00     0.274 C 
HETATM    6  C4  UNL     1      14.389  14.901  18.592  1.00  0.00     0.030 C 
HETATM    7  C5  UNL     1      12.968  14.476  18.580  1.00  0.00     0.004 C 
HETATM    8  C6  UNL     1      12.363  14.638  17.227  1.00  0.00     0.039 C 
HETATM    9  C7  UNL     1      12.557  16.105  16.848  1.00  0.00     0.262 C 
ENDROOT
BRANCH   1  10
HETATM   10  O1  UNL     1      10.593  16.970  15.925  1.00  0.00    -0.383 OA
ATOM     11  H1  UNL     1      10.060  16.974  15.139  1.00  0.00     0.211 HD
ENDBRANCH   1  10
TORSDOF 1
ENDMDL
