MODEL 1
REMARK VINA RESULT: -9.154343026      0.000      0.000
REMARK  10 active torsions:
REMARK  status: ('A' for Active; 'I' for Inactive)
REMARK    1  A    between atoms: C2_2  and  O1_3 
REMARK    2  A    between atoms: O1_3  and  C3_4 
REMARK    3  A    between atoms: C6_7  and  C7_8 
REMARK    4  A    between atoms: C8_9  and  C9_10 
REMARK    5  A    between atoms: C14_16  and  N2_17 
REMARK    6  A    between atoms: C23_30  and  C24_31 
REMARK    7  A    between atoms: C24_31  and  C25_32 
REMARK    8  A    between atoms: C25_32  and  N4_33 
REMARK       I    between atoms: N4_33  and  C26_35 
REMARK       I    between atoms: C26_35  and  N5_37 
REMARK    9  A    between atoms: N5_37  and  C27_39 
REMARK   10  A    between atoms: N6_42  and  C30_43 
ROOT
HETATM    1  C3  UNL     1       8.644 -14.280  14.479  1.00  0.00     0.075 A 
HETATM    2  C4  UNL     1       8.267 -13.090  15.067  1.00  0.00     0.038 A 
HETATM    3  C5  UNL     1       9.022 -12.496  16.088  1.00  0.00     0.015 A 
HETATM    4  C6  UNL     1      10.167 -13.063  16.552  1.00  0.00    -0.019 A 
HETATM    5  C22 UNL     1      10.546 -14.252  15.963  1.00  0.00     0.022 A 
HETATM    6  C23 UNL     1       9.807 -14.866  14.937  1.00  0.00    -0.022 A 
ENDROOT
BRANCH   4   7
HETATM    7  C7  UNL     1      10.982 -12.507  17.646  1.00  0.00     0.059 A 
HETATM    8  C8  UNL     1      12.254 -12.304  17.679  1.00  0.00     0.061 A 
HETATM    9  C20 UNL     1      12.548 -11.740  19.033  1.00  0.00     0.260 A 
HETATM   10  O2  UNL     1      13.684 -11.415  19.443  1.00  0.00    -0.267 OA
HETATM   11  N3  UNL     1      11.355 -11.633  19.775  1.00  0.00    -0.289 N 
HETATM   12  C21 UNL     1      10.338 -12.107  18.936  1.00  0.00     0.260 A 
ATOM     13  H3  UNL     1      11.252 -11.282  20.727  1.00  0.00     0.172 HD
HETATM   14  O3  UNL     1       9.105 -12.198  19.175  1.00  0.00    -0.267 OA
BRANCH   8  15
HETATM   15  C9  UNL     1      13.306 -12.540  16.684  1.00  0.00     0.009 A 
HETATM   16  C10 UNL     1      13.765 -11.839  15.613  1.00  0.00     0.104 A 
HETATM   17  N1  UNL     1      14.800 -12.483  15.030  1.00  0.00    -0.359 N 
HETATM   18  C11 UNL     1      15.510 -11.999  13.866  1.00  0.00     0.156 C 
HETATM   19  C12 UNL     1      15.058 -13.625  15.693  1.00  0.00     0.047 A 
HETATM   20  C13 UNL     1      16.003 -14.635  15.518  1.00  0.00     0.059 A 
HETATM   21  C19 UNL     1      14.143 -13.676  16.720  1.00  0.00     0.004 A 
HETATM   22  C14 UNL     1      16.061 -15.721  16.361  1.00  0.00     0.031 A 
HETATM   23  C17 UNL     1      15.145 -15.772  17.389  1.00  0.00     0.030 A 
HETATM   24  C18 UNL     1      14.211 -14.770  17.560  1.00  0.00     0.017 A 
BRANCH  22  25
HETATM   25  N2  UNL     1      17.035 -16.762  16.178  1.00  0.00    -0.389 N 
HETATM   26  C15 UNL     1      18.109 -16.923  17.139  1.00  0.00     0.149 C 
HETATM   27  C16 UNL     1      16.959 -17.662  15.039  1.00  0.00     0.149 C 
ENDBRANCH  22  25
ENDBRANCH   8  15
ENDBRANCH   4   7
BRANCH   6  28
HETATM   28  C24 UNL     1      10.353 -16.097  14.355  1.00  0.00     0.061 C 
BRANCH  28  29
HETATM   29  C25 UNL     1      11.464 -15.975  13.417  1.00  0.00     0.129 C 
BRANCH  29  30
HETATM   30  N4  UNL     1      11.903 -17.099  12.641  1.00  0.00    -0.343 N 
HETATM   31  C26 UNL     1      11.568 -17.136  11.234  1.00  0.00     0.321 C 
HETATM   32  O4  UNL     1      10.915 -16.198  10.759  1.00  0.00    -0.247 OA
HETATM   33  N5  UNL     1      11.987 -18.224  10.460  1.00  0.00    -0.294 N 
ATOM     34  H5  UNL     1      12.931 -18.576  10.621  1.00  0.00     0.172 HD
ATOM     35  H4  UNL     1      12.439 -17.853  13.071  1.00  0.00     0.164 HD
BRANCH  33  36
HETATM   36  C27 UNL     1      11.286 -18.816   9.563  1.00  0.00     0.125 A 
HETATM   37  C28 UNL     1      11.508 -20.106   9.131  1.00  0.00     0.069 A 
HETATM   38  C29 UNL     1      10.578 -20.428   8.166  1.00  0.00     0.114 A 
HETATM   39  N6  UNL     1       9.805 -19.316   8.033  1.00  0.00    -0.302 N 
HETATM   40  N7  UNL     1      10.230 -18.389   8.851  1.00  0.00    -0.284 N 
ATOM     41  H7  UNL     1       9.813 -17.462   8.937  1.00  0.00     0.188 HD
BRANCH  39  42
HETATM   42  C30 UNL     1       8.690 -19.276   7.084  1.00  0.00     0.143 C 
HETATM   43  C31 UNL     1       9.101 -19.659   5.700  1.00  0.00     0.028 C 
ENDBRANCH  39  42
ENDBRANCH  33  36
ENDBRANCH  29  30
ENDBRANCH  28  29
ENDBRANCH   6  28
BRANCH   1  44
HETATM   44  O1  UNL     1       7.908 -14.880  13.478  1.00  0.00    -0.351 OA
BRANCH  44  45
HETATM   45  C2  UNL     1       7.504 -14.272  12.283  1.00  0.00     0.171 C 
HETATM   46  C1  UNL     1       8.623 -13.712  11.460  1.00  0.00     0.034 C 
ENDBRANCH  44  45
ENDBRANCH   1  44
TORSDOF 10
ENDMDL
MODEL 2
REMARK VINA RESULT: -9.085232155      2.741      4.271
REMARK  10 active torsions:
REMARK  status: ('A' for Active; 'I' for Inactive)
REMARK    1  A    between atoms: C2_2  and  O1_3 
REMARK    2  A    between atoms: O1_3  and  C3_4 
REMARK    3  A    between atoms: C6_7  and  C7_8 
REMARK    4  A    between atoms: C8_9  and  C9_10 
REMARK    5  A    between atoms: C14_16  and  N2_17 
REMARK    6  A    between atoms: C23_30  and  C24_31 
REMARK    7  A    between atoms: C24_31  and  C25_32 
REMARK    8  A    between atoms: C25_32  and  N4_33 
REMARK       I    between atoms: N4_33  and  C26_35 
REMARK       I    between atoms: C26_35  and  N5_37 
REMARK    9  A    between atoms: N5_37  and  C27_39 
REMARK   10  A    between atoms: N6_42  and  C30_43 
ROOT
HETATM    1  C3  UNL     1       9.898 -15.704  13.149  1.00  0.00     0.075 A 
HETATM    2  C4  UNL     1      10.554 -16.306  14.203  1.00  0.00     0.038 A 
HETATM    3  C5  UNL     1      10.853 -15.609  15.383  1.00  0.00     0.015 A 
HETATM    4  C6  UNL     1      10.512 -14.304  15.548  1.00  0.00    -0.019 A 
HETATM    5  C22 UNL     1       9.854 -13.703  14.495  1.00  0.00     0.022 A 
HETATM    6  C23 UNL     1       9.541 -14.380  13.303  1.00  0.00    -0.022 A 
ENDROOT
BRANCH   4   7
HETATM    7  C7  UNL     1      10.831 -13.510  16.747  1.00  0.00     0.059 A 
HETATM    8  C8  UNL     1      11.987 -13.202  17.225  1.00  0.00     0.061 A 
HETATM    9  C20 UNL     1      11.724 -12.398  18.459  1.00  0.00     0.260 A 
HETATM   10  O2  UNL     1      12.608 -11.918  19.203  1.00  0.00    -0.267 OA
HETATM   11  N3  UNL     1      10.335 -12.265  18.655  1.00  0.00    -0.289 N 
HETATM   12  C21 UNL     1       9.731 -12.953  17.595  1.00  0.00     0.260 A 
ATOM     13  H3  UNL     1       9.866 -11.770  19.413  1.00  0.00     0.172 HD
HETATM   14  O3  UNL     1       8.503 -13.103  17.358  1.00  0.00    -0.267 OA
BRANCH   8  15
HETATM   15  C9  UNL     1      13.346 -13.514  16.769  1.00  0.00     0.009 A 
HETATM   16  C10 UNL     1      14.246 -14.485  17.082  1.00  0.00     0.104 A 
HETATM   17  N1  UNL     1      15.366 -14.354  16.338  1.00  0.00    -0.359 N 
HETATM   18  C11 UNL     1      16.514 -15.230  16.431  1.00  0.00     0.156 C 
HETATM   19  C12 UNL     1      15.246 -13.296  15.514  1.00  0.00     0.047 A 
HETATM   20  C13 UNL     1      16.088 -12.735  14.557  1.00  0.00     0.059 A 
HETATM   21  C19 UNL     1      14.001 -12.765  15.768  1.00  0.00     0.004 A 
HETATM   22  C14 UNL     1      15.713 -11.629  13.827  1.00  0.00     0.031 A 
HETATM   23  C17 UNL     1      14.468 -11.098  14.080  1.00  0.00     0.030 A 
HETATM   24  C18 UNL     1      13.635 -11.657  15.029  1.00  0.00     0.017 A 
BRANCH  22  25
HETATM   25  N2  UNL     1      16.584 -11.051  12.840  1.00  0.00    -0.389 N 
HETATM   26  C15 UNL     1      17.588 -11.873  12.193  1.00  0.00     0.149 C 
HETATM   27  C16 UNL     1      16.472  -9.647  12.478  1.00  0.00     0.149 C 
ENDBRANCH  22  25
ENDBRANCH   8  15
ENDBRANCH   4   7
BRANCH   6  28
HETATM   28  C24 UNL     1       8.785 -13.642  12.285  1.00  0.00     0.061 C 
BRANCH  28  29
HETATM   29  C25 UNL     1       7.390 -14.010  12.069  1.00  0.00     0.129 C 
BRANCH  29  30
HETATM   30  N4  UNL     1       7.041 -15.268  11.476  1.00  0.00    -0.343 N 
HETATM   31  C26 UNL     1       7.059 -15.377  10.033  1.00  0.00     0.321 C 
HETATM   32  O4  UNL     1       7.373 -14.379   9.371  1.00  0.00    -0.247 OA
HETATM   33  N5  UNL     1       6.723 -16.596   9.434  1.00  0.00    -0.294 N 
ATOM     34  H5  UNL     1       7.082 -17.445   9.871  1.00  0.00     0.172 HD
ATOM     35  H4  UNL     1       6.787 -16.067  12.057  1.00  0.00     0.164 HD
BRANCH  33  36
HETATM   36  C27 UNL     1       6.001 -16.737   8.383  1.00  0.00     0.125 A 
HETATM   37  C28 UNL     1       5.520 -17.947   7.929  1.00  0.00     0.069 A 
HETATM   38  C29 UNL     1       4.785 -17.740   6.781  1.00  0.00     0.114 A 
HETATM   39  N6  UNL     1       4.836 -16.398   6.563  1.00  0.00    -0.302 N 
HETATM   40  N7  UNL     1       5.547 -15.830   7.502  1.00  0.00    -0.284 N 
ATOM     41  H7  UNL     1       5.732 -14.829   7.558  1.00  0.00     0.188 HD
BRANCH  39  42
HETATM   42  C30 UNL     1       4.159 -15.790   5.416  1.00  0.00     0.143 C 
HETATM   43  C31 UNL     1       4.141 -16.685   4.220  1.00  0.00     0.028 C 
ENDBRANCH  39  42
ENDBRANCH  33  36
ENDBRANCH  29  30
ENDBRANCH  28  29
ENDBRANCH   6  28
BRANCH   1  44
HETATM   44  O1  UNL     1       9.603 -16.374  11.979  1.00  0.00    -0.351 OA
BRANCH  44  45
HETATM   45  C2  UNL     1      10.526 -16.740  10.990  1.00  0.00     0.171 C 
HETATM   46  C1  UNL     1      11.006 -15.607  10.137  1.00  0.00     0.034 C 
ENDBRANCH  44  45
ENDBRANCH   1  44
TORSDOF 10
ENDMDL
MODEL 3
REMARK VINA RESULT: -8.978436507      1.323      1.621
REMARK  10 active torsions:
REMARK  status: ('A' for Active; 'I' for Inactive)
REMARK    1  A    between atoms: C2_2  and  O1_3 
REMARK    2  A    between atoms: O1_3  and  C3_4 
REMARK    3  A    between atoms: C6_7  and  C7_8 
REMARK    4  A    between atoms: C8_9  and  C9_10 
REMARK    5  A    between atoms: C14_16  and  N2_17 
REMARK    6  A    between atoms: C23_30  and  C24_31 
REMARK    7  A    between atoms: C24_31  and  C25_32 
REMARK    8  A    between atoms: C25_32  and  N4_33 
REMARK       I    between atoms: N4_33  and  C26_35 
REMARK       I    between atoms: C26_35  and  N5_37 
REMARK    9  A    between atoms: N5_37  and  C27_39 
REMARK   10  A    between atoms: N6_42  and  C30_43 
ROOT
HETATM    1  C3  UNL     1       8.547 -14.343  14.508  1.00  0.00     0.075 A 
HETATM    2  C4  UNL     1       8.204 -13.115  15.034  1.00  0.00     0.038 A 
HETATM    3  C5  UNL     1       8.955 -12.511  16.052  1.00  0.00     0.015 A 
HETATM    4  C6  UNL     1      10.062 -13.104  16.572  1.00  0.00    -0.019 A 
HETATM    5  C22 UNL     1      10.406 -14.331  16.044  1.00  0.00     0.022 A 
HETATM    6  C23 UNL     1       9.670 -14.958  15.023  1.00  0.00    -0.022 A 
ENDROOT
BRANCH   4   7
HETATM    7  C7  UNL     1      10.869 -12.536  17.666  1.00  0.00     0.059 A 
HETATM    8  C8  UNL     1      12.139 -12.320  17.700  1.00  0.00     0.061 A 
HETATM    9  C20 UNL     1      12.425 -11.749  19.053  1.00  0.00     0.260 A 
HETATM   10  O2  UNL     1      13.557 -11.410  19.463  1.00  0.00    -0.267 OA
HETATM   11  N3  UNL     1      11.229 -11.651  19.792  1.00  0.00    -0.289 N 
HETATM   12  C21 UNL     1      10.219 -12.138  18.953  1.00  0.00     0.260 A 
ATOM     13  H3  UNL     1      11.121 -11.298  20.743  1.00  0.00     0.172 HD
HETATM   14  O3  UNL     1       8.986 -12.241  19.190  1.00  0.00    -0.267 OA
BRANCH   8  15
HETATM   15  C9  UNL     1      13.195 -12.548  16.708  1.00  0.00     0.009 A 
HETATM   16  C10 UNL     1      13.643 -11.850  15.630  1.00  0.00     0.104 A 
HETATM   17  N1  UNL     1      14.689 -12.482  15.053  1.00  0.00    -0.359 N 
HETATM   18  C11 UNL     1      15.392 -11.998  13.885  1.00  0.00     0.156 C 
HETATM   19  C12 UNL     1      14.965 -13.615  15.727  1.00  0.00     0.047 A 
HETATM   20  C13 UNL     1      15.925 -14.611  15.561  1.00  0.00     0.059 A 
HETATM   21  C19 UNL     1      14.050 -13.671  16.754  1.00  0.00     0.004 A 
HETATM   22  C14 UNL     1      15.999 -15.689  16.414  1.00  0.00     0.031 A 
HETATM   23  C17 UNL     1      15.084 -15.745  17.442  1.00  0.00     0.030 A 
HETATM   24  C18 UNL     1      14.134 -14.756  17.604  1.00  0.00     0.017 A 
BRANCH  22  25
HETATM   25  N2  UNL     1      16.990 -16.716  16.240  1.00  0.00    -0.389 N 
HETATM   26  C15 UNL     1      16.916 -17.605  15.097  1.00  0.00     0.149 C 
HETATM   27  C16 UNL     1      18.072 -16.877  17.198  1.00  0.00     0.149 C 
ENDBRANCH  22  25
ENDBRANCH   8  15
ENDBRANCH   4   7
BRANCH   6  28
HETATM   28  C24 UNL     1      10.180 -16.234  14.509  1.00  0.00     0.061 C 
BRANCH  28  29
HETATM   29  C25 UNL     1      11.131 -16.194  13.403  1.00  0.00     0.129 C 
BRANCH  29  30
HETATM   30  N4  UNL     1      12.105 -17.232  13.228  1.00  0.00    -0.343 N 
HETATM   31  C26 UNL     1      12.511 -17.574  11.882  1.00  0.00     0.321 C 
HETATM   32  O4  UNL     1      12.001 -16.958  10.938  1.00  0.00    -0.247 OA
HETATM   33  N5  UNL     1      13.460 -18.584  11.690  1.00  0.00    -0.294 N 
ATOM     34  H5  UNL     1      14.255 -18.607  12.330  1.00  0.00     0.172 HD
ATOM     35  H4  UNL     1      12.501 -17.717  14.033  1.00  0.00     0.164 HD
BRANCH  33  36
HETATM   36  C27 UNL     1      13.417 -19.485  10.777  1.00  0.00     0.125 A 
HETATM   37  C28 UNL     1      14.290 -20.550  10.697  1.00  0.00     0.069 A 
HETATM   38  C29 UNL     1      13.963 -21.321   9.602  1.00  0.00     0.114 A 
HETATM   39  N6  UNL     1      12.890 -20.703   9.039  1.00  0.00    -0.302 N 
HETATM   40  N7  UNL     1      12.586 -19.637   9.733  1.00  0.00    -0.284 N 
ATOM     41  H7  UNL     1      11.818 -19.005   9.511  1.00  0.00     0.188 HD
BRANCH  39  42
HETATM   42  C30 UNL     1      12.252 -21.239   7.835  1.00  0.00     0.143 C 
HETATM   43  C31 UNL     1      13.214 -21.426   6.709  1.00  0.00     0.028 C 
ENDBRANCH  39  42
ENDBRANCH  33  36
ENDBRANCH  29  30
ENDBRANCH  28  29
ENDBRANCH   6  28
BRANCH   1  44
HETATM   44  O1  UNL     1       7.814 -14.956  13.511  1.00  0.00    -0.351 OA
BRANCH  44  45
HETATM   45  C2  UNL     1       7.534 -14.412  12.250  1.00  0.00     0.171 C 
HETATM   46  C1  UNL     1       8.738 -13.943  11.493  1.00  0.00     0.034 C 
ENDBRANCH  44  45
ENDBRANCH   1  44
TORSDOF 10
ENDMDL
MODEL 4
REMARK VINA RESULT: -8.969702081      3.476      5.326
REMARK  10 active torsions:
REMARK  status: ('A' for Active; 'I' for Inactive)
REMARK    1  A    between atoms: C2_2  and  O1_3 
REMARK    2  A    between atoms: O1_3  and  C3_4 
REMARK    3  A    between atoms: C6_7  and  C7_8 
REMARK    4  A    between atoms: C8_9  and  C9_10 
REMARK    5  A    between atoms: C14_16  and  N2_17 
REMARK    6  A    between atoms: C23_30  and  C24_31 
REMARK    7  A    between atoms: C24_31  and  C25_32 
REMARK    8  A    between atoms: C25_32  and  N4_33 
REMARK       I    between atoms: N4_33  and  C26_35 
REMARK       I    between atoms: C26_35  and  N5_37 
REMARK    9  A    between atoms: N5_37  and  C27_39 
REMARK   10  A    between atoms: N6_42  and  C30_43 
ROOT
HETATM    1  C3  UNL     1       9.899 -15.754  13.157  1.00  0.00     0.075 A 
HETATM    2  C4  UNL     1      10.401 -16.370  14.284  1.00  0.00     0.038 A 
HETATM    3  C5  UNL     1      10.713 -15.648  15.445  1.00  0.00     0.015 A 
HETATM    4  C6  UNL     1      10.535 -14.303  15.520  1.00  0.00    -0.019 A 
HETATM    5  C22 UNL     1      10.031 -13.687  14.393  1.00  0.00     0.022 A 
HETATM    6  C23 UNL     1       9.710 -14.388  13.218  1.00  0.00    -0.022 A 
ENDROOT
BRANCH   4   7
HETATM    7  C7  UNL     1      10.878 -13.486  16.697  1.00  0.00     0.059 A 
HETATM    8  C8  UNL     1      12.043 -13.168  17.145  1.00  0.00     0.061 A 
HETATM    9  C20 UNL     1      11.804 -12.341  18.368  1.00  0.00     0.260 A 
HETATM   10  O2  UNL     1      12.702 -11.846  19.086  1.00  0.00    -0.267 OA
HETATM   11  N3  UNL     1      10.420 -12.205  18.590  1.00  0.00    -0.289 N 
HETATM   12  C21 UNL     1       9.795 -12.914  17.556  1.00  0.00     0.260 A 
ATOM     13  H3  UNL     1       9.965 -11.696  19.348  1.00  0.00     0.172 HD
HETATM   14  O3  UNL     1       8.562 -13.069  17.347  1.00  0.00    -0.267 OA
BRANCH   8  15
HETATM   15  C9  UNL     1      13.393 -13.488  16.668  1.00  0.00     0.009 A 
HETATM   16  C10 UNL     1      14.284 -14.475  16.951  1.00  0.00     0.104 A 
HETATM   17  N1  UNL     1      15.398 -14.343  16.197  1.00  0.00    -0.359 N 
HETATM   18  C11 UNL     1      16.535 -15.235  16.259  1.00  0.00     0.156 C 
HETATM   19  C12 UNL     1      15.281 -13.268  15.395  1.00  0.00     0.047 A 
HETATM   20  C13 UNL     1      16.119 -12.698  14.440  1.00  0.00     0.059 A 
HETATM   21  C19 UNL     1      14.046 -12.727  15.674  1.00  0.00     0.004 A 
HETATM   22  C14 UNL     1      15.751 -11.573  13.736  1.00  0.00     0.031 A 
HETATM   23  C17 UNL     1      14.515 -11.032  14.015  1.00  0.00     0.030 A 
HETATM   24  C18 UNL     1      13.686 -11.600  14.962  1.00  0.00     0.017 A 
BRANCH  22  25
HETATM   25  N2  UNL     1      16.618 -10.986  12.752  1.00  0.00    -0.389 N 
HETATM   26  C15 UNL     1      16.501  -9.576  12.436  1.00  0.00     0.149 C 
HETATM   27  C16 UNL     1      17.617 -11.789  12.065  1.00  0.00     0.149 C 
ENDBRANCH  22  25
ENDBRANCH   8  15
ENDBRANCH   4   7
BRANCH   6  28
HETATM   28  C24 UNL     1       9.124 -13.621  12.112  1.00  0.00     0.061 C 
BRANCH  28  29
HETATM   29  C25 UNL     1       7.672 -13.636  11.965  1.00  0.00     0.129 C 
BRANCH  29  30
HETATM   30  N4  UNL     1       7.002 -14.751  11.363  1.00  0.00    -0.343 N 
HETATM   31  C26 UNL     1       5.577 -14.891  11.571  1.00  0.00     0.321 C 
HETATM   32  O4  UNL     1       4.995 -14.043  12.260  1.00  0.00    -0.247 OA
HETATM   33  N5  UNL     1       4.903 -15.973  10.992  1.00  0.00    -0.294 N 
ATOM     34  H5  UNL     1       5.162 -16.227  10.038  1.00  0.00     0.172 HD
ATOM     35  H4  UNL     1       7.517 -15.430  10.802  1.00  0.00     0.164 HD
BRANCH  33  36
HETATM   36  C27 UNL     1       3.988 -16.672  11.558  1.00  0.00     0.125 A 
HETATM   37  C28 UNL     1       3.989 -18.050  11.615  1.00  0.00     0.069 A 
HETATM   38  C29 UNL     1       2.866 -18.475  12.292  1.00  0.00     0.114 A 
HETATM   39  N6  UNL     1       2.204 -17.337  12.633  1.00  0.00    -0.302 N 
HETATM   40  N7  UNL     1       2.869 -16.298  12.198  1.00  0.00    -0.284 N 
ATOM     41  H7  UNL     1       2.575 -15.331  12.329  1.00  0.00     0.188 HD
BRANCH  39  42
HETATM   42  C30 UNL     1       0.943 -17.387  13.376  1.00  0.00     0.143 C 
HETATM   43  C31 UNL     1       0.772 -18.664  14.131  1.00  0.00     0.028 C 
ENDBRANCH  39  42
ENDBRANCH  33  36
ENDBRANCH  29  30
ENDBRANCH  28  29
ENDBRANCH   6  28
BRANCH   1  44
HETATM   44  O1  UNL     1       9.595 -16.448  12.004  1.00  0.00    -0.351 OA
BRANCH  44  45
HETATM   45  C2  UNL     1      10.524 -16.990  11.106  1.00  0.00     0.171 C 
HETATM   46  C1  UNL     1      11.244 -15.979  10.269  1.00  0.00     0.034 C 
ENDBRANCH  44  45
ENDBRANCH   1  44
TORSDOF 10
ENDMDL
MODEL 5
REMARK VINA RESULT: -8.960974928      2.628      5.387
REMARK  10 active torsions:
REMARK  status: ('A' for Active; 'I' for Inactive)
REMARK    1  A    between atoms: C2_2  and  O1_3 
REMARK    2  A    between atoms: O1_3  and  C3_4 
REMARK    3  A    between atoms: C6_7  and  C7_8 
REMARK    4  A    between atoms: C8_9  and  C9_10 
REMARK    5  A    between atoms: C14_16  and  N2_17 
REMARK    6  A    between atoms: C23_30  and  C24_31 
REMARK    7  A    between atoms: C24_31  and  C25_32 
REMARK    8  A    between atoms: C25_32  and  N4_33 
REMARK       I    between atoms: N4_33  and  C26_35 
REMARK       I    between atoms: C26_35  and  N5_37 
REMARK    9  A    between atoms: N5_37  and  C27_39 
REMARK   10  A    between atoms: N6_42  and  C30_43 
ROOT
HETATM    1  C3  UNL     1       9.694 -14.743  13.174  1.00  0.00     0.075 A 
HETATM    2  C4  UNL     1       9.862 -13.389  13.378  1.00  0.00     0.038 A 
HETATM    3  C5  UNL     1      10.276 -12.873  14.614  1.00  0.00     0.015 A 
HETATM    4  C6  UNL     1      10.535 -13.681  15.676  1.00  0.00    -0.019 A 
HETATM    5  C22 UNL     1      10.368 -15.036  15.471  1.00  0.00     0.022 A 
HETATM    6  C23 UNL     1       9.955 -15.578  14.241  1.00  0.00    -0.022 A 
ENDROOT
BRANCH   4   7
HETATM    7  C7  UNL     1      10.937 -13.197  17.008  1.00  0.00     0.059 A 
HETATM    8  C8  UNL     1      12.119 -13.121  17.513  1.00  0.00     0.061 A 
HETATM    9  C20 UNL     1      11.944 -12.574  18.895  1.00  0.00     0.260 A 
HETATM   10  O2  UNL     1      12.874 -12.358  19.703  1.00  0.00    -0.267 OA
HETATM   11  N3  UNL     1      10.577 -12.340  19.146  1.00  0.00    -0.289 N 
HETATM   12  C21 UNL     1       9.903 -12.721  17.978  1.00  0.00     0.260 A 
ATOM     13  H3  UNL     1      10.164 -11.970  20.001  1.00  0.00     0.172 HD
HETATM   14  O3  UNL     1       8.666 -12.686  17.742  1.00  0.00    -0.267 OA
BRANCH   8  15
HETATM   15  C9  UNL     1      13.437 -13.471  16.972  1.00  0.00     0.009 A 
HETATM   16  C10 UNL     1      14.322 -14.473  17.219  1.00  0.00     0.104 A 
HETATM   17  N1  UNL     1      15.399 -14.369  16.409  1.00  0.00    -0.359 N 
HETATM   18  C11 UNL     1      16.521 -15.282  16.422  1.00  0.00     0.156 C 
HETATM   19  C12 UNL     1      15.262 -13.299  15.603  1.00  0.00     0.047 A 
HETATM   20  C13 UNL     1      16.061 -12.753  14.601  1.00  0.00     0.059 A 
HETATM   21  C19 UNL     1      14.053 -12.732  15.939  1.00  0.00     0.004 A 
HETATM   22  C14 UNL     1      15.678 -11.628  13.906  1.00  0.00     0.031 A 
HETATM   23  C17 UNL     1      14.469 -11.061  14.242  1.00  0.00     0.030 A 
HETATM   24  C18 UNL     1      13.678 -11.604  15.235  1.00  0.00     0.017 A 
BRANCH  22  25
HETATM   25  N2  UNL     1      16.505 -11.067  12.873  1.00  0.00    -0.389 N 
HETATM   26  C15 UNL     1      16.396  -9.658  12.547  1.00  0.00     0.149 C 
HETATM   27  C16 UNL     1      17.456 -11.894  12.148  1.00  0.00     0.149 C 
ENDBRANCH  22  25
ENDBRANCH   8  15
ENDBRANCH   4   7
BRANCH   6  28
HETATM   28  C24 UNL     1       9.877 -17.040  14.139  1.00  0.00     0.061 C 
BRANCH  28  29
HETATM   29  C25 UNL     1      10.835 -17.716  13.271  1.00  0.00     0.129 C 
BRANCH  29  30
HETATM   30  N4  UNL     1      12.238 -17.432  13.354  1.00  0.00    -0.343 N 
HETATM   31  C26 UNL     1      13.107 -18.426  13.945  1.00  0.00     0.321 C 
HETATM   32  O4  UNL     1      12.604 -19.481  14.355  1.00  0.00    -0.247 OA
HETATM   33  N5  UNL     1      14.480 -18.169  14.036  1.00  0.00    -0.294 N 
ATOM     34  H5  UNL     1      14.925 -17.722  13.234  1.00  0.00     0.172 HD
ATOM     35  H4  UNL     1      12.614 -16.550  13.006  1.00  0.00     0.164 HD
BRANCH  33  36
HETATM   36  C27 UNL     1      15.227 -18.446  15.042  1.00  0.00     0.125 A 
HETATM   37  C28 UNL     1      16.570 -18.743  14.952  1.00  0.00     0.069 A 
HETATM   38  C29 UNL     1      17.064 -18.990  16.215  1.00  0.00     0.114 A 
HETATM   39  N6  UNL     1      16.001 -18.835  17.049  1.00  0.00    -0.302 N 
HETATM   40  N7  UNL     1      14.941 -18.520  16.352  1.00  0.00    -0.284 N 
ATOM     41  H7  UNL     1      14.018 -18.352  16.752  1.00  0.00     0.188 HD
BRANCH  39  42
HETATM   42  C30 UNL     1      16.139 -19.019  18.495  1.00  0.00     0.143 C 
HETATM   43  C31 UNL     1      15.912 -17.756  19.259  1.00  0.00     0.028 C 
ENDBRANCH  39  42
ENDBRANCH  33  36
ENDBRANCH  29  30
ENDBRANCH  28  29
ENDBRANCH   6  28
BRANCH   1  44
HETATM   44  O1  UNL     1       9.280 -15.266  11.965  1.00  0.00    -0.351 OA
BRANCH  44  45
HETATM   45  C2  UNL     1       9.761 -14.892  10.704  1.00  0.00     0.171 C 
HETATM   46  C1  UNL     1      11.139 -15.387  10.392  1.00  0.00     0.034 C 
ENDBRANCH  44  45
ENDBRANCH   1  44
TORSDOF 10
ENDMDL
