MODEL 1
REMARK VINA RESULT: -7.396339801      0.000      0.000
REMARK  9 active torsions:
REMARK  status: ('A' for Active; 'I' for Inactive)
REMARK    1  A    between atoms: C2_2  and  C3_3 
REMARK    2  A    between atoms: C3_3  and  C4_4 
REMARK    3  A    between atoms: C4_4  and  C5_5 
REMARK    4  A    between atoms: C5_5  and  O1_6 
REMARK       I    between atoms: N1_8  and  C7_10 
REMARK    5  A    between atoms: C7_10  and  C8_12 
REMARK    6  A    between atoms: C10_14  and  N2_15 
REMARK       I    between atoms: N2_15  and  C11_17 
REMARK    7  A    between atoms: C11_17  and  C12_19 
REMARK    8  A    between atoms: C14_22  and  C15_23 
REMARK    9  A    between atoms: C17_25  and  C18_26 
ROOT
HETATM    1  C12 UNL     1      10.168 -16.948  12.770  1.00  0.00     0.108 C 
HETATM    2  C13 UNL     1      10.208 -17.950  11.719  1.00  0.00     0.104 C 
HETATM    3  N3  UNL     1      10.255 -18.766  10.887  1.00  0.00    -0.191 NA
HETATM    4  C14 UNL     1       9.213 -16.059  12.680  1.00  0.00     0.008 C 
ENDROOT
BRANCH   1   5
HETATM    5  C11 UNL     1      11.123 -16.940  13.843  1.00  0.00     0.262 C 
HETATM    6  N2  UNL     1      12.420 -16.452  13.695  1.00  0.00    -0.350 N 
ATOM      7  H2  UNL     1      12.696 -16.084  12.784  1.00  0.00     0.163 HD
HETATM    8  O3  UNL     1      10.770 -17.396  14.963  1.00  0.00    -0.267 OA
BRANCH   6   9
HETATM    9  C10 UNL     1      13.406 -16.436  14.776  1.00  0.00     0.104 C 
HETATM   10  C9  UNL     1      14.032 -15.119  14.849  1.00  0.00     0.051 C 
HETATM   11  C8  UNL     1      15.496 -15.127  14.561  1.00  0.00     0.142 C 
HETATM   12  S3  UNL     1      15.923 -16.820  15.146  1.00  0.00    -0.143 SA
HETATM   13  C25 UNL     1      14.330 -17.585  14.726  1.00  0.00     0.022 C 
HETATM   14  C26 UNL     1      14.005 -18.662  15.735  1.00  0.00     0.029 C 
HETATM   15  C27 UNL     1      14.499 -18.166  13.336  1.00  0.00     0.029 C 
BRANCH  11  16
HETATM   16  C7  UNL     1      16.216 -14.090  15.286  1.00  0.00     0.235 C 
HETATM   17  N1  UNL     1      16.485 -12.792  14.893  1.00  0.00    -0.331 N 
HETATM   18  C4  UNL     1      15.788 -11.857  14.438  1.00  0.00     0.016 C 
ATOM     19  H1  UNL     1      17.468 -12.540  14.998  1.00  0.00     0.168 HD
HETATM   20  O2  UNL     1      16.665 -14.421  16.447  1.00  0.00    -0.272 OA
BRANCH  18  21
HETATM   21  C3  UNL     1      16.480 -10.572  14.131  1.00  0.00     0.081 C 
BRANCH  21  22
HETATM   22  C2  UNL     1      16.348 -10.198  12.711  1.00  0.00    -0.031 C 
HETATM   23  C1  UNL     1      17.209 -10.597  11.786  1.00  0.00     0.007 C 
ENDBRANCH  21  22
ENDBRANCH  18  21
BRANCH  18  24
HETATM   24  C5  UNL     1      14.346 -11.996  14.210  1.00  0.00     0.219 C 
BRANCH  24  25
HETATM   25  O1  UNL     1      13.495 -11.229  14.916  1.00  0.00    -0.390 OA
HETATM   26  C6  UNL     1      12.307 -11.750  15.331  1.00  0.00     0.201 C 
ENDBRANCH  24  25
ENDBRANCH  18  24
ENDBRANCH  11  16
ENDBRANCH   6   9
ENDBRANCH   1   5
BRANCH   4  27
HETATM   27  C15 UNL     1       8.214 -16.079  11.547  1.00  0.00     0.028 C 
HETATM   28  C16 UNL     1       6.884 -16.400  12.142  1.00  0.00     0.017 C 
HETATM   29  C17 UNL     1       5.842 -16.806  11.144  1.00  0.00     0.020 C 
HETATM   30  C21 UNL     1       5.949 -16.124   9.827  1.00  0.00     0.081 C 
HETATM   31  S2  UNL     1       6.710 -14.481  10.007  1.00  0.00    -0.159 SA
HETATM   32  C22 UNL     1       8.306 -14.779  10.831  1.00  0.00     0.008 C 
HETATM   33  C23 UNL     1       9.349 -14.909   9.726  1.00  0.00     0.027 C 
HETATM   34  C24 UNL     1       8.707 -13.622  11.699  1.00  0.00     0.027 C 
BRANCH  29  35
HETATM   35  C18 UNL     1       4.488 -16.648  11.794  1.00  0.00     0.106 C 
HETATM   36  C19 UNL     1       3.358 -17.119  10.949  1.00  0.00     0.147 C 
HETATM   37  N4  UNL     1       2.320 -17.392  11.944  1.00  0.00    -0.365 N 
HETATM   38  C20 UNL     1       3.030 -17.960  13.041  1.00  0.00     0.168 C 
ATOM     39  H4  UNL     1       1.318 -17.217  11.869  1.00  0.00     0.161 HD
HETATM   40  S1  UNL     1       2.416 -18.974  14.188  1.00  0.00    -0.041 SA
HETATM   41  N5  UNL     1       4.376 -17.500  12.980  1.00  0.00    -0.361 N 
ATOM     42  H5  UNL     1       5.122 -17.722  13.639  1.00  0.00     0.162 HD
ENDBRANCH  29  35
ENDBRANCH   4  27
TORSDOF 9
ENDMDL
MODEL 2
REMARK VINA RESULT: -7.383920820      3.199     11.015
REMARK  9 active torsions:
REMARK  status: ('A' for Active; 'I' for Inactive)
REMARK    1  A    between atoms: C2_2  and  C3_3 
REMARK    2  A    between atoms: C3_3  and  C4_4 
REMARK    3  A    between atoms: C4_4  and  C5_5 
REMARK    4  A    between atoms: C5_5  and  O1_6 
REMARK       I    between atoms: N1_8  and  C7_10 
REMARK    5  A    between atoms: C7_10  and  C8_12 
REMARK    6  A    between atoms: C10_14  and  N2_15 
REMARK       I    between atoms: N2_15  and  C11_17 
REMARK    7  A    between atoms: C11_17  and  C12_19 
REMARK    8  A    between atoms: C14_22  and  C15_23 
REMARK    9  A    between atoms: C17_25  and  C18_26 
ROOT
HETATM    1  C12 UNL     1      11.109 -14.173  13.677  1.00  0.00     0.108 C 
HETATM    2  C13 UNL     1      11.645 -15.522  13.735  1.00  0.00     0.104 C 
HETATM    3  N3  UNL     1      12.060 -16.611  13.767  1.00  0.00    -0.191 NA
HETATM    4  C14 UNL     1      11.847 -13.238  14.217  1.00  0.00     0.008 C 
ENDROOT
BRANCH   1   5
HETATM    5  C11 UNL     1       9.843 -13.889  13.060  1.00  0.00     0.262 C 
HETATM    6  N2  UNL     1       9.194 -14.793  12.220  1.00  0.00    -0.350 N 
ATOM      7  H2  UNL     1       9.641 -15.692  12.042  1.00  0.00     0.163 HD
HETATM    8  O3  UNL     1       9.301 -12.776  13.288  1.00  0.00    -0.267 OA
BRANCH   6   9
HETATM    9  C10 UNL     1       7.906 -14.521  11.582  1.00  0.00     0.104 C 
HETATM   10  C9  UNL     1       6.941 -15.546  11.971  1.00  0.00     0.051 C 
HETATM   11  C8  UNL     1       6.449 -16.378  10.834  1.00  0.00     0.142 C 
HETATM   12  S3  UNL     1       6.588 -15.154   9.465  1.00  0.00    -0.143 SA
HETATM   13  C25 UNL     1       8.025 -14.267  10.134  1.00  0.00     0.022 C 
HETATM   14  C26 UNL     1       7.929 -12.803   9.770  1.00  0.00     0.029 C 
HETATM   15  C27 UNL     1       9.245 -14.911   9.504  1.00  0.00     0.029 C 
BRANCH  11  16
HETATM   16  C7  UNL     1       5.083 -16.842  11.028  1.00  0.00     0.235 C 
HETATM   17  N1  UNL     1       4.190 -17.311  10.083  1.00  0.00    -0.331 N 
HETATM   18  C4  UNL     1       4.252 -18.170   9.176  1.00  0.00     0.016 C 
ATOM     19  H1  UNL     1       3.278 -16.856  10.138  1.00  0.00     0.168 HD
HETATM   20  O2  UNL     1       4.645 -16.814  12.238  1.00  0.00    -0.272 OA
BRANCH  18  21
HETATM   21  C3  UNL     1       3.030 -18.385   8.348  1.00  0.00     0.081 C 
BRANCH  21  22
HETATM   22  C2  UNL     1       2.771 -17.254   7.439  1.00  0.00    -0.031 C 
HETATM   23  C1  UNL     1       3.501 -17.029   6.356  1.00  0.00     0.007 C 
ENDBRANCH  21  22
ENDBRANCH  18  21
BRANCH  18  24
HETATM   24  C5  UNL     1       5.467 -18.951   8.919  1.00  0.00     0.219 C 
BRANCH  24  25
HETATM   25  O1  UNL     1       6.323 -18.538   7.966  1.00  0.00    -0.390 OA
HETATM   26  C6  UNL     1       7.663 -18.685   8.157  1.00  0.00     0.201 C 
ENDBRANCH  24  25
ENDBRANCH  18  24
ENDBRANCH  11  16
ENDBRANCH   6   9
ENDBRANCH   1   5
BRANCH   4  27
HETATM   27  C15 UNL     1      13.177 -13.549  14.862  1.00  0.00     0.028 C 
HETATM   28  C16 UNL     1      14.215 -12.780  14.115  1.00  0.00     0.017 C 
HETATM   29  C17 UNL     1      15.622 -13.225  14.378  1.00  0.00     0.020 C 
HETATM   30  C21 UNL     1      15.870 -13.703  15.765  1.00  0.00     0.081 C 
HETATM   31  S2  UNL     1      14.739 -12.898  16.940  1.00  0.00    -0.159 SA
HETATM   32  C22 UNL     1      13.066 -13.246  16.313  1.00  0.00     0.008 C 
HETATM   33  C23 UNL     1      12.584 -14.501  17.033  1.00  0.00     0.027 C 
HETATM   34  C24 UNL     1      12.108 -12.138  16.642  1.00  0.00     0.027 C 
BRANCH  29  35
HETATM   35  C18 UNL     1      16.550 -12.112  13.952  1.00  0.00     0.106 C 
HETATM   36  C19 UNL     1      17.150 -12.314  12.606  1.00  0.00     0.147 C 
HETATM   37  N4  UNL     1      17.495 -10.947  12.213  1.00  0.00    -0.365 N 
HETATM   38  C20 UNL     1      16.410 -10.161  12.697  1.00  0.00     0.168 C 
ATOM     39  H4  UNL     1      18.323 -10.630  11.708  1.00  0.00     0.161 HD
HETATM   40  S1  UNL     1      15.916  -8.702  12.107  1.00  0.00    -0.041 SA
HETATM   41  N5  UNL     1      15.816 -10.855  13.788  1.00  0.00    -0.361 N 
ATOM     42  H5  UNL     1      15.027 -10.536  14.351  1.00  0.00     0.162 HD
ENDBRANCH  29  35
ENDBRANCH   4  27
TORSDOF 9
ENDMDL
MODEL 3
REMARK VINA RESULT: -7.355993937      2.913     10.954
REMARK  9 active torsions:
REMARK  status: ('A' for Active; 'I' for Inactive)
REMARK    1  A    between atoms: C2_2  and  C3_3 
REMARK    2  A    between atoms: C3_3  and  C4_4 
REMARK    3  A    between atoms: C4_4  and  C5_5 
REMARK    4  A    between atoms: C5_5  and  O1_6 
REMARK       I    between atoms: N1_8  and  C7_10 
REMARK    5  A    between atoms: C7_10  and  C8_12 
REMARK    6  A    between atoms: C10_14  and  N2_15 
REMARK       I    between atoms: N2_15  and  C11_17 
REMARK    7  A    between atoms: C11_17  and  C12_19 
REMARK    8  A    between atoms: C14_22  and  C15_23 
REMARK    9  A    between atoms: C17_25  and  C18_26 
ROOT
HETATM    1  C12 UNL     1      11.233 -14.006  13.638  1.00  0.00     0.108 C 
HETATM    2  C13 UNL     1      11.759 -15.360  13.608  1.00  0.00     0.104 C 
HETATM    3  N3  UNL     1      12.165 -16.452  13.571  1.00  0.00    -0.191 NA
HETATM    4  C14 UNL     1      12.015 -13.097  14.159  1.00  0.00     0.008 C 
ENDROOT
BRANCH   1   5
HETATM    5  C11 UNL     1       9.930 -13.690  13.121  1.00  0.00     0.262 C 
HETATM    6  N2  UNL     1       9.307 -14.450  12.132  1.00  0.00    -0.350 N 
ATOM      7  H2  UNL     1       9.801 -15.264  11.765  1.00  0.00     0.163 HD
HETATM    8  O3  UNL     1       9.330 -12.684  13.581  1.00  0.00    -0.267 OA
BRANCH   6   9
HETATM    9  C10 UNL     1       7.982 -14.144  11.592  1.00  0.00     0.104 C 
HETATM   10  C9  UNL     1       6.982 -14.987  12.242  1.00  0.00     0.051 C 
HETATM   11  C8  UNL     1       6.287 -15.927  11.314  1.00  0.00     0.142 C 
HETATM   12  S3  UNL     1       6.373 -14.951   9.755  1.00  0.00    -0.143 SA
HETATM   13  C25 UNL     1       7.951 -14.131  10.118  1.00  0.00     0.022 C 
HETATM   14  C26 UNL     1       7.944 -12.738   9.529  1.00  0.00     0.029 C 
HETATM   15  C27 UNL     1       9.026 -14.991   9.482  1.00  0.00     0.029 C 
BRANCH  11  16
HETATM   16  C7  UNL     1       4.918 -16.208  11.721  1.00  0.00     0.235 C 
HETATM   17  N1  UNL     1       4.300 -17.434  11.882  1.00  0.00    -0.331 N 
HETATM   18  C4  UNL     1       4.596 -18.485  12.492  1.00  0.00     0.016 C 
ATOM     19  H1  UNL     1       3.406 -17.496  11.395  1.00  0.00     0.168 HD
HETATM   20  O2  UNL     1       4.180 -15.180  11.963  1.00  0.00    -0.272 OA
BRANCH  18  21
HETATM   21  C3  UNL     1       3.631 -19.620  12.415  1.00  0.00     0.081 C 
BRANCH  21  22
HETATM   22  C2  UNL     1       2.282 -19.230  12.863  1.00  0.00    -0.031 C 
HETATM   23  C1  UNL     1       1.978 -19.060  14.141  1.00  0.00     0.007 C 
ENDBRANCH  21  22
ENDBRANCH  18  21
BRANCH  18  24
HETATM   24  C5  UNL     1       5.837 -18.619  13.264  1.00  0.00     0.219 C 
BRANCH  24  25
HETATM   25  O1  UNL     1       5.918 -18.046  14.479  1.00  0.00    -0.390 OA
HETATM   26  C6  UNL     1       5.385 -18.681  15.558  1.00  0.00     0.201 C 
ENDBRANCH  24  25
ENDBRANCH  18  24
ENDBRANCH  11  16
ENDBRANCH   6   9
ENDBRANCH   1   5
BRANCH   4  27
HETATM   27  C15 UNL     1      13.384 -13.441  14.698  1.00  0.00     0.028 C 
HETATM   28  C16 UNL     1      14.371 -12.616  13.942  1.00  0.00     0.017 C 
HETATM   29  C17 UNL     1      15.793 -13.068  14.087  1.00  0.00     0.020 C 
HETATM   30  C21 UNL     1      16.128 -13.636  15.420  1.00  0.00     0.081 C 
HETATM   31  S2  UNL     1      15.070 -12.919  16.715  1.00  0.00    -0.159 SA
HETATM   32  C22 UNL     1      13.362 -13.237  16.170  1.00  0.00     0.008 C 
HETATM   33  C23 UNL     1      12.929 -14.541  16.832  1.00  0.00     0.027 C 
HETATM   34  C24 UNL     1      12.423 -12.161  16.632  1.00  0.00     0.027 C 
BRANCH  29  35
HETATM   35  C18 UNL     1      16.689 -11.921  13.681  1.00  0.00     0.106 C 
HETATM   36  C19 UNL     1      17.333 -12.106  12.353  1.00  0.00     0.147 C 
HETATM   37  N4  UNL     1      17.636 -10.729  11.962  1.00  0.00    -0.365 N 
HETATM   38  C20 UNL     1      16.510  -9.983  12.412  1.00  0.00     0.168 C 
ATOM     39  H4  UNL     1      18.465 -10.383  11.478  1.00  0.00     0.161 HD
HETATM   40  S1  UNL     1      15.976  -8.547  11.801  1.00  0.00    -0.041 SA
HETATM   41  N5  UNL     1      15.912 -10.694  13.490  1.00  0.00    -0.361 N 
ATOM     42  H5  UNL     1      15.096 -10.404  14.029  1.00  0.00     0.162 HD
ENDBRANCH  29  35
ENDBRANCH   4  27
TORSDOF 9
ENDMDL
MODEL 4
REMARK VINA RESULT: -7.258403990      4.002      9.728
REMARK  9 active torsions:
REMARK  status: ('A' for Active; 'I' for Inactive)
REMARK    1  A    between atoms: C2_2  and  C3_3 
REMARK    2  A    between atoms: C3_3  and  C4_4 
REMARK    3  A    between atoms: C4_4  and  C5_5 
REMARK    4  A    between atoms: C5_5  and  O1_6 
REMARK       I    between atoms: N1_8  and  C7_10 
REMARK    5  A    between atoms: C7_10  and  C8_12 
REMARK    6  A    between atoms: C10_14  and  N2_15 
REMARK       I    between atoms: N2_15  and  C11_17 
REMARK    7  A    between atoms: C11_17  and  C12_19 
REMARK    8  A    between atoms: C14_22  and  C15_23 
REMARK    9  A    between atoms: C17_25  and  C18_26 
ROOT
HETATM    1  C12 UNL     1      11.445 -16.398  12.659  1.00  0.00     0.108 C 
HETATM    2  C13 UNL     1      11.896 -17.235  13.757  1.00  0.00     0.104 C 
HETATM    3  N3  UNL     1      12.267 -17.922  14.624  1.00  0.00    -0.191 NA
HETATM    4  C14 UNL     1      11.050 -15.193  12.980  1.00  0.00     0.008 C 
ENDROOT
BRANCH   1   5
HETATM    5  C11 UNL     1      11.438 -16.870  11.302  1.00  0.00     0.262 C 
HETATM    6  N2  UNL     1      11.257 -18.212  10.971  1.00  0.00    -0.350 N 
ATOM      7  H2  UNL     1      11.124 -18.882  11.729  1.00  0.00     0.163 HD
HETATM    8  O3  UNL     1      11.604 -16.034  10.376  1.00  0.00    -0.267 OA
BRANCH   6   9
HETATM    9  C10 UNL     1      11.249 -18.712   9.596  1.00  0.00     0.104 C 
HETATM   10  C9  UNL     1      10.003 -18.322   8.942  1.00  0.00     0.051 C 
HETATM   11  C8  UNL     1       9.143 -19.474   8.542  1.00  0.00     0.142 C 
HETATM   12  S3  UNL     1      10.439 -20.748   8.249  1.00  0.00    -0.143 SA
HETATM   13  C25 UNL     1      11.604 -20.140   9.502  1.00  0.00     0.022 C 
HETATM   14  C26 UNL     1      13.021 -20.376   9.031  1.00  0.00     0.029 C 
HETATM   15  C27 UNL     1      11.307 -20.923  10.766  1.00  0.00     0.029 C 
BRANCH  11  16
HETATM   16  C7  UNL     1       8.355 -19.198   7.349  1.00  0.00     0.235 C 
HETATM   17  N1  UNL     1       7.008 -18.897   7.256  1.00  0.00    -0.331 N 
HETATM   18  C4  UNL     1       6.257 -18.076   7.827  1.00  0.00     0.016 C 
ATOM     19  H1  UNL     1       6.519 -19.473   6.570  1.00  0.00     0.168 HD
HETATM   20  O2  UNL     1       8.991 -19.238   6.231  1.00  0.00    -0.272 OA
BRANCH  18  21
HETATM   21  C3  UNL     1       4.819 -18.069   7.430  1.00  0.00     0.081 C 
BRANCH  21  22
HETATM   22  C2  UNL     1       4.619 -17.499   6.085  1.00  0.00    -0.031 C 
HETATM   23  C1  UNL     1       4.493 -16.197   5.874  1.00  0.00     0.007 C 
ENDBRANCH  21  22
ENDBRANCH  18  21
BRANCH  18  24
HETATM   24  C5  UNL     1       6.749 -17.143   8.847  1.00  0.00     0.219 C 
BRANCH  24  25
HETATM   25  O1  UNL     1       6.431 -15.840   8.751  1.00  0.00    -0.390 OA
HETATM   26  C6  UNL     1       6.935 -14.957   9.657  1.00  0.00     0.201 C 
ENDBRANCH  24  25
ENDBRANCH  18  24
ENDBRANCH  11  16
ENDBRANCH   6   9
ENDBRANCH   1   5
BRANCH   4  27
HETATM   27  C15 UNL     1      11.063 -14.708  14.411  1.00  0.00     0.028 C 
HETATM   28  C16 UNL     1      12.169 -13.713  14.524  1.00  0.00     0.017 C 
HETATM   29  C17 UNL     1      12.562 -13.384  15.933  1.00  0.00     0.020 C 
HETATM   30  C21 UNL     1      11.438 -13.398  16.907  1.00  0.00     0.081 C 
HETATM   31  S2  UNL     1       9.865 -12.995  16.089  1.00  0.00    -0.159 SA
HETATM   32  C22 UNL     1       9.703 -14.205  14.738  1.00  0.00     0.008 C 
HETATM   33  C23 UNL     1       8.878 -15.364  15.287  1.00  0.00     0.027 C 
HETATM   34  C24 UNL     1       8.956 -13.633  13.567  1.00  0.00     0.027 C 
BRANCH  29  35
HETATM   35  C18 UNL     1      13.322 -12.079  15.911  1.00  0.00     0.106 C 
HETATM   36  C19 UNL     1      14.561 -12.093  16.734  1.00  0.00     0.147 C 
HETATM   37  N4  UNL     1      15.351 -11.024  16.122  1.00  0.00    -0.365 N 
HETATM   38  C20 UNL     1      15.096 -11.157  14.727  1.00  0.00     0.168 C 
ATOM     39  H4  UNL     1      15.947 -10.340  16.588  1.00  0.00     0.161 HD
HETATM   40  S1  UNL     1      16.080 -10.665  13.498  1.00  0.00    -0.041 SA
HETATM   41  N5  UNL     1      13.834 -11.795  14.569  1.00  0.00    -0.361 N 
ATOM     42  H5  UNL     1      13.372 -12.013  13.685  1.00  0.00     0.162 HD
ENDBRANCH  29  35
ENDBRANCH   4  27
TORSDOF 9
ENDMDL
MODEL 5
REMARK VINA RESULT: -7.197689233      3.805      5.679
REMARK  9 active torsions:
REMARK  status: ('A' for Active; 'I' for Inactive)
REMARK    1  A    between atoms: C2_2  and  C3_3 
REMARK    2  A    between atoms: C3_3  and  C4_4 
REMARK    3  A    between atoms: C4_4  and  C5_5 
REMARK    4  A    between atoms: C5_5  and  O1_6 
REMARK       I    between atoms: N1_8  and  C7_10 
REMARK    5  A    between atoms: C7_10  and  C8_12 
REMARK    6  A    between atoms: C10_14  and  N2_15 
REMARK       I    between atoms: N2_15  and  C11_17 
REMARK    7  A    between atoms: C11_17  and  C12_19 
REMARK    8  A    between atoms: C14_22  and  C15_23 
REMARK    9  A    between atoms: C17_25  and  C18_26 
ROOT
HETATM    1  C12 UNL     1       7.281 -15.640  11.150  1.00  0.00     0.108 C 
HETATM    2  C13 UNL     1       5.956 -16.005  11.620  1.00  0.00     0.104 C 
HETATM    3  N3  UNL     1       4.892 -16.280  12.010  1.00  0.00    -0.191 NA
HETATM    4  C14 UNL     1       7.718 -16.289  10.102  1.00  0.00     0.008 C 
ENDROOT
BRANCH   1   5
HETATM    5  C11 UNL     1       8.060 -14.623  11.801  1.00  0.00     0.262 C 
HETATM    6  N2  UNL     1       8.681 -14.822  13.033  1.00  0.00    -0.350 N 
ATOM      7  H2  UNL     1       8.576 -15.730  13.486  1.00  0.00     0.163 HD
HETATM    8  O3  UNL     1       8.183 -13.507  11.233  1.00  0.00    -0.267 OA
BRANCH   6   9
HETATM    9  C10 UNL     1       9.477 -13.799  13.712  1.00  0.00     0.104 C 
HETATM   10  C9  UNL     1      10.886 -13.967  13.368  1.00  0.00     0.051 C 
HETATM   11  C8  UNL     1      11.756 -14.308  14.532  1.00  0.00     0.142 C 
HETATM   12  S3  UNL     1      10.822 -13.472  15.880  1.00  0.00    -0.143 SA
HETATM   13  C25 UNL     1       9.174 -13.698  15.152  1.00  0.00     0.022 C 
HETATM   14  C26 UNL     1       8.301 -12.514  15.501  1.00  0.00     0.029 C 
HETATM   15  C27 UNL     1       8.625 -14.980  15.747  1.00  0.00     0.029 C 
BRANCH  11  16
HETATM   16  C7  UNL     1      13.110 -13.792  14.389  1.00  0.00     0.235 C 
HETATM   17  N1  UNL     1      14.250 -14.157  15.082  1.00  0.00    -0.331 N 
HETATM   18  C4  UNL     1      14.796 -15.252  15.344  1.00  0.00     0.016 C 
ATOM     19  H1  UNL     1      14.756 -13.358  15.464  1.00  0.00     0.168 HD
HETATM   20  O2  UNL     1      13.273 -12.872  13.503  1.00  0.00    -0.272 OA
BRANCH  18  21
HETATM   21  C3  UNL     1      16.055 -15.217  16.144  1.00  0.00     0.081 C 
BRANCH  21  22
HETATM   22  C2  UNL     1      16.667 -16.552  16.272  1.00  0.00    -0.031 C 
HETATM   23  C1  UNL     1      17.730 -16.778  17.030  1.00  0.00     0.007 C 
ENDBRANCH  21  22
ENDBRANCH  18  21
BRANCH  18  24
HETATM   24  C5  UNL     1      14.242 -16.532  14.891  1.00  0.00     0.219 C 
BRANCH  24  25
HETATM   25  O1  UNL     1      14.435 -16.914  13.615  1.00  0.00    -0.390 OA
HETATM   26  C6  UNL     1      13.388 -17.402  12.894  1.00  0.00     0.201 C 
ENDBRANCH  24  25
ENDBRANCH  18  24
ENDBRANCH  11  16
ENDBRANCH   6   9
ENDBRANCH   1   5
BRANCH   4  27
HETATM   27  C15 UNL     1       6.889 -17.356   9.426  1.00  0.00     0.028 C 
HETATM   28  C16 UNL     1       6.297 -16.738   8.203  1.00  0.00     0.017 C 
HETATM   29  C17 UNL     1       5.175 -17.525   7.596  1.00  0.00     0.020 C 
HETATM   30  C21 UNL     1       5.316 -19.000   7.720  1.00  0.00     0.081 C 
HETATM   31  S2  UNL     1       7.069 -19.479   7.800  1.00  0.00    -0.159 SA
HETATM   32  C22 UNL     1       7.761 -18.538   9.197  1.00  0.00     0.008 C 
HETATM   33  C23 UNL     1       7.674 -19.446  10.419  1.00  0.00     0.027 C 
HETATM   34  C24 UNL     1       9.209 -18.207   8.980  1.00  0.00     0.027 C 
BRANCH  29  35
HETATM   35  C18 UNL     1       4.995 -17.056   6.171  1.00  0.00     0.106 C 
HETATM   36  C19 UNL     1       5.432 -18.050   5.154  1.00  0.00     0.147 C 
HETATM   37  N4  UNL     1       4.668 -17.641   3.975  1.00  0.00    -0.365 N 
HETATM   38  C20 UNL     1       3.398 -17.262   4.496  1.00  0.00     0.168 C 
ATOM     39  H4  UNL     1       4.975 -17.629   3.002  1.00  0.00     0.161 HD
HETATM   40  S1  UNL     1       1.963 -17.263   3.682  1.00  0.00    -0.041 SA
HETATM   41  N5  UNL     1       3.576 -16.879   5.855  1.00  0.00    -0.361 N 
ATOM     42  H5  UNL     1       2.851 -16.544   6.490  1.00  0.00     0.162 HD
ENDBRANCH  29  35
ENDBRANCH   4  27
TORSDOF 9
ENDMDL
