MODEL 1
REMARK VINA RESULT: -6.921185300      0.000      0.000
REMARK  12 active torsions:
REMARK  status: ('A' for Active; 'I' for Inactive)
REMARK    1  A    between atoms: C2_2  and  C3_3 
REMARK       I    between atoms: N1_4  and  C4_6 
REMARK    2  A    between atoms: C4_6  and  C5_8 
REMARK    3  A    between atoms: C9_12  and  C10_13 
REMARK       I    between atoms: C10_13  and  N2_15 
REMARK    4  A    between atoms: N2_15  and  C11_17 
REMARK    5  A    between atoms: C11_17  and  C12_18 
REMARK    6  A    between atoms: C11_17  and  C16_26 
REMARK    7  A    between atoms: C12_18  and  C13_19 
REMARK    8  A    between atoms: C13_19  and  C14_20 
REMARK    9  A    between atoms: C14_20  and  N3_21 
REMARK   10  A    between atoms: N7_29  and  C17_30 
REMARK   11  A    between atoms: C17_30  and  C18_34 
REMARK       I    between atoms: N9_39  and  C23_40 
REMARK       I    between atoms: C23_40  and  N10_42 
REMARK   12  A    between atoms: N10_42  and  C24_44 
ROOT
HETATM    1  C5  UNL     1      26.931  26.434   7.432  1.00  0.00     0.179 C 
HETATM    2  C6  UNL     1      25.645  27.139   7.139  1.00  0.00     0.040 C 
HETATM    3  C7  UNL     1      24.973  26.943   5.861  1.00  0.00    -0.001 C 
HETATM    4  C8  UNL     1      25.811  26.346   4.751  1.00  0.00     0.027 C 
HETATM    5  C9  UNL     1      26.899  25.481   5.192  1.00  0.00     0.183 C 
HETATM    6  N7  UNL     1      27.712  26.046   6.290  1.00  0.00    -0.342 N 
HETATM    7  C26 UNL     1      26.092  27.556   3.959  1.00  0.00     0.001 C 
HETATM    8  C27 UNL     1      26.114  28.744   4.936  1.00  0.00     0.011 C 
HETATM    9  C28 UNL     1      24.700  28.291   5.219  1.00  0.00    -0.001 C 
HETATM   10  C29 UNL     1      24.652  28.055   3.719  1.00  0.00    -0.040 C 
HETATM   11  C30 UNL     1      23.683  27.052   3.228  1.00  0.00     0.015 C 
HETATM   12  C31 UNL     1      24.707  29.325   2.914  1.00  0.00     0.015 C 
ENDROOT
BRANCH   5  13
HETATM   13  C10 UNL     1      26.386  24.160   5.640  1.00  0.00     0.241 C 
HETATM   14  O2  UNL     1      25.171  23.824   5.371  1.00  0.00    -0.271 OA
HETATM   15  N2  UNL     1      27.108  23.189   6.350  1.00  0.00    -0.346 N 
ATOM     16  H2  UNL     1      28.076  23.399   6.593  1.00  0.00     0.163 HD
BRANCH  15  17
HETATM   17  C11 UNL     1      26.565  21.902   6.762  1.00  0.00     0.173 C 
BRANCH  17  18
HETATM   18  C12 UNL     1      26.670  20.904   5.611  1.00  0.00     0.036 C 
BRANCH  18  19
HETATM   19  C13 UNL     1      25.375  20.224   5.307  1.00  0.00     0.022 C 
BRANCH  19  20
HETATM   20  C14 UNL     1      25.022  20.355   3.822  1.00  0.00     0.122 C 
BRANCH  20  21
HETATM   21  N3  UNL     1      24.833  21.723   3.441  1.00  0.00    -0.367 N 
HETATM   22  C15 UNL     1      25.183  22.146   2.295  1.00  0.00     0.196 C 
HETATM   23  N4  UNL     1      24.965  23.531   1.974  1.00  0.00    -0.067 NA
HETATM   24  N5  UNL     1      25.781  21.318   1.323  1.00  0.00    -0.067 NA
ATOM     25  H3  UNL     1      24.409  22.372   4.104  1.00  0.00     0.161 HD
ENDBRANCH  20  21
ENDBRANCH  19  20
ENDBRANCH  18  19
ENDBRANCH  17  18
BRANCH  17  26
HETATM   26  C16 UNL     1      27.302  21.400   7.925  1.00  0.00     0.254 C 
HETATM   27  N6  UNL     1      27.021  21.837   9.249  1.00  0.00    -0.060 NA
HETATM   28  O3  UNL     1      28.230  20.540   7.751  1.00  0.00    -0.275 OA
ENDBRANCH  17  26
ENDBRANCH  15  17
ENDBRANCH   5  13
BRANCH   6  29
HETATM   29  C17 UNL     1      29.120  26.151   6.156  1.00  0.00     0.098 C 
HETATM   30  N8  UNL     1      29.841  25.323   6.828  1.00  0.00    -0.387 N 
ATOM     31  H82 UNL     1      29.336  24.641   7.394  1.00  0.00     0.157 HD
ATOM     32  H81 UNL     1      30.853  25.399   6.731  1.00  0.00     0.157 HD
BRANCH  29  33
HETATM   33  C18 UNL     1      29.845  27.132   5.342  1.00  0.00     0.156 C 
HETATM   34  C19 UNL     1      30.451  28.279   6.105  1.00  0.00     0.033 C 
HETATM   35  C20 UNL     1      31.794  28.047   6.676  1.00  0.00     0.004 C 
HETATM   36  C21 UNL     1      32.555  26.857   6.251  1.00  0.00     0.020 C 
HETATM   37  C22 UNL     1      32.091  26.130   5.044  1.00  0.00     0.128 C 
HETATM   38  N9  UNL     1      30.863  26.611   4.479  1.00  0.00    -0.323 N 
HETATM   39  C23 UNL     1      30.653  26.586   3.084  1.00  0.00     0.319 C 
HETATM   40  O4  UNL     1      29.548  27.044   2.628  1.00  0.00    -0.247 OA
HETATM   41  N10 UNL     1      31.553  26.095   2.117  1.00  0.00    -0.343 N 
ATOM     42  H10 UNL     1      32.448  25.717   2.427  1.00  0.00     0.164 HD
BRANCH  41  43
HETATM   43  C24 UNL     1      31.253  26.107   0.694  1.00  0.00     0.120 C 
HETATM   44  C25 UNL     1      32.065  25.099  -0.062  1.00  0.00     0.026 C 
ENDBRANCH  41  43
ENDBRANCH  29  33
ENDBRANCH   6  29
BRANCH   1  45
HETATM   45  C4  UNL     1      27.629  27.242   8.449  1.00  0.00     0.244 C 
HETATM   46  N1  UNL     1      27.174  28.561   8.680  1.00  0.00    -0.339 N 
HETATM   47  C3  UNL     1      27.785  29.597   8.299  1.00  0.00     0.063 C 
ATOM     48  H1  UNL     1      26.297  28.682   9.187  1.00  0.00     0.167 HD
HETATM   49  O1  UNL     1      28.578  26.803   9.089  1.00  0.00    -0.271 OA
BRANCH  47  50
HETATM   50  C2  UNL     1      27.348  30.983   8.519  1.00  0.00     0.040 C 
HETATM   51  C1  UNL     1      25.867  31.167   8.408  1.00  0.00     0.010 C 
ENDBRANCH  47  50
ENDBRANCH   1  45
TORSDOF 12
ENDMDL
MODEL 2
REMARK VINA RESULT: -6.741011189      3.073      6.020
REMARK  12 active torsions:
REMARK  status: ('A' for Active; 'I' for Inactive)
REMARK    1  A    between atoms: C2_2  and  C3_3 
REMARK       I    between atoms: N1_4  and  C4_6 
REMARK    2  A    between atoms: C4_6  and  C5_8 
REMARK    3  A    between atoms: C9_12  and  C10_13 
REMARK       I    between atoms: C10_13  and  N2_15 
REMARK    4  A    between atoms: N2_15  and  C11_17 
REMARK    5  A    between atoms: C11_17  and  C12_18 
REMARK    6  A    between atoms: C11_17  and  C16_26 
REMARK    7  A    between atoms: C12_18  and  C13_19 
REMARK    8  A    between atoms: C13_19  and  C14_20 
REMARK    9  A    between atoms: C14_20  and  N3_21 
REMARK   10  A    between atoms: N7_29  and  C17_30 
REMARK   11  A    between atoms: C17_30  and  C18_34 
REMARK       I    between atoms: N9_39  and  C23_40 
REMARK       I    between atoms: C23_40  and  N10_42 
REMARK   12  A    between atoms: N10_42  and  C24_44 
ROOT
HETATM    1  C5  UNL     1      22.718  25.854   2.728  1.00  0.00     0.179 C 
HETATM    2  C6  UNL     1      22.297  26.147   1.324  1.00  0.00     0.040 C 
HETATM    3  C7  UNL     1      23.201  25.879   0.213  1.00  0.00    -0.001 C 
HETATM    4  C8  UNL     1      24.659  25.686   0.570  1.00  0.00     0.027 C 
HETATM    5  C9  UNL     1      24.905  25.165   1.910  1.00  0.00     0.183 C 
HETATM    6  N7  UNL     1      24.134  25.843   2.974  1.00  0.00    -0.342 N 
HETATM    7  C26 UNL     1      25.200  26.995   0.166  1.00  0.00     0.001 C 
HETATM    8  C27 UNL     1      24.075  28.028   0.347  1.00  0.00     0.011 C 
HETATM    9  C28 UNL     1      23.353  27.130  -0.632  1.00  0.00    -0.001 C 
HETATM   10  C29 UNL     1      24.716  27.040  -1.298  1.00  0.00    -0.040 C 
HETATM   11  C30 UNL     1      24.984  25.838  -2.116  1.00  0.00     0.015 C 
HETATM   12  C31 UNL     1      25.163  28.336  -1.916  1.00  0.00     0.015 C 
ENDROOT
BRANCH   5  13
HETATM   13  C10 UNL     1      24.599  23.712   1.985  1.00  0.00     0.241 C 
HETATM   14  O2  UNL     1      24.567  23.011   0.903  1.00  0.00    -0.271 OA
HETATM   15  N2  UNL     1      24.335  22.981   3.153  1.00  0.00    -0.346 N 
ATOM     16  H2  UNL     1      24.345  23.482   4.041  1.00  0.00     0.163 HD
BRANCH  15  17
HETATM   17  C11 UNL     1      24.048  21.553   3.179  1.00  0.00     0.173 C 
BRANCH  17  18
HETATM   18  C12 UNL     1      25.049  20.841   4.085  1.00  0.00     0.036 C 
BRANCH  18  19
HETATM   19  C13 UNL     1      26.323  21.601   4.261  1.00  0.00     0.022 C 
BRANCH  19  20
HETATM   20  C14 UNL     1      26.711  21.688   5.741  1.00  0.00     0.122 C 
BRANCH  20  21
HETATM   21  N3  UNL     1      26.047  22.774   6.399  1.00  0.00    -0.367 N 
HETATM   22  C15 UNL     1      26.700  23.732   6.918  1.00  0.00     0.196 C 
HETATM   23  N4  UNL     1      25.973  24.793   7.563  1.00  0.00    -0.067 NA
HETATM   24  N5  UNL     1      28.107  23.801   6.894  1.00  0.00    -0.067 NA
ATOM     25  H3  UNL     1      25.028  22.777   6.452  1.00  0.00     0.161 HD
ENDBRANCH  20  21
ENDBRANCH  19  20
ENDBRANCH  18  19
ENDBRANCH  17  18
BRANCH  17  26
HETATM   26  C16 UNL     1      22.685  21.329   3.668  1.00  0.00     0.254 C 
HETATM   27  N6  UNL     1      22.235  20.052   4.104  1.00  0.00    -0.060 NA
HETATM   28  O3  UNL     1      21.868  22.310   3.707  1.00  0.00    -0.275 OA
ENDBRANCH  17  26
ENDBRANCH  15  17
ENDBRANCH   5  13
BRANCH   6  29
HETATM   29  C17 UNL     1      24.800  26.396   4.097  1.00  0.00     0.098 C 
HETATM   30  N8  UNL     1      24.387  26.038   5.262  1.00  0.00    -0.387 N 
ATOM     31  H82 UNL     1      23.618  25.368   5.283  1.00  0.00     0.157 HD
ATOM     32  H81 UNL     1      24.866  26.436   6.070  1.00  0.00     0.157 HD
BRANCH  29  33
HETATM   33  C18 UNL     1      25.904  27.360   4.066  1.00  0.00     0.156 C 
HETATM   34  C19 UNL     1      25.532  28.749   3.622  1.00  0.00     0.033 C 
HETATM   35  C20 UNL     1      25.025  29.657   4.673  1.00  0.00     0.004 C 
HETATM   36  C21 UNL     1      25.165  29.261   6.087  1.00  0.00     0.020 C 
HETATM   37  C22 UNL     1      26.088  28.146   6.408  1.00  0.00     0.128 C 
HETATM   38  N9  UNL     1      26.667  27.489   5.272  1.00  0.00    -0.323 N 
HETATM   39  C23 UNL     1      27.982  26.979   5.326  1.00  0.00     0.319 C 
HETATM   40  O4  UNL     1      28.460  26.419   4.279  1.00  0.00    -0.247 OA
HETATM   41  N10 UNL     1      28.844  27.022   6.440  1.00  0.00    -0.343 N 
ATOM     42  H10 UNL     1      28.512  27.457   7.301  1.00  0.00     0.164 HD
BRANCH  41  43
HETATM   43  C24 UNL     1      30.189  26.469   6.408  1.00  0.00     0.120 C 
HETATM   44  C25 UNL     1      30.810  26.418   7.771  1.00  0.00     0.026 C 
ENDBRANCH  41  43
ENDBRANCH  29  33
ENDBRANCH   6  29
BRANCH   1  45
HETATM   45  C4  UNL     1      21.917  26.735   3.598  1.00  0.00     0.244 C 
HETATM   46  N1  UNL     1      20.891  26.151   4.376  1.00  0.00    -0.339 N 
HETATM   47  C3  UNL     1      19.660  26.272   4.128  1.00  0.00     0.063 C 
ATOM     48  H1  UNL     1      21.163  25.598   5.188  1.00  0.00     0.167 HD
HETATM   49  O1  UNL     1      22.119  27.943   3.661  1.00  0.00    -0.271 OA
BRANCH  47  50
HETATM   50  C2  UNL     1      18.563  25.682   4.910  1.00  0.00     0.040 C 
HETATM   51  C1  UNL     1      17.326  26.522   4.931  1.00  0.00     0.010 C 
ENDBRANCH  47  50
ENDBRANCH   1  45
TORSDOF 12
ENDMDL
MODEL 3
REMARK VINA RESULT: -6.655923475      4.105      7.941
REMARK  12 active torsions:
REMARK  status: ('A' for Active; 'I' for Inactive)
REMARK    1  A    between atoms: C2_2  and  C3_3 
REMARK       I    between atoms: N1_4  and  C4_6 
REMARK    2  A    between atoms: C4_6  and  C5_8 
REMARK    3  A    between atoms: C9_12  and  C10_13 
REMARK       I    between atoms: C10_13  and  N2_15 
REMARK    4  A    between atoms: N2_15  and  C11_17 
REMARK    5  A    between atoms: C11_17  and  C12_18 
REMARK    6  A    between atoms: C11_17  and  C16_26 
REMARK    7  A    between atoms: C12_18  and  C13_19 
REMARK    8  A    between atoms: C13_19  and  C14_20 
REMARK    9  A    between atoms: C14_20  and  N3_21 
REMARK   10  A    between atoms: N7_29  and  C17_30 
REMARK   11  A    between atoms: C17_30  and  C18_34 
REMARK       I    between atoms: N9_39  and  C23_40 
REMARK       I    between atoms: C23_40  and  N10_42 
REMARK   12  A    between atoms: N10_42  and  C24_44 
ROOT
HETATM    1  C5  UNL     1      24.405  26.203   1.857  1.00  0.00     0.179 C 
HETATM    2  C6  UNL     1      25.662  26.281   2.663  1.00  0.00     0.040 C 
HETATM    3  C7  UNL     1      25.701  25.753   4.020  1.00  0.00    -0.001 C 
HETATM    4  C8  UNL     1      24.361  25.510   4.680  1.00  0.00     0.027 C 
HETATM    5  C9  UNL     1      23.265  25.211   3.766  1.00  0.00     0.183 C 
HETATM    6  N7  UNL     1      23.180  26.124   2.605  1.00  0.00    -0.342 N 
HETATM    7  C26 UNL     1      24.295  26.681   5.570  1.00  0.00     0.001 C 
HETATM    8  C27 UNL     1      25.077  27.816   4.888  1.00  0.00     0.011 C 
HETATM    9  C28 UNL     1      26.213  26.822   4.967  1.00  0.00    -0.001 C 
HETATM   10  C29 UNL     1      25.625  26.510   6.333  1.00  0.00    -0.040 C 
HETATM   11  C30 UNL     1      25.895  25.166   6.888  1.00  0.00     0.015 C 
HETATM   12  C31 UNL     1      25.769  27.639   7.315  1.00  0.00     0.015 C 
ENDROOT
BRANCH   5  13
HETATM   13  C10 UNL     1      23.363  23.823   3.244  1.00  0.00     0.241 C 
HETATM   14  O2  UNL     1      23.003  23.570   2.032  1.00  0.00    -0.271 OA
HETATM   15  N2  UNL     1      23.831  22.705   3.950  1.00  0.00    -0.346 N 
ATOM     16  H2  UNL     1      24.130  22.842   4.916  1.00  0.00     0.163 HD
BRANCH  15  17
HETATM   17  C11 UNL     1      23.918  21.361   3.394  1.00  0.00     0.173 C 
BRANCH  17  18
HETATM   18  C12 UNL     1      25.375  20.904   3.370  1.00  0.00     0.036 C 
BRANCH  18  19
HETATM   19  C13 UNL     1      26.301  21.871   4.033  1.00  0.00     0.022 C 
BRANCH  19  20
HETATM   20  C14 UNL     1      26.938  21.252   5.282  1.00  0.00     0.122 C 
BRANCH  20  21
HETATM   21  N3  UNL     1      26.162  21.516   6.457  1.00  0.00    -0.367 N 
HETATM   22  C15 UNL     1      26.655  21.382   7.621  1.00  0.00     0.196 C 
HETATM   23  N4  UNL     1      25.823  21.665   8.760  1.00  0.00    -0.067 NA
HETATM   24  N5  UNL     1      27.982  20.964   7.846  1.00  0.00    -0.067 NA
ATOM     25  H3  UNL     1      25.192  21.818   6.358  1.00  0.00     0.161 HD
ENDBRANCH  20  21
ENDBRANCH  19  20
ENDBRANCH  18  19
ENDBRANCH  17  18
BRANCH  17  26
HETATM   26  C16 UNL     1      23.118  20.436   4.202  1.00  0.00     0.254 C 
HETATM   27  N6  UNL     1      23.636  19.799   5.364  1.00  0.00    -0.060 NA
HETATM   28  O3  UNL     1      21.913  20.189   3.857  1.00  0.00    -0.275 OA
ENDBRANCH  17  26
ENDBRANCH  15  17
ENDBRANCH   5  13
BRANCH   6  29
HETATM   29  C17 UNL     1      21.972  26.808   2.321  1.00  0.00     0.098 C 
HETATM   30  N8  UNL     1      21.614  26.886   1.087  1.00  0.00    -0.387 N 
ATOM     31  H82 UNL     1      22.226  26.431   0.409  1.00  0.00     0.157 HD
ATOM     32  H81 UNL     1      20.745  27.378   0.882  1.00  0.00     0.157 HD
BRANCH  29  33
HETATM   33  C18 UNL     1      21.093  27.463   3.295  1.00  0.00     0.156 C 
HETATM   34  C19 UNL     1      21.412  28.906   3.581  1.00  0.00     0.033 C 
HETATM   35  C20 UNL     1      20.816  29.900   2.664  1.00  0.00     0.004 C 
HETATM   36  C21 UNL     1      19.763  29.467   1.727  1.00  0.00     0.020 C 
HETATM   37  C22 UNL     1      19.120  28.152   1.965  1.00  0.00     0.128 C 
HETATM   38  N9  UNL     1      19.687  27.383   3.035  1.00  0.00    -0.323 N 
HETATM   39  C23 UNL     1      18.872  26.557   3.839  1.00  0.00     0.319 C 
HETATM   40  O4  UNL     1      19.422  25.906   4.793  1.00  0.00    -0.247 OA
HETATM   41  N10 UNL     1      17.483  26.369   3.696  1.00  0.00    -0.343 N 
ATOM     42  H10 UNL     1      16.995  26.864   2.950  1.00  0.00     0.164 HD
BRANCH  41  43
HETATM   43  C24 UNL     1      16.719  25.495   4.573  1.00  0.00     0.120 C 
HETATM   44  C25 UNL     1      15.706  24.686   3.820  1.00  0.00     0.026 C 
ENDBRANCH  41  43
ENDBRANCH  29  33
ENDBRANCH   6  29
BRANCH   1  45
HETATM   45  C4  UNL     1      24.482  27.283   0.856  1.00  0.00     0.244 C 
HETATM   46  N1  UNL     1      24.983  28.540   1.267  1.00  0.00    -0.339 N 
HETATM   47  C3  UNL     1      24.267  29.565   1.442  1.00  0.00     0.063 C 
ATOM     48  H1  UNL     1      25.986  28.623   1.434  1.00  0.00     0.167 HD
HETATM   49  O1  UNL     1      24.129  27.118  -0.306  1.00  0.00    -0.271 OA
BRANCH  47  50
HETATM   50  C2  UNL     1      24.747  30.887   1.868  1.00  0.00     0.040 C 
HETATM   51  C1  UNL     1      24.468  31.189   3.306  1.00  0.00     0.010 C 
ENDBRANCH  47  50
ENDBRANCH   1  45
TORSDOF 12
ENDMDL
MODEL 4
REMARK VINA RESULT: -6.609269852      2.975      6.894
REMARK  12 active torsions:
REMARK  status: ('A' for Active; 'I' for Inactive)
REMARK    1  A    between atoms: C2_2  and  C3_3 
REMARK       I    between atoms: N1_4  and  C4_6 
REMARK    2  A    between atoms: C4_6  and  C5_8 
REMARK    3  A    between atoms: C9_12  and  C10_13 
REMARK       I    between atoms: C10_13  and  N2_15 
REMARK    4  A    between atoms: N2_15  and  C11_17 
REMARK    5  A    between atoms: C11_17  and  C12_18 
REMARK    6  A    between atoms: C11_17  and  C16_26 
REMARK    7  A    between atoms: C12_18  and  C13_19 
REMARK    8  A    between atoms: C13_19  and  C14_20 
REMARK    9  A    between atoms: C14_20  and  N3_21 
REMARK   10  A    between atoms: N7_29  and  C17_30 
REMARK   11  A    between atoms: C17_30  and  C18_34 
REMARK       I    between atoms: N9_39  and  C23_40 
REMARK       I    between atoms: C23_40  and  N10_42 
REMARK   12  A    between atoms: N10_42  and  C24_44 
ROOT
HETATM    1  C5  UNL     1      26.215  26.674   3.342  1.00  0.00     0.179 C 
HETATM    2  C6  UNL     1      27.458  27.041   4.089  1.00  0.00     0.040 C 
HETATM    3  C7  UNL     1      27.636  26.620   5.473  1.00  0.00    -0.001 C 
HETATM    4  C8  UNL     1      26.387  26.173   6.201  1.00  0.00     0.027 C 
HETATM    5  C9  UNL     1      25.342  25.613   5.351  1.00  0.00     0.183 C 
HETATM    6  N7  UNL     1      25.051  26.415   4.143  1.00  0.00    -0.342 N 
HETATM    7  C26 UNL     1      26.124  27.367   7.022  1.00  0.00     0.001 C 
HETATM    8  C27 UNL     1      26.655  28.581   6.242  1.00  0.00     0.011 C 
HETATM    9  C28 UNL     1      27.962  27.826   6.333  1.00  0.00    -0.001 C 
HETATM   10  C29 UNL     1      27.484  27.500   7.738  1.00  0.00    -0.040 C 
HETATM   11  C30 UNL     1      28.022  26.271   8.360  1.00  0.00     0.015 C 
HETATM   12  C31 UNL     1      27.438  28.698   8.645  1.00  0.00     0.015 C 
ENDROOT
BRANCH   5  13
HETATM   13  C10 UNL     1      25.688  24.237   4.910  1.00  0.00     0.241 C 
HETATM   14  O2  UNL     1      26.832  23.734   5.229  1.00  0.00    -0.271 OA
HETATM   15  N2  UNL     1      24.873  23.380   4.156  1.00  0.00    -0.346 N 
ATOM     16  H2  UNL     1      23.955  23.722   3.872  1.00  0.00     0.163 HD
BRANCH  15  17
HETATM   17  C11 UNL     1      25.253  22.032   3.752  1.00  0.00     0.173 C 
BRANCH  17  18
HETATM   18  C12 UNL     1      24.235  21.027   4.286  1.00  0.00     0.036 C 
BRANCH  18  19
HETATM   19  C13 UNL     1      24.863  19.915   5.061  1.00  0.00     0.022 C 
BRANCH  19  20
HETATM   20  C14 UNL     1      26.153  20.382   5.743  1.00  0.00     0.122 C 
BRANCH  20  21
HETATM   21  N3  UNL     1      25.881  21.137   6.929  1.00  0.00    -0.367 N 
HETATM   22  C15 UNL     1      26.790  21.377   7.785  1.00  0.00     0.196 C 
HETATM   23  N4  UNL     1      26.451  22.143   8.955  1.00  0.00    -0.067 NA
HETATM   24  N5  UNL     1      28.115  20.922   7.642  1.00  0.00    -0.067 NA
ATOM     25  H3  UNL     1      24.937  21.490   7.091  1.00  0.00     0.161 HD
ENDBRANCH  20  21
ENDBRANCH  19  20
ENDBRANCH  18  19
ENDBRANCH  17  18
BRANCH  17  26
HETATM   26  C16 UNL     1      25.315  21.950   2.291  1.00  0.00     0.254 C 
HETATM   27  N6  UNL     1      24.937  23.034   1.451  1.00  0.00    -0.060 NA
HETATM   28  O3  UNL     1      25.724  20.870   1.744  1.00  0.00    -0.275 OA
ENDBRANCH  17  26
ENDBRANCH  15  17
ENDBRANCH   5  13
BRANCH   6  29
HETATM   29  C17 UNL     1      23.726  26.839   3.869  1.00  0.00     0.098 C 
HETATM   30  N8  UNL     1      23.306  27.893   4.474  1.00  0.00    -0.387 N 
ATOM     31  H82 UNL     1      23.972  28.353   5.096  1.00  0.00     0.157 HD
ATOM     32  H81 UNL     1      22.354  28.199   4.277  1.00  0.00     0.157 HD
BRANCH  29  33
HETATM   33  C18 UNL     1      22.770  26.179   2.975  1.00  0.00     0.156 C 
HETATM   34  C19 UNL     1      21.710  25.357   3.661  1.00  0.00     0.033 C 
HETATM   35  C20 UNL     1      20.502  26.086   4.100  1.00  0.00     0.004 C 
HETATM   36  C21 UNL     1      20.284  27.463   3.619  1.00  0.00     0.020 C 
HETATM   37  C22 UNL     1      21.097  27.936   2.472  1.00  0.00     0.128 C 
HETATM   38  N9  UNL     1      22.105  27.019   2.024  1.00  0.00    -0.323 N 
HETATM   39  C23 UNL     1      22.442  26.930   0.656  1.00  0.00     0.319 C 
HETATM   40  O4  UNL     1      23.334  26.083   0.304  1.00  0.00    -0.247 OA
HETATM   41  N10 UNL     1      21.886  27.696  -0.388  1.00  0.00    -0.343 N 
ATOM     42  H10 UNL     1      21.170  28.388  -0.162  1.00  0.00     0.164 HD
BRANCH  41  43
HETATM   43  C24 UNL     1      22.293  27.539  -1.775  1.00  0.00     0.120 C 
HETATM   44  C25 UNL     1      22.917  28.786  -2.325  1.00  0.00     0.026 C 
ENDBRANCH  41  43
ENDBRANCH  29  33
ENDBRANCH   6  29
BRANCH   1  45
HETATM   45  C4  UNL     1      26.056  27.681   2.277  1.00  0.00     0.244 C 
HETATM   46  N1  UNL     1      26.161  27.253   0.933  1.00  0.00    -0.339 N 
HETATM   47  C3  UNL     1      27.151  27.493   0.189  1.00  0.00     0.063 C 
ATOM     48  H1  UNL     1      25.388  26.716   0.541  1.00  0.00     0.167 HD
HETATM   49  O1  UNL     1      25.836  28.861   2.525  1.00  0.00    -0.271 OA
BRANCH  47  50
HETATM   50  C2  UNL     1      27.300  27.067  -1.210  1.00  0.00     0.040 C 
HETATM   51  C1  UNL     1      26.008  26.683  -1.857  1.00  0.00     0.010 C 
ENDBRANCH  47  50
ENDBRANCH   1  45
TORSDOF 12
ENDMDL
MODEL 5
REMARK VINA RESULT: -6.573307112      2.841      6.678
REMARK  12 active torsions:
REMARK  status: ('A' for Active; 'I' for Inactive)
REMARK    1  A    between atoms: C2_2  and  C3_3 
REMARK       I    between atoms: N1_4  and  C4_6 
REMARK    2  A    between atoms: C4_6  and  C5_8 
REMARK    3  A    between atoms: C9_12  and  C10_13 
REMARK       I    between atoms: C10_13  and  N2_15 
REMARK    4  A    between atoms: N2_15  and  C11_17 
REMARK    5  A    between atoms: C11_17  and  C12_18 
REMARK    6  A    between atoms: C11_17  and  C16_26 
REMARK    7  A    between atoms: C12_18  and  C13_19 
REMARK    8  A    between atoms: C13_19  and  C14_20 
REMARK    9  A    between atoms: C14_20  and  N3_21 
REMARK   10  A    between atoms: N7_29  and  C17_30 
REMARK   11  A    between atoms: C17_30  and  C18_34 
REMARK       I    between atoms: N9_39  and  C23_40 
REMARK       I    between atoms: C23_40  and  N10_42 
REMARK   12  A    between atoms: N10_42  and  C24_44 
ROOT
HETATM    1  C5  UNL     1      26.315  26.584   3.373  1.00  0.00     0.179 C 
HETATM    2  C6  UNL     1      27.567  26.941   4.108  1.00  0.00     0.040 C 
HETATM    3  C7  UNL     1      27.757  26.517   5.489  1.00  0.00    -0.001 C 
HETATM    4  C8  UNL     1      26.513  26.076   6.229  1.00  0.00     0.027 C 
HETATM    5  C9  UNL     1      25.456  25.525   5.389  1.00  0.00     0.183 C 
HETATM    6  N7  UNL     1      25.157  26.330   4.186  1.00  0.00    -0.342 N 
HETATM    7  C26 UNL     1      26.266  27.271   7.054  1.00  0.00     0.001 C 
HETATM    8  C27 UNL     1      26.796  28.483   6.271  1.00  0.00     0.011 C 
HETATM    9  C28 UNL     1      28.100  27.721   6.347  1.00  0.00    -0.001 C 
HETATM   10  C29 UNL     1      27.634  27.394   7.756  1.00  0.00    -0.040 C 
HETATM   11  C30 UNL     1      28.170  26.161   8.371  1.00  0.00     0.015 C 
HETATM   12  C31 UNL     1      27.605  28.592   8.666  1.00  0.00     0.015 C 
ENDROOT
BRANCH   5  13
HETATM   13  C10 UNL     1      25.789  24.147   4.942  1.00  0.00     0.241 C 
HETATM   14  O2  UNL     1      26.960  23.665   5.184  1.00  0.00    -0.271 OA
HETATM   15  N2  UNL     1      24.935  23.268   4.260  1.00  0.00    -0.346 N 
ATOM     16  H2  UNL     1      23.994  23.594   4.039  1.00  0.00     0.163 HD
BRANCH  15  17
HETATM   17  C11 UNL     1      25.303  21.920   3.848  1.00  0.00     0.173 C 
BRANCH  17  18
HETATM   18  C12 UNL     1      24.709  20.902   4.818  1.00  0.00     0.036 C 
BRANCH  18  19
HETATM   19  C13 UNL     1      25.706  19.897   5.294  1.00  0.00     0.022 C 
BRANCH  19  20
HETATM   20  C14 UNL     1      25.693  19.793   6.823  1.00  0.00     0.122 C 
BRANCH  20  21
HETATM   21  N3  UNL     1      25.749  21.084   7.442  1.00  0.00    -0.367 N 
HETATM   22  C15 UNL     1      26.833  21.543   7.920  1.00  0.00     0.196 C 
HETATM   23  N4  UNL     1      26.822  22.847   8.527  1.00  0.00    -0.067 NA
HETATM   24  N5  UNL     1      28.048  20.829   7.886  1.00  0.00    -0.067 NA
ATOM     25  H3  UNL     1      24.900  21.647   7.500  1.00  0.00     0.161 HD
ENDBRANCH  20  21
ENDBRANCH  19  20
ENDBRANCH  18  19
ENDBRANCH  17  18
BRANCH  17  26
HETATM   26  C16 UNL     1      24.812  21.663   2.492  1.00  0.00     0.254 C 
HETATM   27  N6  UNL     1      25.683  21.581   1.371  1.00  0.00    -0.060 NA
HETATM   28  O3  UNL     1      23.558  21.505   2.303  1.00  0.00    -0.275 OA
ENDBRANCH  17  26
ENDBRANCH  15  17
ENDBRANCH   5  13
BRANCH   6  29
HETATM   29  C17 UNL     1      23.832  26.762   3.925  1.00  0.00     0.098 C 
HETATM   30  N8  UNL     1      23.424  27.816   4.541  1.00  0.00    -0.387 N 
ATOM     31  H82 UNL     1      24.097  28.268   5.159  1.00  0.00     0.157 HD
ATOM     32  H81 UNL     1      22.471  28.127   4.353  1.00  0.00     0.157 HD
BRANCH  29  33
HETATM   33  C18 UNL     1      22.865  26.112   3.036  1.00  0.00     0.156 C 
HETATM   34  C19 UNL     1      21.453  26.052   3.557  1.00  0.00     0.033 C 
HETATM   35  C20 UNL     1      20.609  27.236   3.293  1.00  0.00     0.004 C 
HETATM   36  C21 UNL     1      21.083  28.253   2.337  1.00  0.00     0.020 C 
HETATM   37  C22 UNL     1      22.212  27.894   1.444  1.00  0.00     0.128 C 
HETATM   38  N9  UNL     1      22.801  26.611   1.695  1.00  0.00    -0.323 N 
HETATM   39  C23 UNL     1      23.308  25.830   0.633  1.00  0.00     0.319 C 
HETATM   40  O4  UNL     1      23.807  24.684   0.907  1.00  0.00    -0.247 OA
HETATM   41  N10 UNL     1      23.326  26.192  -0.728  1.00  0.00    -0.343 N 
ATOM     42  H10 UNL     1      22.942  27.097  -1.001  1.00  0.00     0.164 HD
BRANCH  41  43
HETATM   43  C24 UNL     1      23.871  25.323  -1.760  1.00  0.00     0.120 C 
HETATM   44  C25 UNL     1      23.688  25.894  -3.134  1.00  0.00     0.026 C 
ENDBRANCH  41  43
ENDBRANCH  29  33
ENDBRANCH   6  29
BRANCH   1  45
HETATM   45  C4  UNL     1      26.151  27.593   2.311  1.00  0.00     0.244 C 
HETATM   46  N1  UNL     1      26.458  27.220   0.982  1.00  0.00    -0.339 N 
HETATM   47  C3  UNL     1      27.488  27.601   0.360  1.00  0.00     0.063 C 
ATOM     48  H1  UNL     1      25.807  26.603   0.496  1.00  0.00     0.167 HD
HETATM   49  O1  UNL     1      25.759  28.730   2.549  1.00  0.00    -0.271 OA
BRANCH  47  50
HETATM   50  C2  UNL     1      27.844  27.237  -1.019  1.00  0.00     0.040 C 
HETATM   51  C1  UNL     1      26.830  27.665  -2.031  1.00  0.00     0.010 C 
ENDBRANCH  47  50
ENDBRANCH   1  45
TORSDOF 12
ENDMDL
