MODEL 1
REMARK VINA RESULT: -9.484780143      0.000      0.000
REMARK  17 active torsions:
REMARK  status: ('A' for Active; 'I' for Inactive)
REMARK    1  A    between atoms: C6_6  and  S1_7 
REMARK    2  A    between atoms: S1_7  and  N1_10 
REMARK    3  A    between atoms: N1_10  and  C7_12 
REMARK    4  A    between atoms: C7_12  and  C8_13 
REMARK    5  A    between atoms: C7_12  and  C9_21 
REMARK    6  A    between atoms: N2_14  and  N3_16 
REMARK    7  A    between atoms: N3_16  and  N4_18 
REMARK    8  A    between atoms: C9_21  and  C10_22 
REMARK    9  A    between atoms: C15_32  and  C16_33 
REMARK   10  A    between atoms: C16_33  and  C17_34 
REMARK   11  A    between atoms: C17_34  and  N7_35 
REMARK   12  A    between atoms: N7_35  and  C18_37 
REMARK   13  A    between atoms: C20_41  and  C21_42 
REMARK   14  A    between atoms: C21_42  and  C22_43 
REMARK   15  A    between atoms: C23_44  and  C24_45 
REMARK   16  A    between atoms: C28_51  and  N10_52 
REMARK   17  A    between atoms: N10_52  and  C29_54 
ROOT
HETATM    1  C1  UNL     1      17.507  29.226  13.667  1.00  0.00     0.049 C 
HETATM    2  C2  UNL     1      17.644  30.550  14.359  1.00  0.00    -0.055 A 
HETATM    3  C3  UNL     1      16.507  31.079  14.953  1.00  0.00     0.015 A 
HETATM    4  C4  UNL     1      16.493  32.318  15.590  1.00  0.00    -0.038 A 
HETATM    5  C5  UNL     1      15.260  32.856  16.203  1.00  0.00     0.050 C 
HETATM    6  C6  UNL     1      17.640  33.036  15.629  1.00  0.00     0.086 A 
HETATM    7  C14 UNL     1      18.786  32.536  15.046  1.00  0.00     0.033 A 
HETATM    8  C15 UNL     1      18.796  31.283  14.405  1.00  0.00    -0.046 A 
ENDROOT
BRANCH   6   9
HETATM    9  S1  UNL     1      17.738  34.576  16.403  1.00  0.00     0.260 S 
HETATM   10  O1  UNL     1      17.314  34.348  17.858  1.00  0.00    -0.200 OA
HETATM   11  O2  UNL     1      16.720  35.523  15.856  1.00  0.00    -0.200 OA
BRANCH   9  12
HETATM   12  N1  UNL     1      19.297  35.242  16.466  1.00  0.00    -0.305 N 
ATOM     13  H1  UNL     1      19.945  35.307  15.681  1.00  0.00     0.173 HD
BRANCH  12  14
HETATM   14  C7  UNL     1      19.562  35.709  17.828  1.00  0.00     0.138 C 
BRANCH  14  15
HETATM   15  C8  UNL     1      19.616  37.211  17.837  1.00  0.00     0.107 C 
HETATM   16  N2  UNL     1      18.589  37.855  18.212  1.00  0.00    -0.300 N 
ATOM     17  H2  UNL     1      18.652  38.873  18.210  1.00  0.00     0.187 HD
BRANCH  16  18
HETATM   18  N3  UNL     1      17.384  37.292  18.625  1.00  0.00    -0.250 N 
ATOM     19  H3  UNL     1      17.334  36.747  19.485  1.00  0.00     0.207 HD
BRANCH  18  20
HETATM   20  N4  UNL     1      16.334  37.473  17.903  1.00  0.00    -0.331 N 
ATOM     21  H42 UNL     1      16.173  38.380  17.466  1.00  0.00     0.178 HD
ATOM     22  H41 UNL     1      15.681  36.699  17.781  1.00  0.00     0.178 HD
ENDBRANCH  18  20
ENDBRANCH  16  18
ENDBRANCH  14  15
BRANCH  14  23
HETATM   23  C9  UNL     1      20.863  35.225  18.356  1.00  0.00     0.090 C 
BRANCH  23  24
HETATM   24  C10 UNL     1      21.758  34.601  17.371  1.00  0.00     0.038 A 
HETATM   25  N5  UNL     1      21.756  33.298  17.050  1.00  0.00    -0.310 N 
HETATM   26  C11 UNL     1      22.707  33.096  16.129  1.00  0.00     0.324 A 
ATOM     27  H5  UNL     1      21.137  32.586  17.439  1.00  0.00     0.170 HD
HETATM   28  O3  UNL     1      22.991  31.991  15.596  1.00  0.00    -0.247 OA
HETATM   29  N6  UNL     1      23.312  34.253  15.864  1.00  0.00    -0.311 N 
HETATM   30  C12 UNL     1      22.741  35.193  16.618  1.00  0.00     0.032 A 
ATOM     31  H6  UNL     1      24.075  34.395  15.202  1.00  0.00     0.170 HD
HETATM   32  C13 UNL     1      23.084  36.664  16.658  1.00  0.00     0.070 C 
ENDBRANCH  23  24
ENDBRANCH  14  23
ENDBRANCH  12  14
ENDBRANCH   9  12
ENDBRANCH   6   9
BRANCH   8  33
HETATM   33  C16 UNL     1      20.056  30.806  13.854  1.00  0.00     0.083 C 
BRANCH  33  34
HETATM   34  C17 UNL     1      20.772  29.739  14.619  1.00  0.00     0.067 C 
BRANCH  34  35
HETATM   35  N7  UNL     1      21.051  28.524  13.977  1.00  0.00    -0.353 N 
ATOM     36  H7  UNL     1      20.395  27.754  14.107  1.00  0.00     0.166 HD
BRANCH  35  37
HETATM   37  C18 UNL     1      22.078  28.319  13.237  1.00  0.00     0.149 A 
HETATM   38  N8  UNL     1      23.261  28.937  13.327  1.00  0.00    -0.347 N 
HETATM   39  C19 UNL     1      24.313  28.661  12.495  1.00  0.00     0.115 A 
ATOM     40  H8  UNL     1      23.385  29.648  14.048  1.00  0.00     0.167 HD
HETATM   41  C20 UNL     1      24.187  27.720  11.519  1.00  0.00     0.037 A 
HETATM   42  N9  UNL     1      23.022  27.075  11.391  1.00  0.00    -0.341 N 
HETATM   43  C28 UNL     1      22.002  27.354  12.210  1.00  0.00     0.146 A 
ATOM     44  H9  UNL     1      22.911  26.366  10.666  1.00  0.00     0.167 HD
BRANCH  41  45
HETATM   45  C21 UNL     1      25.304  27.378  10.580  1.00  0.00     0.152 C 
BRANCH  45  46
HETATM   46  C22 UNL     1      24.742  26.444   9.570  1.00  0.00    -0.100 C 
HETATM   47  C23 UNL     1      24.276  25.673   8.773  1.00  0.00    -0.097 C 
BRANCH  47  48
HETATM   48  C24 UNL     1      23.700  24.723   7.825  1.00  0.00     0.013 C 
HETATM   49  C25 UNL     1      24.051  25.124   6.386  1.00  0.00     0.028 C 
HETATM   50  C26 UNL     1      24.271  23.333   8.019  1.00  0.00     0.028 C 
HETATM   51  C27 UNL     1      22.200  24.719   7.925  1.00  0.00     0.028 C 
ENDBRANCH  47  48
ENDBRANCH  45  46
ENDBRANCH  41  45
BRANCH  43  52
HETATM   52  N10 UNL     1      20.904  26.730  12.077  1.00  0.00    -0.369 N 
ATOM     53  H10 UNL     1      20.512  26.321  12.926  1.00  0.00     0.161 HD
BRANCH  52  54
HETATM   54  C29 UNL     1      20.156  26.536  10.874  1.00  0.00     0.075 C 
HETATM   55  C30 UNL     1      19.315  25.272  11.078  1.00  0.00     0.031 C 
HETATM   56  C31 UNL     1      19.170  27.697  10.736  1.00  0.00     0.031 C 
ENDBRANCH  52  54
ENDBRANCH  43  52
ENDBRANCH  35  37
ENDBRANCH  34  35
ENDBRANCH  33  34
ENDBRANCH   8  33
TORSDOF 17
ENDMDL
MODEL 2
REMARK VINA RESULT: -9.152661863      2.238      3.738
REMARK  17 active torsions:
REMARK  status: ('A' for Active; 'I' for Inactive)
REMARK    1  A    between atoms: C6_6  and  S1_7 
REMARK    2  A    between atoms: S1_7  and  N1_10 
REMARK    3  A    between atoms: N1_10  and  C7_12 
REMARK    4  A    between atoms: C7_12  and  C8_13 
REMARK    5  A    between atoms: C7_12  and  C9_21 
REMARK    6  A    between atoms: N2_14  and  N3_16 
REMARK    7  A    between atoms: N3_16  and  N4_18 
REMARK    8  A    between atoms: C9_21  and  C10_22 
REMARK    9  A    between atoms: C15_32  and  C16_33 
REMARK   10  A    between atoms: C16_33  and  C17_34 
REMARK   11  A    between atoms: C17_34  and  N7_35 
REMARK   12  A    between atoms: N7_35  and  C18_37 
REMARK   13  A    between atoms: C20_41  and  C21_42 
REMARK   14  A    between atoms: C21_42  and  C22_43 
REMARK   15  A    between atoms: C23_44  and  C24_45 
REMARK   16  A    between atoms: C28_51  and  N10_52 
REMARK   17  A    between atoms: N10_52  and  C29_54 
ROOT
HETATM    1  C1  UNL     1      15.041  31.851  14.542  1.00  0.00     0.049 C 
HETATM    2  C2  UNL     1      16.014  32.709  15.296  1.00  0.00    -0.055 A 
HETATM    3  C3  UNL     1      15.583  33.968  15.688  1.00  0.00     0.015 A 
HETATM    4  C4  UNL     1      16.403  34.874  16.357  1.00  0.00    -0.038 A 
HETATM    5  C5  UNL     1      15.913  36.213  16.750  1.00  0.00     0.050 C 
HETATM    6  C6  UNL     1      17.675  34.509  16.636  1.00  0.00     0.086 A 
HETATM    7  C14 UNL     1      18.132  33.262  16.258  1.00  0.00     0.033 A 
HETATM    8  C15 UNL     1      17.300  32.350  15.583  1.00  0.00    -0.046 A 
ENDROOT
BRANCH   6   9
HETATM    9  S1  UNL     1      18.772  35.547  17.471  1.00  0.00     0.260 S 
HETATM   10  O1  UNL     1      19.183  34.797  18.743  1.00  0.00    -0.200 OA
HETATM   11  O2  UNL     1      18.083  36.778  17.964  1.00  0.00    -0.200 OA
BRANCH   9  12
HETATM   12  N1  UNL     1      20.211  35.881  16.637  1.00  0.00    -0.305 N 
ATOM     13  H1  UNL     1      20.352  35.774  15.632  1.00  0.00     0.173 HD
BRANCH  12  14
HETATM   14  C7  UNL     1      21.218  36.349  17.591  1.00  0.00     0.138 C 
BRANCH  14  15
HETATM   15  C8  UNL     1      21.924  37.547  17.021  1.00  0.00     0.107 C 
HETATM   16  N2  UNL     1      21.327  38.667  17.031  1.00  0.00    -0.300 N 
ATOM     17  H2  UNL     1      21.828  39.465  16.640  1.00  0.00     0.187 HD
BRANCH  16  18
HETATM   18  N3  UNL     1      20.049  38.901  17.531  1.00  0.00    -0.250 N 
ATOM     19  H3  UNL     1      19.856  38.807  18.528  1.00  0.00     0.207 HD
BRANCH  18  20
HETATM   20  N4  UNL     1      19.114  39.238  16.714  1.00  0.00    -0.331 N 
ATOM     21  H42 UNL     1      19.316  39.898  15.962  1.00  0.00     0.178 HD
ATOM     22  H41 UNL     1      18.185  38.836  16.835  1.00  0.00     0.178 HD
ENDBRANCH  18  20
ENDBRANCH  16  18
ENDBRANCH  14  15
BRANCH  14  23
HETATM   23  C9  UNL     1      22.259  35.327  17.872  1.00  0.00     0.090 C 
BRANCH  23  24
HETATM   24  C10 UNL     1      22.224  34.130  17.018  1.00  0.00     0.038 A 
HETATM   25  N5  UNL     1      21.507  33.025  17.276  1.00  0.00    -0.310 N 
HETATM   26  C11 UNL     1      21.730  32.148  16.289  1.00  0.00     0.324 A 
ATOM     27  H5  UNL     1      20.900  32.879  18.083  1.00  0.00     0.170 HD
HETATM   28  O3  UNL     1      21.222  30.999  16.199  1.00  0.00    -0.247 OA
HETATM   29  N6  UNL     1      22.577  32.683  15.411  1.00  0.00    -0.311 N 
HETATM   30  C12 UNL     1      22.893  33.905  15.842  1.00  0.00     0.032 A 
ATOM     31  H6  UNL     1      22.922  32.238  14.560  1.00  0.00     0.170 HD
HETATM   32  C13 UNL     1      23.815  34.898  15.174  1.00  0.00     0.070 C 
ENDBRANCH  23  24
ENDBRANCH  14  23
ENDBRANCH  12  14
ENDBRANCH   9  12
ENDBRANCH   6   9
BRANCH   8  33
HETATM   33  C16 UNL     1      17.843  31.039  15.258  1.00  0.00     0.083 C 
BRANCH  33  34
HETATM   34  C17 UNL     1      18.627  30.922  13.990  1.00  0.00     0.067 C 
BRANCH  34  35
HETATM   35  N7  UNL     1      19.428  29.789  13.797  1.00  0.00    -0.353 N 
ATOM     36  H7  UNL     1      20.324  29.749  14.283  1.00  0.00     0.166 HD
BRANCH  35  37
HETATM   37  C18 UNL     1      19.108  28.799  13.048  1.00  0.00     0.149 A 
HETATM   38  N8  UNL     1      17.903  28.556  12.520  1.00  0.00    -0.347 N 
HETATM   39  C19 UNL     1      17.640  27.471  11.727  1.00  0.00     0.115 A 
ATOM     40  H8  UNL     1      17.145  29.208  12.719  1.00  0.00     0.167 HD
HETATM   41  C20 UNL     1      18.625  26.576  11.439  1.00  0.00     0.037 A 
HETATM   42  N9  UNL     1      19.847  26.778  11.944  1.00  0.00    -0.341 N 
HETATM   43  C28 UNL     1      20.091  27.841  12.718  1.00  0.00     0.146 A 
ATOM     44  H9  UNL     1      20.597  26.118  11.738  1.00  0.00     0.167 HD
BRANCH  41  45
HETATM   45  C21 UNL     1      18.393  25.371  10.579  1.00  0.00     0.152 C 
BRANCH  45  46
HETATM   46  C22 UNL     1      18.417  25.842   9.169  1.00  0.00    -0.100 C 
HETATM   47  C23 UNL     1      18.435  26.198   8.020  1.00  0.00    -0.097 C 
BRANCH  47  48
HETATM   48  C24 UNL     1      18.457  26.604   6.618  1.00  0.00     0.013 C 
HETATM   49  C25 UNL     1      19.787  26.205   5.965  1.00  0.00     0.028 C 
HETATM   50  C26 UNL     1      17.376  25.902   5.821  1.00  0.00     0.028 C 
HETATM   51  C27 UNL     1      18.342  28.099   6.499  1.00  0.00     0.028 C 
ENDBRANCH  47  48
ENDBRANCH  45  46
ENDBRANCH  41  45
BRANCH  43  52
HETATM   52  N10 UNL     1      21.258  28.020  13.186  1.00  0.00    -0.369 N 
ATOM     53  H10 UNL     1      21.434  27.642  14.117  1.00  0.00     0.161 HD
BRANCH  52  54
HETATM   54  C29 UNL     1      22.352  28.691  12.556  1.00  0.00     0.075 C 
HETATM   55  C30 UNL     1      23.143  29.385  13.669  1.00  0.00     0.031 C 
HETATM   56  C31 UNL     1      23.280  27.631  11.959  1.00  0.00     0.031 C 
ENDBRANCH  52  54
ENDBRANCH  43  52
ENDBRANCH  35  37
ENDBRANCH  34  35
ENDBRANCH  33  34
ENDBRANCH   8  33
TORSDOF 17
ENDMDL
MODEL 3
REMARK VINA RESULT: -9.063538591      0.929      1.381
REMARK  17 active torsions:
REMARK  status: ('A' for Active; 'I' for Inactive)
REMARK    1  A    between atoms: C6_6  and  S1_7 
REMARK    2  A    between atoms: S1_7  and  N1_10 
REMARK    3  A    between atoms: N1_10  and  C7_12 
REMARK    4  A    between atoms: C7_12  and  C8_13 
REMARK    5  A    between atoms: C7_12  and  C9_21 
REMARK    6  A    between atoms: N2_14  and  N3_16 
REMARK    7  A    between atoms: N3_16  and  N4_18 
REMARK    8  A    between atoms: C9_21  and  C10_22 
REMARK    9  A    between atoms: C15_32  and  C16_33 
REMARK   10  A    between atoms: C16_33  and  C17_34 
REMARK   11  A    between atoms: C17_34  and  N7_35 
REMARK   12  A    between atoms: N7_35  and  C18_37 
REMARK   13  A    between atoms: C20_41  and  C21_42 
REMARK   14  A    between atoms: C21_42  and  C22_43 
REMARK   15  A    between atoms: C23_44  and  C24_45 
REMARK   16  A    between atoms: C28_51  and  N10_52 
REMARK   17  A    between atoms: N10_52  and  C29_54 
ROOT
HETATM    1  C1  UNL     1      17.965  28.945  13.223  1.00  0.00     0.049 C 
HETATM    2  C2  UNL     1      17.915  30.292  13.882  1.00  0.00    -0.055 A 
HETATM    3  C3  UNL     1      16.777  30.603  14.612  1.00  0.00     0.015 A 
HETATM    4  C4  UNL     1      16.591  31.835  15.236  1.00  0.00    -0.038 A 
HETATM    5  C5  UNL     1      15.360  32.136  15.997  1.00  0.00     0.050 C 
HETATM    6  C6  UNL     1      17.565  32.768  15.124  1.00  0.00     0.086 A 
HETATM    7  C14 UNL     1      18.708  32.487  14.404  1.00  0.00     0.033 A 
HETATM    8  C15 UNL     1      18.892  31.242  13.776  1.00  0.00    -0.046 A 
ENDROOT
BRANCH   6   9
HETATM    9  S1  UNL     1      17.444  34.321  15.868  1.00  0.00     0.260 S 
HETATM   10  O1  UNL     1      16.855  34.080  17.263  1.00  0.00    -0.200 OA
HETATM   11  O2  UNL     1      16.434  35.177  15.175  1.00  0.00    -0.200 OA
BRANCH   9  12
HETATM   12  N1  UNL     1      18.926  35.110  16.113  1.00  0.00    -0.305 N 
ATOM     13  H1  UNL     1      19.567  35.406  15.377  1.00  0.00     0.173 HD
BRANCH  12  14
HETATM   14  C7  UNL     1      19.135  35.297  17.550  1.00  0.00     0.138 C 
BRANCH  14  15
HETATM   15  C8  UNL     1      19.257  36.765  17.847  1.00  0.00     0.107 C 
HETATM   16  N2  UNL     1      18.228  37.393  18.244  1.00  0.00    -0.300 N 
ATOM     17  H2  UNL     1      18.337  38.388  18.440  1.00  0.00     0.187 HD
BRANCH  16  18
HETATM   18  N3  UNL     1      16.964  36.841  18.435  1.00  0.00    -0.250 N 
ATOM     19  H3  UNL     1      16.768  36.263  19.252  1.00  0.00     0.207 HD
BRANCH  18  20
HETATM   20  N4  UNL     1      16.046  37.073  17.564  1.00  0.00    -0.331 N 
ATOM     21  H42 UNL     1      15.974  38.000  17.143  1.00  0.00     0.178 HD
ATOM     22  H41 UNL     1      15.406  36.321  17.310  1.00  0.00     0.178 HD
ENDBRANCH  18  20
ENDBRANCH  16  18
ENDBRANCH  14  15
BRANCH  14  23
HETATM   23  C9  UNL     1      20.382  34.652  18.035  1.00  0.00     0.090 C 
BRANCH  23  24
HETATM   24  C10 UNL     1      21.383  34.341  17.004  1.00  0.00     0.038 A 
HETATM   25  N5  UNL     1      22.167  35.247  16.399  1.00  0.00    -0.310 N 
HETATM   26  C11 UNL     1      22.941  34.601  15.517  1.00  0.00     0.324 A 
ATOM     27  H5  UNL     1      22.173  36.251  16.580  1.00  0.00     0.170 HD
HETATM   28  O3  UNL     1      23.802  35.133  14.768  1.00  0.00    -0.247 OA
HETATM   29  N6  UNL     1      22.656  33.300  15.556  1.00  0.00    -0.311 N 
HETATM   30  C12 UNL     1      21.699  33.119  16.466  1.00  0.00     0.032 A 
ATOM     31  H6  UNL     1      23.093  32.572  14.990  1.00  0.00     0.170 HD
HETATM   32  C13 UNL     1      21.057  31.811  16.868  1.00  0.00     0.070 C 
ENDBRANCH  23  24
ENDBRANCH  14  23
ENDBRANCH  12  14
ENDBRANCH   9  12
ENDBRANCH   6   9
BRANCH   8  33
HETATM   33  C16 UNL     1      20.145  31.008  13.073  1.00  0.00     0.083 C 
BRANCH  33  34
HETATM   34  C17 UNL     1      21.255  30.378  13.853  1.00  0.00     0.067 C 
BRANCH  34  35
HETATM   35  N7  UNL     1      21.537  29.021  13.643  1.00  0.00    -0.353 N 
ATOM     36  H7  UNL     1      20.895  28.334  14.038  1.00  0.00     0.166 HD
BRANCH  35  37
HETATM   37  C18 UNL     1      22.550  28.588  12.988  1.00  0.00     0.149 A 
HETATM   38  N8  UNL     1      23.805  29.046  13.067  1.00  0.00    -0.347 N 
HETATM   39  C19 UNL     1      24.837  28.527  12.331  1.00  0.00     0.115 A 
ATOM     40  H8  UNL     1      24.002  29.816  13.706  1.00  0.00     0.167 HD
HETATM   41  C20 UNL     1      24.615  27.499  11.467  1.00  0.00     0.037 A 
HETATM   42  N9  UNL     1      23.375  27.008  11.354  1.00  0.00    -0.341 N 
HETATM   43  C28 UNL     1      22.376  27.522  12.079  1.00  0.00     0.146 A 
ATOM     44  H9  UNL     1      23.191  26.237  10.713  1.00  0.00     0.167 HD
BRANCH  41  45
HETATM   45  C21 UNL     1      25.705  26.895  10.635  1.00  0.00     0.152 C 
BRANCH  45  46
HETATM   46  C22 UNL     1      25.038  26.105   9.567  1.00  0.00    -0.100 C 
HETATM   47  C23 UNL     1      24.477  25.465   8.717  1.00  0.00    -0.097 C 
BRANCH  47  48
HETATM   48  C24 UNL     1      23.774  24.687   7.701  1.00  0.00     0.013 C 
HETATM   49  C25 UNL     1      24.168  23.207   7.792  1.00  0.00     0.028 C 
HETATM   50  C26 UNL     1      22.274  24.730   7.910  1.00  0.00     0.028 C 
HETATM   51  C27 UNL     1      24.150  25.156   6.322  1.00  0.00     0.028 C 
ENDBRANCH  47  48
ENDBRANCH  45  46
ENDBRANCH  41  45
BRANCH  43  52
HETATM   52  N10 UNL     1      21.206  27.042  11.963  1.00  0.00    -0.369 N 
ATOM     53  H10 UNL     1      20.612  27.095  12.791  1.00  0.00     0.161 HD
BRANCH  52  54
HETATM   54  C29 UNL     1      20.628  26.437  10.804  1.00  0.00     0.075 C 
HETATM   55  C30 UNL     1      20.204  25.022  11.211  1.00  0.00     0.031 C 
HETATM   56  C31 UNL     1      19.343  27.194  10.463  1.00  0.00     0.031 C 
ENDBRANCH  52  54
ENDBRANCH  43  52
ENDBRANCH  35  37
ENDBRANCH  34  35
ENDBRANCH  33  34
ENDBRANCH   8  33
TORSDOF 17
ENDMDL
MODEL 4
REMARK VINA RESULT: -9.048172170      1.232      1.433
REMARK  17 active torsions:
REMARK  status: ('A' for Active; 'I' for Inactive)
REMARK    1  A    between atoms: C6_6  and  S1_7 
REMARK    2  A    between atoms: S1_7  and  N1_10 
REMARK    3  A    between atoms: N1_10  and  C7_12 
REMARK    4  A    between atoms: C7_12  and  C8_13 
REMARK    5  A    between atoms: C7_12  and  C9_21 
REMARK    6  A    between atoms: N2_14  and  N3_16 
REMARK    7  A    between atoms: N3_16  and  N4_18 
REMARK    8  A    between atoms: C9_21  and  C10_22 
REMARK    9  A    between atoms: C15_32  and  C16_33 
REMARK   10  A    between atoms: C16_33  and  C17_34 
REMARK   11  A    between atoms: C17_34  and  N7_35 
REMARK   12  A    between atoms: N7_35  and  C18_37 
REMARK   13  A    between atoms: C20_41  and  C21_42 
REMARK   14  A    between atoms: C21_42  and  C22_43 
REMARK   15  A    between atoms: C23_44  and  C24_45 
REMARK   16  A    between atoms: C28_51  and  N10_52 
REMARK   17  A    between atoms: N10_52  and  C29_54 
ROOT
HETATM    1  C1  UNL     1      17.569  30.063  14.415  1.00  0.00     0.049 C 
HETATM    2  C2  UNL     1      17.734  31.293  15.258  1.00  0.00    -0.055 A 
HETATM    3  C3  UNL     1      16.681  32.196  15.282  1.00  0.00     0.015 A 
HETATM    4  C4  UNL     1      16.728  33.394  15.992  1.00  0.00    -0.038 A 
HETATM    5  C5  UNL     1      15.590  34.338  15.986  1.00  0.00     0.050 C 
HETATM    6  C6  UNL     1      17.849  33.687  16.689  1.00  0.00     0.086 A 
HETATM    7  C14 UNL     1      18.913  32.808  16.684  1.00  0.00     0.033 A 
HETATM    8  C15 UNL     1      18.862  31.599  15.966  1.00  0.00    -0.046 A 
ENDROOT
BRANCH   6   9
HETATM    9  S1  UNL     1      18.008  35.136  17.613  1.00  0.00     0.260 S 
HETATM   10  O1  UNL     1      18.994  34.814  18.742  1.00  0.00    -0.200 OA
HETATM   11  O2  UNL     1      16.732  35.476  18.312  1.00  0.00    -0.200 OA
BRANCH   9  12
HETATM   12  N1  UNL     1      18.672  36.450  16.770  1.00  0.00    -0.305 N 
ATOM     13  H1  UNL     1      18.578  36.618  15.768  1.00  0.00     0.173 HD
BRANCH  12  14
HETATM   14  C7  UNL     1      19.401  37.302  17.710  1.00  0.00     0.138 C 
BRANCH  14  15
HETATM   15  C8  UNL     1      18.951  38.726  17.543  1.00  0.00     0.107 C 
HETATM   16  N2  UNL     1      17.936  39.124  18.193  1.00  0.00    -0.300 N 
ATOM     17  H2  UNL     1      17.651  40.095  18.063  1.00  0.00     0.187 HD
BRANCH  16  18
HETATM   18  N3  UNL     1      17.179  38.350  19.070  1.00  0.00    -0.250 N 
ATOM     19  H3  UNL     1      17.225  37.332  19.034  1.00  0.00     0.207 HD
BRANCH  18  20
HETATM   20  N4  UNL     1      16.421  38.941  19.925  1.00  0.00    -0.331 N 
ATOM     21  H42 UNL     1      15.480  39.225  19.653  1.00  0.00     0.178 HD
ATOM     22  H41 UNL     1      16.780  39.115  20.864  1.00  0.00     0.178 HD
ENDBRANCH  18  20
ENDBRANCH  16  18
ENDBRANCH  14  15
BRANCH  14  23
HETATM   23  C9  UNL     1      20.869  37.283  17.481  1.00  0.00     0.090 C 
BRANCH  23  24
HETATM   24  C10 UNL     1      21.408  36.042  16.906  1.00  0.00     0.038 A 
HETATM   25  N5  UNL     1      21.209  35.631  15.644  1.00  0.00    -0.310 N 
HETATM   26  C11 UNL     1      21.841  34.461  15.485  1.00  0.00     0.324 A 
ATOM     27  H5  UNL     1      20.669  36.123  14.932  1.00  0.00     0.170 HD
HETATM   28  O3  UNL     1      21.871  33.781  14.425  1.00  0.00    -0.247 OA
HETATM   29  N6  UNL     1      22.437  34.127  16.628  1.00  0.00    -0.311 N 
HETATM   30  C12 UNL     1      22.184  35.088  17.517  1.00  0.00     0.032 A 
ATOM     31  H6  UNL     1      22.990  33.285  16.794  1.00  0.00     0.170 HD
HETATM   32  C13 UNL     1      22.657  35.154  18.950  1.00  0.00     0.070 C 
ENDBRANCH  23  24
ENDBRANCH  14  23
ENDBRANCH  12  14
ENDBRANCH   9  12
ENDBRANCH   6   9
BRANCH   8  33
HETATM   33  C16 UNL     1      20.009  30.705  16.048  1.00  0.00     0.083 C 
BRANCH  33  34
HETATM   34  C17 UNL     1      20.823  30.529  14.806  1.00  0.00     0.067 C 
BRANCH  34  35
HETATM   35  N7  UNL     1      21.103  29.228  14.366  1.00  0.00    -0.353 N 
ATOM     36  H7  UNL     1      20.451  28.486  14.622  1.00  0.00     0.166 HD
BRANCH  35  37
HETATM   37  C18 UNL     1      22.126  28.909  13.662  1.00  0.00     0.149 A 
HETATM   38  N8  UNL     1      23.364  29.400  13.789  1.00  0.00    -0.347 N 
HETATM   39  C19 UNL     1      24.408  29.007  12.994  1.00  0.00     0.115 A 
ATOM     40  H8  UNL     1      23.539  30.099  14.510  1.00  0.00     0.167 HD
HETATM   41  C20 UNL     1      24.217  28.076  12.020  1.00  0.00     0.037 A 
HETATM   42  N9  UNL     1      22.994  27.556  11.856  1.00  0.00    -0.341 N 
HETATM   43  C28 UNL     1      21.983  27.949  12.638  1.00  0.00     0.146 A 
ATOM     44  H9  UNL     1      22.833  26.858  11.131  1.00  0.00     0.167 HD
BRANCH  41  45
HETATM   45  C21 UNL     1      25.321  27.611  11.121  1.00  0.00     0.152 C 
BRANCH  45  46
HETATM   46  C22 UNL     1      24.714  26.657  10.156  1.00  0.00    -0.100 C 
HETATM   47  C23 UNL     1      24.218  25.906   9.359  1.00  0.00    -0.097 C 
BRANCH  47  48
HETATM   48  C24 UNL     1      23.610  25.014   8.374  1.00  0.00     0.013 C 
HETATM   49  C25 UNL     1      23.867  25.532   6.953  1.00  0.00     0.028 C 
HETATM   50  C26 UNL     1      24.225  23.630   8.429  1.00  0.00     0.028 C 
HETATM   51  C27 UNL     1      22.119  24.960   8.559  1.00  0.00     0.028 C 
ENDBRANCH  47  48
ENDBRANCH  45  46
ENDBRANCH  41  45
BRANCH  43  52
HETATM   52  N10 UNL     1      20.831  27.443  12.471  1.00  0.00    -0.369 N 
ATOM     53  H10 UNL     1      20.407  27.004  13.290  1.00  0.00     0.161 HD
BRANCH  52  54
HETATM   54  C29 UNL     1      20.059  27.418  11.267  1.00  0.00     0.075 C 
HETATM   55  C30 UNL     1      19.493  26.001  11.136  1.00  0.00     0.031 C 
HETATM   56  C31 UNL     1      18.860  28.350  11.452  1.00  0.00     0.031 C 
ENDBRANCH  52  54
ENDBRANCH  43  52
ENDBRANCH  35  37
ENDBRANCH  34  35
ENDBRANCH  33  34
ENDBRANCH   8  33
TORSDOF 17
ENDMDL
MODEL 5
REMARK VINA RESULT: -8.969181977      3.256     10.211
REMARK  17 active torsions:
REMARK  status: ('A' for Active; 'I' for Inactive)
REMARK    1  A    between atoms: C6_6  and  S1_7 
REMARK    2  A    between atoms: S1_7  and  N1_10 
REMARK    3  A    between atoms: N1_10  and  C7_12 
REMARK    4  A    between atoms: C7_12  and  C8_13 
REMARK    5  A    between atoms: C7_12  and  C9_21 
REMARK    6  A    between atoms: N2_14  and  N3_16 
REMARK    7  A    between atoms: N3_16  and  N4_18 
REMARK    8  A    between atoms: C9_21  and  C10_22 
REMARK    9  A    between atoms: C15_32  and  C16_33 
REMARK   10  A    between atoms: C16_33  and  C17_34 
REMARK   11  A    between atoms: C17_34  and  N7_35 
REMARK   12  A    between atoms: N7_35  and  C18_37 
REMARK   13  A    between atoms: C20_41  and  C21_42 
REMARK   14  A    between atoms: C21_42  and  C22_43 
REMARK   15  A    between atoms: C23_44  and  C24_45 
REMARK   16  A    between atoms: C28_51  and  N10_52 
REMARK   17  A    between atoms: N10_52  and  C29_54 
ROOT
HETATM    1  C1  UNL     1      15.713  28.916  11.335  1.00  0.00     0.049 C 
HETATM    2  C2  UNL     1      16.943  28.058  11.316  1.00  0.00    -0.055 A 
HETATM    3  C3  UNL     1      17.017  27.071  10.343  1.00  0.00     0.015 A 
HETATM    4  C4  UNL     1      18.086  26.183  10.246  1.00  0.00    -0.038 A 
HETATM    5  C5  UNL     1      18.127  25.136   9.203  1.00  0.00     0.050 C 
HETATM    6  C6  UNL     1      19.096  26.288  11.140  1.00  0.00     0.086 A 
HETATM    7  C14 UNL     1      19.050  27.260  12.119  1.00  0.00     0.033 A 
HETATM    8  C15 UNL     1      17.968  28.156  12.214  1.00  0.00    -0.046 A 
ENDROOT
BRANCH   6   9
HETATM    9  S1  UNL     1      20.473  25.250  11.103  1.00  0.00     0.260 S 
HETATM   10  O1  UNL     1      20.842  25.085   9.624  1.00  0.00    -0.200 OA
HETATM   11  O2  UNL     1      20.125  23.871  11.561  1.00  0.00    -0.200 OA
BRANCH   9  12
HETATM   12  N1  UNL     1      21.855  25.872  11.866  1.00  0.00    -0.305 N 
ATOM     13  H1  UNL     1      22.052  25.825  12.865  1.00  0.00     0.173 HD
BRANCH  12  14
HETATM   14  C7  UNL     1      22.720  26.489  10.858  1.00  0.00     0.138 C 
BRANCH  14  15
HETATM   15  C8  UNL     1      24.112  25.938  10.993  1.00  0.00     0.107 C 
HETATM   16  N2  UNL     1      24.491  25.035  10.185  1.00  0.00    -0.300 N 
ATOM     17  H2  UNL     1      25.440  24.679  10.297  1.00  0.00     0.187 HD
BRANCH  16  18
HETATM   18  N3  UNL     1      23.723  24.491   9.159  1.00  0.00    -0.250 N 
ATOM     19  H3  UNL     1      22.774  24.823   8.988  1.00  0.00     0.207 HD
BRANCH  18  20
HETATM   20  N4  UNL     1      24.230  23.560   8.430  1.00  0.00    -0.331 N 
ATOM     21  H42 UNL     1      24.248  22.601   8.777  1.00  0.00     0.178 HD
ATOM     22  H41 UNL     1      24.607  23.802   7.513  1.00  0.00     0.178 HD
ENDBRANCH  18  20
ENDBRANCH  16  18
ENDBRANCH  14  15
BRANCH  14  23
HETATM   23  C9  UNL     1      22.821  27.962  11.014  1.00  0.00     0.090 C 
BRANCH  23  24
HETATM   24  C10 UNL     1      22.791  28.460  12.397  1.00  0.00     0.038 A 
HETATM   25  N5  UNL     1      21.699  28.495  13.176  1.00  0.00    -0.310 N 
HETATM   26  C11 UNL     1      22.050  29.016  14.359  1.00  0.00     0.324 A 
ATOM     27  H5  UNL     1      20.765  28.178  12.914  1.00  0.00     0.170 HD
HETATM   28  O3  UNL     1      21.279  29.200  15.338  1.00  0.00    -0.247 OA
HETATM   29  N6  UNL     1      23.348  29.313  14.338  1.00  0.00    -0.311 N 
HETATM   30  C12 UNL     1      23.824  28.977  13.138  1.00  0.00     0.032 A 
ATOM     31  H6  UNL     1      23.884  29.724  15.103  1.00  0.00     0.170 HD
HETATM   32  C13 UNL     1      25.246  29.118  12.648  1.00  0.00     0.070 C 
ENDBRANCH  23  24
ENDBRANCH  14  23
ENDBRANCH  12  14
ENDBRANCH   9  12
ENDBRANCH   6   9
BRANCH   8  33
HETATM   33  C16 UNL     1      18.016  29.180  13.247  1.00  0.00     0.083 C 
BRANCH  33  34
HETATM   34  C17 UNL     1      18.886  30.368  12.987  1.00  0.00     0.067 C 
BRANCH  34  35
HETATM   35  N7  UNL     1      18.714  31.513  13.776  1.00  0.00    -0.353 N 
ATOM     36  H7  UNL     1      17.804  31.973  13.758  1.00  0.00     0.166 HD
BRANCH  35  37
HETATM   37  C18 UNL     1      19.627  32.020  14.521  1.00  0.00     0.149 A 
HETATM   38  N8  UNL     1      20.920  32.166  14.208  1.00  0.00    -0.347 N 
HETATM   39  C19 UNL     1      21.836  32.719  15.062  1.00  0.00     0.115 A 
ATOM     40  H8  UNL     1      21.237  31.850  13.292  1.00  0.00     0.167 HD
HETATM   41  C20 UNL     1      21.452  33.153  16.294  1.00  0.00     0.037 A 
HETATM   42  N9  UNL     1      20.169  33.027  16.651  1.00  0.00    -0.341 N 
HETATM   43  C28 UNL     1      19.283  32.485  15.808  1.00  0.00     0.146 A 
ATOM     44  H9  UNL     1      19.864  33.347  17.570  1.00  0.00     0.167 HD
BRANCH  41  45
HETATM   45  C21 UNL     1      22.412  33.763  17.269  1.00  0.00     0.152 C 
BRANCH  45  46
HETATM   46  C22 UNL     1      22.316  35.236  17.098  1.00  0.00    -0.100 C 
HETATM   47  C23 UNL     1      22.223  36.425  16.937  1.00  0.00    -0.097 C 
BRANCH  47  48
HETATM   48  C24 UNL     1      22.098  37.864  16.719  1.00  0.00     0.013 C 
HETATM   49  C25 UNL     1      22.224  38.192  15.226  1.00  0.00     0.028 C 
HETATM   50  C26 UNL     1      20.734  38.371  17.142  1.00  0.00     0.028 C 
HETATM   51  C27 UNL     1      23.202  38.604  17.424  1.00  0.00     0.028 C 
ENDBRANCH  47  48
ENDBRANCH  45  46
ENDBRANCH  41  45
BRANCH  43  52
HETATM   52  N10 UNL     1      18.068  32.377  16.161  1.00  0.00    -0.369 N 
ATOM     53  H10 UNL     1      17.833  31.562  16.726  1.00  0.00     0.161 HD
BRANCH  52  54
HETATM   54  C29 UNL     1      16.993  33.270  15.854  1.00  0.00     0.075 C 
HETATM   55  C30 UNL     1      15.759  32.400  15.596  1.00  0.00     0.031 C 
HETATM   56  C31 UNL     1      16.690  34.094  17.107  1.00  0.00     0.031 C 
ENDBRANCH  52  54
ENDBRANCH  43  52
ENDBRANCH  35  37
ENDBRANCH  34  35
ENDBRANCH  33  34
ENDBRANCH   8  33
TORSDOF 17
ENDMDL
