MODEL 1
REMARK VINA RESULT: -8.612957424      0.000      0.000
REMARK  14 active torsions:
REMARK  status: ('A' for Active; 'I' for Inactive)
REMARK    1  A    between atoms: C3_3  and  C4_4 
REMARK    2  A    between atoms: C5_5  and  C6_6 
REMARK    3  A    between atoms: C7_7  and  C8_8 
REMARK    4  A    between atoms: C10_12  and  C11_13 
REMARK    5  A    between atoms: C11_13  and  C12_14 
REMARK    6  A    between atoms: C12_14  and  N2_15 
REMARK    7  A    between atoms: C12_14  and  C28_47 
REMARK    8  A    between atoms: N2_15  and  C13_17 
REMARK    9  A    between atoms: C13_17  and  C15_25 
REMARK       I    between atoms: N3_18  and  C14_20 
REMARK   10  A    between atoms: C15_25  and  C16_26 
REMARK   11  A    between atoms: C15_25  and  C22_39 
REMARK   12  A    between atoms: C16_26  and  C17_27 
REMARK   13  A    between atoms: N6_30  and  S1_31 
REMARK   14  A    between atoms: S1_31  and  N7_32 
REMARK       I    between atoms: C22_39  and  N8_41 
ROOT
HETATM    1  C1  UNL     1      25.415  38.577   7.317  1.00  0.00     0.097 C 
HETATM    2  C2  UNL     1      25.008  39.621   7.809  1.00  0.00    -0.184 C 
HETATM    3  C3  UNL     1      24.539  40.869   8.402  1.00  0.00     0.107 C 
ENDROOT
BRANCH   3   4
HETATM    4  C4  UNL     1      24.207  40.637   9.828  1.00  0.00    -0.007 C 
HETATM    5  C5  UNL     1      22.956  40.479  10.230  1.00  0.00     0.061 C 
BRANCH   5   6
HETATM    6  C6  UNL     1      22.653  40.254  11.610  1.00  0.00    -0.073 C 
HETATM    7  C7  UNL     1      22.376  40.078  12.766  1.00  0.00    -0.061 C 
BRANCH   7   8
HETATM    8  C8  UNL     1      22.015  39.883  14.156  1.00  0.00     0.035 A 
HETATM    9  C9  UNL     1      21.214  40.751  14.866  1.00  0.00     0.108 A 
HETATM   10  N1  UNL     1      21.089  40.248  16.096  1.00  0.00    -0.368 N 
HETATM   11  C10 UNL     1      21.757  39.094  16.251  1.00  0.00     0.012 A 
ATOM     12  H1  UNL     1      20.545  40.691  16.836  1.00  0.00     0.165 HD
HETATM   13  C29 UNL     1      22.351  38.860  15.009  1.00  0.00     0.047 A 
BRANCH  11  14
HETATM   14  C11 UNL     1      21.859  38.255  17.425  1.00  0.00     0.091 C 
BRANCH  14  15
HETATM   15  C12 UNL     1      21.570  36.803  17.172  1.00  0.00     0.177 C 
BRANCH  15  16
HETATM   16  N2  UNL     1      20.367  36.421  17.944  1.00  0.00    -0.366 N 
ATOM     17  H2  UNL     1      20.392  36.430  18.964  1.00  0.00     0.161 HD
BRANCH  16  18
HETATM   18  C13 UNL     1      19.198  36.049  17.279  1.00  0.00     0.093 C 
HETATM   19  N3  UNL     1      18.259  36.912  17.120  1.00  0.00    -0.320 N 
HETATM   20  C14 UNL     1      18.316  38.232  17.571  1.00  0.00     0.187 C 
ATOM     21  H3  UNL     1      17.416  36.612  16.630  1.00  0.00     0.169 HD
HETATM   22  N4  UNL     1      18.568  38.472  18.808  1.00  0.00    -0.373 N 
HETATM   23  N5  UNL     1      18.095  39.301  16.671  1.00  0.00    -0.064 NA
ATOM     24  H42 UNL     1      18.727  37.701  19.457  1.00  0.00     0.158 HD
ATOM     25  H41 UNL     1      18.609  39.436  19.138  1.00  0.00     0.158 HD
BRANCH  18  26
HETATM   26  C15 UNL     1      19.063  34.688  16.744  1.00  0.00     0.146 C 
BRANCH  26  27
HETATM   27  C16 UNL     1      20.051  33.693  17.177  1.00  0.00     0.027 C 
BRANCH  27  28
HETATM   28  C17 UNL     1      20.447  32.556  16.349  1.00  0.00    -0.004 C 
HETATM   29  C18 UNL     1      20.021  31.179  16.734  1.00  0.00     0.051 C 
HETATM   30  C19 UNL     1      20.513  30.184  15.705  1.00  0.00     0.083 C 
HETATM   31  N6  UNL     1      21.578  30.582  14.914  1.00  0.00    -0.253 N 
HETATM   32  C20 UNL     1      22.402  31.661  15.234  1.00  0.00     0.083 C 
HETATM   33  C21 UNL     1      21.993  32.473  16.416  1.00  0.00     0.051 C 
BRANCH  31  34
HETATM   34  S1  UNL     1      21.829  29.796  13.443  1.00  0.00     0.321 S 
HETATM   35  O1  UNL     1      23.293  29.490  13.287  1.00  0.00    -0.182 OA
HETATM   36  O2  UNL     1      21.290  30.604  12.323  1.00  0.00    -0.182 OA
BRANCH  34  37
HETATM   37  N7  UNL     1      20.939  28.294  13.466  1.00  0.00    -0.311 N 
ATOM     38  H72 UNL     1      21.329  27.385  13.713  1.00  0.00     0.170 HD
ATOM     39  H71 UNL     1      19.975  28.490  13.193  1.00  0.00     0.170 HD
ENDBRANCH  34  37
ENDBRANCH  31  34
ENDBRANCH  27  28
ENDBRANCH  26  27
BRANCH  26  40
HETATM   40  C22 UNL     1      17.657  34.201  16.766  1.00  0.00     0.231 C 
HETATM   41  O3  UNL     1      17.007  34.426  17.821  1.00  0.00    -0.273 OA
HETATM   42  N8  UNL     1      16.999  33.520  15.734  1.00  0.00    -0.351 N 
HETATM   43  C23 UNL     1      15.637  33.076  15.910  1.00  0.00     0.125 C 
HETATM   44  C27 UNL     1      17.635  33.260  14.469  1.00  0.00     0.125 C 
HETATM   45  C24 UNL     1      15.416  31.668  15.397  1.00  0.00     0.020 C 
HETATM   46  C25 UNL     1      16.786  31.039  15.229  1.00  0.00     0.003 C 
HETATM   47  C26 UNL     1      17.505  31.802  14.110  1.00  0.00     0.020 C 
ENDBRANCH  26  40
ENDBRANCH  18  26
ENDBRANCH  16  18
ENDBRANCH  15  16
BRANCH  15  48
HETATM   48  C28 UNL     1      22.699  35.949  17.607  1.00  0.00     0.254 C 
HETATM   49  N9  UNL     1      22.950  35.591  18.947  1.00  0.00    -0.060 NA
HETATM   50  O4  UNL     1      23.493  35.526  16.702  1.00  0.00    -0.275 OA
ENDBRANCH  15  48
ENDBRANCH  14  15
ENDBRANCH  11  14
ENDBRANCH   7   8
ENDBRANCH   5   6
ENDBRANCH   3   4
TORSDOF 14
ENDMDL
MODEL 2
REMARK VINA RESULT: -8.425238367      3.586      6.284
REMARK  14 active torsions:
REMARK  status: ('A' for Active; 'I' for Inactive)
REMARK    1  A    between atoms: C3_3  and  C4_4 
REMARK    2  A    between atoms: C5_5  and  C6_6 
REMARK    3  A    between atoms: C7_7  and  C8_8 
REMARK    4  A    between atoms: C10_12  and  C11_13 
REMARK    5  A    between atoms: C11_13  and  C12_14 
REMARK    6  A    between atoms: C12_14  and  N2_15 
REMARK    7  A    between atoms: C12_14  and  C28_47 
REMARK    8  A    between atoms: N2_15  and  C13_17 
REMARK    9  A    between atoms: C13_17  and  C15_25 
REMARK       I    between atoms: N3_18  and  C14_20 
REMARK   10  A    between atoms: C15_25  and  C16_26 
REMARK   11  A    between atoms: C15_25  and  C22_39 
REMARK   12  A    between atoms: C16_26  and  C17_27 
REMARK   13  A    between atoms: N6_30  and  S1_31 
REMARK   14  A    between atoms: S1_31  and  N7_32 
REMARK       I    between atoms: C22_39  and  N8_41 
ROOT
HETATM    1  C1  UNL     1      24.949  42.217  13.524  1.00  0.00     0.097 C 
HETATM    2  C2  UNL     1      24.228  41.999  14.488  1.00  0.00    -0.184 C 
HETATM    3  C3  UNL     1      23.381  41.734  15.646  1.00  0.00     0.107 C 
ENDROOT
BRANCH   3   4
HETATM    4  C4  UNL     1      23.027  40.294  15.672  1.00  0.00    -0.007 C 
HETATM    5  C5  UNL     1      23.562  39.467  16.555  1.00  0.00     0.061 C 
BRANCH   5   6
HETATM    6  C6  UNL     1      23.207  38.081  16.568  1.00  0.00    -0.073 C 
HETATM    7  C7  UNL     1      22.900  36.919  16.555  1.00  0.00    -0.061 C 
BRANCH   7   8
HETATM    8  C8  UNL     1      22.517  35.522  16.508  1.00  0.00     0.035 A 
HETATM    9  C9  UNL     1      22.652  34.656  17.572  1.00  0.00     0.108 A 
HETATM   10  N1  UNL     1      22.190  33.471  17.171  1.00  0.00    -0.368 N 
HETATM   11  C10 UNL     1      21.753  33.490  15.902  1.00  0.00     0.012 A 
ATOM     12  H1  UNL     1      22.171  32.641  17.763  1.00  0.00     0.165 HD
HETATM   13  C29 UNL     1      21.962  34.804  15.477  1.00  0.00     0.047 A 
BRANCH  11  14
HETATM   14  C11 UNL     1      21.183  32.414  15.121  1.00  0.00     0.091 C 
BRANCH  14  15
HETATM   15  C12 UNL     1      19.740  32.128  15.424  1.00  0.00     0.177 C 
BRANCH  15  16
HETATM   16  N2  UNL     1      19.093  31.622  14.193  1.00  0.00    -0.366 N 
ATOM     17  H2  UNL     1      19.012  32.226  13.375  1.00  0.00     0.161 HD
BRANCH  16  18
HETATM   18  C13 UNL     1      18.593  30.320  14.150  1.00  0.00     0.093 C 
HETATM   19  N3  UNL     1      17.374  30.098  14.490  1.00  0.00    -0.320 N 
HETATM   20  C14 UNL     1      16.481  31.085  14.910  1.00  0.00     0.187 C 
ATOM     21  H3  UNL     1      17.037  29.137  14.449  1.00  0.00     0.169 HD
HETATM   22  N4  UNL     1      16.799  31.858  15.887  1.00  0.00    -0.373 N 
HETATM   23  N5  UNL     1      15.230  31.234  14.265  1.00  0.00    -0.064 NA
ATOM     24  H42 UNL     1      17.700  31.751  16.352  1.00  0.00     0.158 HD
ATOM     25  H41 UNL     1      16.146  32.578  16.194  1.00  0.00     0.158 HD
BRANCH  18  26
HETATM   26  C15 UNL     1      19.454  29.222  13.691  1.00  0.00     0.146 C 
BRANCH  26  27
HETATM   27  C16 UNL     1      20.740  29.042  14.376  1.00  0.00     0.027 C 
BRANCH  27  28
HETATM   28  C17 UNL     1      21.976  28.713  13.669  1.00  0.00    -0.004 C 
HETATM   29  C18 UNL     1      23.213  29.501  13.940  1.00  0.00     0.051 C 
HETATM   30  C19 UNL     1      24.362  28.947  13.125  1.00  0.00     0.083 C 
HETATM   31  N6  UNL     1      24.029  28.198  12.010  1.00  0.00    -0.253 N 
HETATM   32  C20 UNL     1      22.760  28.216  11.431  1.00  0.00     0.083 C 
HETATM   33  C21 UNL     1      21.714  28.985  12.165  1.00  0.00     0.051 C 
BRANCH  31  34
HETATM   34  S1  UNL     1      25.176  27.132  11.381  1.00  0.00     0.321 S 
HETATM   35  O1  UNL     1      25.237  27.293   9.887  1.00  0.00    -0.182 OA
HETATM   36  O2  UNL     1      24.876  25.741  11.796  1.00  0.00    -0.182 OA
BRANCH  34  37
HETATM   37  N7  UNL     1      26.733  27.543  12.057  1.00  0.00    -0.311 N 
ATOM     38  H72 UNL     1      27.145  28.476  12.055  1.00  0.00     0.170 HD
ATOM     39  H71 UNL     1      27.145  26.695  12.447  1.00  0.00     0.170 HD
ENDBRANCH  34  37
ENDBRANCH  31  34
ENDBRANCH  27  28
ENDBRANCH  26  27
BRANCH  26  40
HETATM   40  C22 UNL     1      18.700  27.958  13.470  1.00  0.00     0.231 C 
HETATM   41  O3  UNL     1      18.372  27.317  14.503  1.00  0.00    -0.273 OA
HETATM   42  N8  UNL     1      18.329  27.421  12.231  1.00  0.00    -0.351 N 
HETATM   43  C23 UNL     1      17.625  26.162  12.166  1.00  0.00     0.125 C 
HETATM   44  C27 UNL     1      18.609  28.100  10.993  1.00  0.00     0.125 C 
HETATM   45  C24 UNL     1      18.163  25.252  11.082  1.00  0.00     0.020 C 
HETATM   46  C25 UNL     1      19.521  25.797  10.680  1.00  0.00     0.003 C 
HETATM   47  C26 UNL     1      19.289  27.164  10.026  1.00  0.00     0.020 C 
ENDBRANCH  26  40
ENDBRANCH  18  26
ENDBRANCH  16  18
ENDBRANCH  15  16
BRANCH  15  48
HETATM   48  C28 UNL     1      19.032  33.353  15.859  1.00  0.00     0.254 C 
HETATM   49  N9  UNL     1      18.925  33.772  17.200  1.00  0.00    -0.060 NA
HETATM   50  O4  UNL     1      18.479  34.060  14.951  1.00  0.00    -0.275 OA
ENDBRANCH  15  48
ENDBRANCH  14  15
ENDBRANCH  11  14
ENDBRANCH   7   8
ENDBRANCH   5   6
ENDBRANCH   3   4
TORSDOF 14
ENDMDL
MODEL 3
REMARK VINA RESULT: -8.420980666      6.004     11.367
REMARK  14 active torsions:
REMARK  status: ('A' for Active; 'I' for Inactive)
REMARK    1  A    between atoms: C3_3  and  C4_4 
REMARK    2  A    between atoms: C5_5  and  C6_6 
REMARK    3  A    between atoms: C7_7  and  C8_8 
REMARK    4  A    between atoms: C10_12  and  C11_13 
REMARK    5  A    between atoms: C11_13  and  C12_14 
REMARK    6  A    between atoms: C12_14  and  N2_15 
REMARK    7  A    between atoms: C12_14  and  C28_47 
REMARK    8  A    between atoms: N2_15  and  C13_17 
REMARK    9  A    between atoms: C13_17  and  C15_25 
REMARK       I    between atoms: N3_18  and  C14_20 
REMARK   10  A    between atoms: C15_25  and  C16_26 
REMARK   11  A    between atoms: C15_25  and  C22_39 
REMARK   12  A    between atoms: C16_26  and  C17_27 
REMARK   13  A    between atoms: N6_30  and  S1_31 
REMARK   14  A    between atoms: S1_31  and  N7_32 
REMARK       I    between atoms: C22_39  and  N8_41 
ROOT
HETATM    1  C1  UNL     1      17.012  35.878  18.184  1.00  0.00     0.097 C 
HETATM    2  C2  UNL     1      16.250  35.482  17.313  1.00  0.00    -0.184 C 
HETATM    3  C3  UNL     1      15.335  34.998  16.284  1.00  0.00     0.107 C 
ENDROOT
BRANCH   3   4
HETATM    4  C4  UNL     1      15.981  33.891  15.539  1.00  0.00    -0.007 C 
HETATM    5  C5  UNL     1      15.769  32.625  15.861  1.00  0.00     0.061 C 
BRANCH   5   6
HETATM    6  C6  UNL     1      16.398  31.568  15.130  1.00  0.00    -0.073 C 
HETATM    7  C7  UNL     1      16.912  30.664  14.529  1.00  0.00    -0.061 C 
BRANCH   7   8
HETATM    8  C8  UNL     1      17.515  29.551  13.822  1.00  0.00     0.035 A 
HETATM    9  C9  UNL     1      18.221  28.543  14.443  1.00  0.00     0.108 A 
HETATM   10  N1  UNL     1      18.612  27.696  13.490  1.00  0.00    -0.368 N 
HETATM   11  C10 UNL     1      18.209  28.075  12.266  1.00  0.00     0.012 A 
ATOM     12  H1  UNL     1      19.156  26.853  13.670  1.00  0.00     0.165 HD
HETATM   13  C29 UNL     1      17.506  29.264  12.479  1.00  0.00     0.047 A 
BRANCH  11  14
HETATM   14  C11 UNL     1      18.431  27.423  10.994  1.00  0.00     0.091 C 
BRANCH  14  15
HETATM   15  C12 UNL     1      19.505  26.374  11.017  1.00  0.00     0.177 C 
BRANCH  15  16
HETATM   16  N2  UNL     1      20.376  26.566   9.836  1.00  0.00    -0.366 N 
ATOM     17  H2  UNL     1      19.972  26.873   8.951  1.00  0.00     0.161 HD
BRANCH  16  18
HETATM   18  C13 UNL     1      21.747  26.329   9.932  1.00  0.00     0.093 C 
HETATM   19  N3  UNL     1      22.316  25.554   9.081  1.00  0.00    -0.320 N 
HETATM   20  C14 UNL     1      21.653  24.910   8.034  1.00  0.00     0.187 C 
ATOM     21  H3  UNL     1      23.320  25.398   9.176  1.00  0.00     0.169 HD
HETATM   22  N4  UNL     1      20.629  24.175   8.286  1.00  0.00    -0.373 N 
HETATM   23  N5  UNL     1      22.108  25.063   6.703  1.00  0.00    -0.064 NA
ATOM     24  H42 UNL     1      20.301  24.064   9.245  1.00  0.00     0.158 HD
ATOM     25  H41 UNL     1      20.144  23.705   7.522  1.00  0.00     0.158 HD
BRANCH  18  26
HETATM   26  C15 UNL     1      22.531  26.989  10.985  1.00  0.00     0.146 C 
BRANCH  26  27
HETATM   27  C16 UNL     1      21.897  27.144  12.300  1.00  0.00     0.027 C 
BRANCH  27  28
HETATM   28  C17 UNL     1      21.615  28.448  12.895  1.00  0.00    -0.004 C 
HETATM   29  C18 UNL     1      21.345  29.620  12.011  1.00  0.00     0.051 C 
HETATM   30  C19 UNL     1      21.039  30.838  12.855  1.00  0.00     0.083 C 
HETATM   31  N6  UNL     1      21.485  30.815  14.166  1.00  0.00    -0.253 N 
HETATM   32  C20 UNL     1      22.453  29.922  14.625  1.00  0.00     0.083 C 
HETATM   33  C21 UNL     1      22.895  28.877  13.658  1.00  0.00     0.051 C 
BRANCH  31  34
HETATM   34  S1  UNL     1      20.752  31.842  15.286  1.00  0.00     0.321 S 
HETATM   35  O1  UNL     1      19.729  32.692  14.586  1.00  0.00    -0.182 OA
HETATM   36  O2  UNL     1      21.773  32.644  16.001  1.00  0.00    -0.182 OA
BRANCH  34  37
HETATM   37  N7  UNL     1      19.945  30.858  16.482  1.00  0.00    -0.311 N 
ATOM     38  H72 UNL     1      20.413  30.324  17.214  1.00  0.00     0.170 HD
ATOM     39  H71 UNL     1      18.940  30.916  16.317  1.00  0.00     0.170 HD
ENDBRANCH  34  37
ENDBRANCH  31  34
ENDBRANCH  27  28
ENDBRANCH  26  27
BRANCH  26  40
HETATM   40  C22 UNL     1      23.937  26.505  11.039  1.00  0.00     0.231 C 
HETATM   41  O3  UNL     1      24.094  25.258  11.132  1.00  0.00    -0.273 OA
HETATM   42  N8  UNL     1      25.089  27.300  11.002  1.00  0.00    -0.351 N 
HETATM   43  C23 UNL     1      26.395  26.692  11.097  1.00  0.00     0.125 C 
HETATM   44  C27 UNL     1      25.022  28.729  10.844  1.00  0.00     0.125 C 
HETATM   45  C24 UNL     1      27.320  27.450  12.027  1.00  0.00     0.020 C 
HETATM   46  C25 UNL     1      26.451  28.372  12.860  1.00  0.00     0.003 C 
HETATM   47  C26 UNL     1      25.844  29.411  11.909  1.00  0.00     0.020 C 
ENDBRANCH  26  40
ENDBRANCH  18  26
ENDBRANCH  16  18
ENDBRANCH  15  16
BRANCH  15  48
HETATM   48  C28 UNL     1      18.924  25.013  10.957  1.00  0.00     0.254 C 
HETATM   49  N9  UNL     1      19.074  24.042  11.967  1.00  0.00    -0.060 NA
HETATM   50  O4  UNL     1      18.254  24.711   9.912  1.00  0.00    -0.275 OA
ENDBRANCH  15  48
ENDBRANCH  14  15
ENDBRANCH  11  14
ENDBRANCH   7   8
ENDBRANCH   5   6
ENDBRANCH   3   4
TORSDOF 14
ENDMDL
MODEL 4
REMARK VINA RESULT: -8.276576919      4.145      8.736
REMARK  14 active torsions:
REMARK  status: ('A' for Active; 'I' for Inactive)
REMARK    1  A    between atoms: C3_3  and  C4_4 
REMARK    2  A    between atoms: C5_5  and  C6_6 
REMARK    3  A    between atoms: C7_7  and  C8_8 
REMARK    4  A    between atoms: C10_12  and  C11_13 
REMARK    5  A    between atoms: C11_13  and  C12_14 
REMARK    6  A    between atoms: C12_14  and  N2_15 
REMARK    7  A    between atoms: C12_14  and  C28_47 
REMARK    8  A    between atoms: N2_15  and  C13_17 
REMARK    9  A    between atoms: C13_17  and  C15_25 
REMARK       I    between atoms: N3_18  and  C14_20 
REMARK   10  A    between atoms: C15_25  and  C16_26 
REMARK   11  A    between atoms: C15_25  and  C22_39 
REMARK   12  A    between atoms: C16_26  and  C17_27 
REMARK   13  A    between atoms: N6_30  and  S1_31 
REMARK   14  A    between atoms: S1_31  and  N7_32 
REMARK       I    between atoms: C22_39  and  N8_41 
ROOT
HETATM    1  C1  UNL     1      18.976  29.673   4.669  1.00  0.00     0.097 C 
HETATM    2  C2  UNL     1      18.649  28.719   5.361  1.00  0.00    -0.184 C 
HETATM    3  C3  UNL     1      18.243  27.586   6.186  1.00  0.00     0.107 C 
ENDROOT
BRANCH   3   4
HETATM    4  C4  UNL     1      18.022  28.049   7.577  1.00  0.00    -0.007 C 
HETATM    5  C5  UNL     1      18.432  27.337   8.615  1.00  0.00     0.061 C 
BRANCH   5   6
HETATM    6  C6  UNL     1      18.214  27.799   9.951  1.00  0.00    -0.073 C 
HETATM    7  C7  UNL     1      18.055  28.184  11.078  1.00  0.00    -0.061 C 
BRANCH   7   8
HETATM    8  C8  UNL     1      17.896  28.641  12.444  1.00  0.00     0.035 A 
HETATM    9  C9  UNL     1      18.311  27.922  13.545  1.00  0.00     0.108 A 
HETATM   10  N1  UNL     1      18.015  28.652  14.621  1.00  0.00    -0.368 N 
HETATM   11  C10 UNL     1      17.428  29.818  14.308  1.00  0.00     0.012 A 
ATOM     12  H1  UNL     1      18.214  28.357  15.577  1.00  0.00     0.165 HD
HETATM   13  C29 UNL     1      17.351  29.812  12.914  1.00  0.00     0.047 A 
BRANCH  11  14
HETATM   14  C11 UNL     1      16.969  30.869  15.190  1.00  0.00     0.091 C 
BRANCH  14  15
HETATM   15  C12 UNL     1      17.659  32.188  14.990  1.00  0.00     0.177 C 
BRANCH  15  16
HETATM   16  N2  UNL     1      18.452  32.492  16.201  1.00  0.00    -0.366 N 
ATOM     17  H2  UNL     1      18.153  32.134  17.109  1.00  0.00     0.161 HD
BRANCH  16  18
HETATM   18  C13 UNL     1      19.609  33.266  16.104  1.00  0.00     0.093 C 
HETATM   19  N3  UNL     1      19.686  34.372  16.752  1.00  0.00    -0.320 N 
HETATM   20  C14 UNL     1      18.675  34.879  17.570  1.00  0.00     0.187 C 
ATOM     21  H3  UNL     1      20.543  34.917  16.661  1.00  0.00     0.169 HD
HETATM   22  N4  UNL     1      17.490  35.032  17.098  1.00  0.00    -0.373 N 
HETATM   23  N5  UNL     1      18.955  35.224  18.914  1.00  0.00    -0.064 NA
ATOM     24  H42 UNL     1      17.288  34.784  16.130  1.00  0.00     0.158 HD
ATOM     25  H41 UNL     1      16.751  35.402  17.696  1.00  0.00     0.158 HD
BRANCH  18  26
HETATM   26  C15 UNL     1      20.737  32.795  15.288  1.00  0.00     0.146 C 
BRANCH  26  27
HETATM   27  C16 UNL     1      21.952  33.619  15.279  1.00  0.00     0.027 C 
BRANCH  27  28
HETATM   28  C17 UNL     1      21.957  35.028  15.667  1.00  0.00    -0.004 C 
HETATM   29  C18 UNL     1      22.567  36.041  14.758  1.00  0.00     0.051 C 
HETATM   30  C19 UNL     1      22.411  37.424  15.354  1.00  0.00     0.083 C 
HETATM   31  N6  UNL     1      22.194  37.491  16.720  1.00  0.00    -0.253 N 
HETATM   32  C20 UNL     1      22.444  36.425  17.584  1.00  0.00     0.083 C 
HETATM   33  C21 UNL     1      22.830  35.136  16.943  1.00  0.00     0.051 C 
BRANCH  31  34
HETATM   34  S1  UNL     1      21.497  38.888  17.358  1.00  0.00     0.321 S 
HETATM   35  O1  UNL     1      22.493  39.581  18.245  1.00  0.00    -0.182 OA
HETATM   36  O2  UNL     1      20.233  38.563  18.061  1.00  0.00    -0.182 OA
BRANCH  34  37
HETATM   37  N7  UNL     1      21.087  39.950  16.033  1.00  0.00    -0.311 N 
ATOM     38  H72 UNL     1      20.157  40.046  15.626  1.00  0.00     0.170 HD
ATOM     39  H71 UNL     1      21.932  40.446  15.748  1.00  0.00     0.170 HD
ENDBRANCH  34  37
ENDBRANCH  31  34
ENDBRANCH  27  28
ENDBRANCH  26  27
BRANCH  26  40
HETATM   40  C22 UNL     1      20.990  31.337  15.449  1.00  0.00     0.231 C 
HETATM   41  O3  UNL     1      21.220  30.938  16.621  1.00  0.00    -0.273 OA
HETATM   42  N8  UNL     1      20.999  30.381  14.426  1.00  0.00    -0.351 N 
HETATM   43  C23 UNL     1      21.295  29.000  14.726  1.00  0.00     0.125 C 
HETATM   44  C27 UNL     1      20.696  30.723  13.061  1.00  0.00     0.125 C 
HETATM   45  C24 UNL     1      22.240  28.378  13.719  1.00  0.00     0.020 C 
HETATM   46  C25 UNL     1      22.880  29.518  12.950  1.00  0.00     0.003 C 
HETATM   47  C26 UNL     1      21.771  30.202  12.141  1.00  0.00     0.020 C 
ENDBRANCH  26  40
ENDBRANCH  18  26
ENDBRANCH  16  18
ENDBRANCH  15  16
BRANCH  15  48
HETATM   48  C28 UNL     1      16.679  33.279  14.783  1.00  0.00     0.254 C 
HETATM   49  N9  UNL     1      16.953  34.467  14.077  1.00  0.00    -0.060 NA
HETATM   50  O4  UNL     1      15.518  33.123  15.291  1.00  0.00    -0.275 OA
ENDBRANCH  15  48
ENDBRANCH  14  15
ENDBRANCH  11  14
ENDBRANCH   7   8
ENDBRANCH   5   6
ENDBRANCH   3   4
TORSDOF 14
ENDMDL
MODEL 5
REMARK VINA RESULT: -8.225614826      3.844      7.131
REMARK  14 active torsions:
REMARK  status: ('A' for Active; 'I' for Inactive)
REMARK    1  A    between atoms: C3_3  and  C4_4 
REMARK    2  A    between atoms: C5_5  and  C6_6 
REMARK    3  A    between atoms: C7_7  and  C8_8 
REMARK    4  A    between atoms: C10_12  and  C11_13 
REMARK    5  A    between atoms: C11_13  and  C12_14 
REMARK    6  A    between atoms: C12_14  and  N2_15 
REMARK    7  A    between atoms: C12_14  and  C28_47 
REMARK    8  A    between atoms: N2_15  and  C13_17 
REMARK    9  A    between atoms: C13_17  and  C15_25 
REMARK       I    between atoms: N3_18  and  C14_20 
REMARK   10  A    between atoms: C15_25  and  C16_26 
REMARK   11  A    between atoms: C15_25  and  C22_39 
REMARK   12  A    between atoms: C16_26  and  C17_27 
REMARK   13  A    between atoms: N6_30  and  S1_31 
REMARK   14  A    between atoms: S1_31  and  N7_32 
REMARK       I    between atoms: C22_39  and  N8_41 
ROOT
HETATM    1  C1  UNL     1      22.526  28.667  12.382  1.00  0.00     0.097 C 
HETATM    2  C2  UNL     1      21.583  29.442  12.442  1.00  0.00    -0.184 C 
HETATM    3  C3  UNL     1      20.463  30.377  12.501  1.00  0.00     0.107 C 
ENDROOT
BRANCH   3   4
HETATM    4  C4  UNL     1      20.875  31.585  13.254  1.00  0.00    -0.007 C 
HETATM    5  C5  UNL     1      21.243  31.517  14.523  1.00  0.00     0.061 C 
BRANCH   5   6
HETATM    6  C6  UNL     1      21.640  32.692  15.235  1.00  0.00    -0.073 C 
HETATM    7  C7  UNL     1      21.974  33.693  15.811  1.00  0.00    -0.061 C 
BRANCH   7   8
HETATM    8  C8  UNL     1      22.378  34.916  16.476  1.00  0.00     0.035 A 
HETATM    9  C9  UNL     1      22.618  35.006  17.830  1.00  0.00     0.108 A 
HETATM   10  N1  UNL     1      22.978  36.267  18.079  1.00  0.00    -0.368 N 
HETATM   11  C10 UNL     1      22.995  37.026  16.972  1.00  0.00     0.012 A 
ATOM     12  H1  UNL     1      23.214  36.615  19.008  1.00  0.00     0.165 HD
HETATM   13  C29 UNL     1      22.611  36.161  15.944  1.00  0.00     0.047 A 
BRANCH  11  14
HETATM   14  C11 UNL     1      23.333  38.426  16.836  1.00  0.00     0.091 C 
BRANCH  14  15
HETATM   15  C12 UNL     1      22.748  39.309  17.900  1.00  0.00     0.177 C 
BRANCH  15  16
HETATM   16  N2  UNL     1      21.793  40.243  17.262  1.00  0.00    -0.366 N 
ATOM     17  H2  UNL     1      21.967  41.248  17.292  1.00  0.00     0.161 HD
BRANCH  16  18
HETATM   18  C13 UNL     1      20.657  39.751  16.619  1.00  0.00     0.093 C 
HETATM   19  N3  UNL     1      20.620  39.720  15.335  1.00  0.00    -0.320 N 
HETATM   20  C14 UNL     1      21.657  40.152  14.506  1.00  0.00     0.187 C 
ATOM     21  H3  UNL     1      19.776  39.356  14.892  1.00  0.00     0.169 HD
HETATM   22  N4  UNL     1      22.128  41.340  14.640  1.00  0.00    -0.373 N 
HETATM   23  N5  UNL     1      22.186  39.286  13.519  1.00  0.00    -0.064 NA
ATOM     24  H42 UNL     1      21.747  41.964  15.351  1.00  0.00     0.158 HD
ATOM     25  H41 UNL     1      22.885  41.655  14.035  1.00  0.00     0.158 HD
BRANCH  18  26
HETATM   26  C15 UNL     1      19.528  39.247  17.413  1.00  0.00     0.146 C 
BRANCH  26  27
HETATM   27  C16 UNL     1      19.621  37.872  17.918  1.00  0.00     0.027 C 
BRANCH  27  28
HETATM   28  C17 UNL     1      18.674  36.825  17.542  1.00  0.00    -0.004 C 
HETATM   29  C18 UNL     1      17.245  36.938  17.957  1.00  0.00     0.051 C 
HETATM   30  C19 UNL     1      16.460  35.763  17.416  1.00  0.00     0.083 C 
HETATM   31  N6  UNL     1      17.185  34.634  17.075  1.00  0.00    -0.253 N 
HETATM   32  C20 UNL     1      18.492  34.409  17.507  1.00  0.00     0.083 C 
HETATM   33  C21 UNL     1      19.139  35.527  18.252  1.00  0.00     0.051 C 
BRANCH  31  34
HETATM   34  S1  UNL     1      16.498  33.527  16.003  1.00  0.00     0.321 S 
HETATM   35  O1  UNL     1      15.290  32.901  16.641  1.00  0.00    -0.182 OA
HETATM   36  O2  UNL     1      17.504  32.526  15.576  1.00  0.00    -0.182 OA
BRANCH  34  37
HETATM   37  N7  UNL     1      15.997  34.391  14.571  1.00  0.00    -0.311 N 
ATOM     38  H72 UNL     1      16.250  34.139  13.616  1.00  0.00     0.170 HD
ATOM     39  H71 UNL     1      15.415  35.178  14.860  1.00  0.00     0.170 HD
ENDBRANCH  34  37
ENDBRANCH  31  34
ENDBRANCH  27  28
ENDBRANCH  26  27
BRANCH  26  40
HETATM   40  C22 UNL     1      19.051  40.235  18.419  1.00  0.00     0.231 C 
HETATM   41  O3  UNL     1      19.753  40.355  19.457  1.00  0.00    -0.273 OA
HETATM   42  N8  UNL     1      17.903  41.030  18.318  1.00  0.00    -0.351 N 
HETATM   43  C23 UNL     1      17.543  41.925  19.392  1.00  0.00     0.125 C 
HETATM   44  C27 UNL     1      17.062  41.007  17.150  1.00  0.00     0.125 C 
HETATM   45  C24 UNL     1      16.062  41.882  19.710  1.00  0.00     0.020 C 
HETATM   46  C25 UNL     1      15.508  40.625  19.067  1.00  0.00     0.003 C 
HETATM   47  C26 UNL     1      15.622  40.801  17.548  1.00  0.00     0.020 C 
ENDBRANCH  26  40
ENDBRANCH  18  26
ENDBRANCH  16  18
ENDBRANCH  15  16
BRANCH  15  48
HETATM   48  C28 UNL     1      23.800  40.101  18.576  1.00  0.00     0.254 C 
HETATM   49  N9  UNL     1      23.723  40.541  19.912  1.00  0.00    -0.060 NA
HETATM   50  O4  UNL     1      24.833  40.405  17.890  1.00  0.00    -0.275 OA
ENDBRANCH  15  48
ENDBRANCH  14  15
ENDBRANCH  11  14
ENDBRANCH   7   8
ENDBRANCH   5   6
ENDBRANCH   3   4
TORSDOF 14
ENDMDL
