MODEL 1
REMARK VINA RESULT: -9.782020015      0.000      0.000
REMARK  15 active torsions:
REMARK  status: ('A' for Active; 'I' for Inactive)
REMARK    1  A    between atoms: C2_2  and  C3_3 
REMARK    2  A    between atoms: C3_3  and  C4_4 
REMARK    3  A    between atoms: N2_9  and  C6_10 
REMARK    4  A    between atoms: C6_10  and  O2_11 
REMARK    5  A    between atoms: C6_10  and  N3_13 
REMARK       I    between atoms: N4_16  and  C9_17 
REMARK    6  A    between atoms: C9_17  and  C10_19 
REMARK    7  A    between atoms: C10_19  and  C11_20 
REMARK    8  A    between atoms: C11_20  and  C12_21 
REMARK    9  A    between atoms: C12_21  and  C13_22 
REMARK   10  A    between atoms: C13_22  and  C14_23 
REMARK   11  A    between atoms: C14_23  and  N5_24 
REMARK   12  A    between atoms: S1_33  and  C20_34 
REMARK   13  A    between atoms: C20_34  and  C21_35 
REMARK   14  A    between atoms: C21_35  and  C22_36 
REMARK   15  A    between atoms: C26_40  and  N8_41 
ROOT
HETATM    1  C4  UNL     1      19.157  28.177  13.770  1.00  0.00     0.166 C 
HETATM    2  N1  UNL     1      18.129  29.026  14.402  1.00  0.00    -0.330 N 
ATOM      3  H1  UNL     1      17.498  28.544  15.043  1.00  0.00     0.165 HD
HETATM    4  C5  UNL     1      17.886  30.444  14.247  1.00  0.00     0.326 C 
HETATM    5  O1  UNL     1      16.672  30.710  14.412  1.00  0.00    -0.247 OA
HETATM    6  N2  UNL     1      18.700  31.549  13.952  1.00  0.00    -0.265 N 
HETATM    7  C18 UNL     1      19.691  31.720  12.867  1.00  0.00     0.147 C 
HETATM    8  C19 UNL     1      21.051  31.513  13.467  1.00  0.00     0.091 C 
HETATM    9  S1  UNL     1      21.612  29.820  13.243  1.00  0.00    -0.147 SA
HETATM   10  C29 UNL     1      20.520  28.666  13.983  1.00  0.00     0.199 C 
HETATM   11  O4  UNL     1      21.026  28.094  14.961  1.00  0.00    -0.284 OA
ENDROOT
BRANCH   6  12
HETATM   12  C6  UNL     1      18.536  32.693  14.710  1.00  0.00     0.225 C 
BRANCH  12  13
HETATM   13  O2  UNL     1      17.473  33.437  14.324  1.00  0.00    -0.332 OA
ATOM     14  H2  UNL     1      17.166  34.027  15.002  1.00  0.00     0.221 HD
ENDBRANCH  12  13
BRANCH  12  15
HETATM   15  N3  UNL     1      19.192  33.298  15.781  1.00  0.00    -0.344 N 
HETATM   16  C7  UNL     1      18.595  34.564  16.264  1.00  0.00     0.146 C 
HETATM   17  C8  UNL     1      19.211  34.896  17.595  1.00  0.00     0.145 C 
HETATM   18  N4  UNL     1      20.628  35.069  17.400  1.00  0.00    -0.349 N 
HETATM   19  C9  UNL     1      21.284  36.246  17.817  1.00  0.00     0.219 C 
HETATM   20  C16 UNL     1      21.357  34.019  16.744  1.00  0.00     0.145 C 
HETATM   21  O3  UNL     1      20.534  37.133  18.346  1.00  0.00    -0.273 OA
HETATM   22  C17 UNL     1      20.414  32.861  16.371  1.00  0.00     0.146 C 
BRANCH  19  23
HETATM   23  C10 UNL     1      22.730  36.385  17.629  1.00  0.00     0.103 C 
BRANCH  23  24
HETATM   24  C11 UNL     1      23.084  37.504  16.728  1.00  0.00     0.009 C 
BRANCH  24  25
HETATM   25  C12 UNL     1      22.402  37.511  15.412  1.00  0.00     0.002 C 
BRANCH  25  26
HETATM   26  C13 UNL     1      22.104  38.933  14.909  1.00  0.00     0.020 C 
BRANCH  26  27
HETATM   27  C14 UNL     1      21.490  39.683  16.079  1.00  0.00     0.122 C 
BRANCH  27  28
HETATM   28  N5  UNL     1      20.094  39.317  16.208  1.00  0.00    -0.367 N 
HETATM   29  C15 UNL     1      19.160  40.165  16.429  1.00  0.00     0.196 C 
HETATM   30  N6  UNL     1      17.824  39.723  16.540  1.00  0.00    -0.067 NA
HETATM   31  N7  UNL     1      19.454  41.539  16.560  1.00  0.00    -0.067 NA
ATOM     32  H5  UNL     1      19.842  38.333  16.117  1.00  0.00     0.161 HD
ENDBRANCH  27  28
ENDBRANCH  26  27
ENDBRANCH  25  26
ENDBRANCH  24  25
ENDBRANCH  23  24
ENDBRANCH  19  23
ENDBRANCH  12  15
ENDBRANCH   6  12
BRANCH   1  33
HETATM   33  C3  UNL     1      18.743  27.984  12.341  1.00  0.00     0.033 C 
BRANCH  33  34
HETATM   34  C2  UNL     1      17.461  27.240  12.147  1.00  0.00    -0.002 C 
HETATM   35  C1  UNL     1      16.519  27.979  11.213  1.00  0.00     0.005 C 
ENDBRANCH  33  34
ENDBRANCH   1  33
BRANCH   9  36
HETATM   36  C20 UNL     1      23.203  29.757  14.051  1.00  0.00     0.076 C 
BRANCH  36  37
HETATM   37  C21 UNL     1      24.372  29.456  13.229  1.00  0.00     0.048 C 
BRANCH  37  38
HETATM   38  C22 UNL     1      24.300  28.312  12.313  1.00  0.00    -0.055 A 
HETATM   39  C23 UNL     1      25.404  27.583  11.968  1.00  0.00     0.008 A 
HETATM   40  C24 UNL     1      25.281  26.497  11.093  1.00  0.00     0.018 A 
HETATM   41  C25 UNL     1      24.058  26.130  10.558  1.00  0.00     0.037 A 
HETATM   42  C26 UNL     1      23.630  25.141   9.698  1.00  0.00     0.126 A 
HETATM   43  C27 UNL     1      22.941  26.857  10.899  1.00  0.00     0.062 A 
HETATM   44  N9  UNL     1      22.295  25.276   9.533  1.00  0.00    -0.285 N 
HETATM   45  N10 UNL     1      21.883  26.302  10.251  1.00  0.00    -0.298 N 
ATOM     46  H9  UNL     1      21.705  24.684   8.950  1.00  0.00     0.188 HD
ATOM     47  H10 UNL     1      20.919  26.629  10.310  1.00  0.00     0.187 HD
HETATM   48  C28 UNL     1      23.081  27.920  11.758  1.00  0.00     0.039 A 
BRANCH  42  49
HETATM   49  N8  UNL     1      24.361  24.237   9.140  1.00  0.00    -0.384 N 
ATOM     50  H82 UNL     1      24.816  23.465   9.627  1.00  0.00     0.157 HD
ATOM     51  H81 UNL     1      24.588  24.164   8.148  1.00  0.00     0.157 HD
ENDBRANCH  42  49
ENDBRANCH  37  38
ENDBRANCH  36  37
ENDBRANCH   9  36
TORSDOF 15
ENDMDL
MODEL 2
REMARK VINA RESULT: -9.731394352      2.904      8.567
REMARK  15 active torsions:
REMARK  status: ('A' for Active; 'I' for Inactive)
REMARK    1  A    between atoms: C2_2  and  C3_3 
REMARK    2  A    between atoms: C3_3  and  C4_4 
REMARK    3  A    between atoms: N2_9  and  C6_10 
REMARK    4  A    between atoms: C6_10  and  O2_11 
REMARK    5  A    between atoms: C6_10  and  N3_13 
REMARK       I    between atoms: N4_16  and  C9_17 
REMARK    6  A    between atoms: C9_17  and  C10_19 
REMARK    7  A    between atoms: C10_19  and  C11_20 
REMARK    8  A    between atoms: C11_20  and  C12_21 
REMARK    9  A    between atoms: C12_21  and  C13_22 
REMARK   10  A    between atoms: C13_22  and  C14_23 
REMARK   11  A    between atoms: C14_23  and  N5_24 
REMARK   12  A    between atoms: S1_33  and  C20_34 
REMARK   13  A    between atoms: C20_34  and  C21_35 
REMARK   14  A    between atoms: C21_35  and  C22_36 
REMARK   15  A    between atoms: C26_40  and  N8_41 
ROOT
HETATM    1  C4  UNL     1      21.988  38.369  16.530  1.00  0.00     0.166 C 
HETATM    2  N1  UNL     1      20.650  38.950  16.759  1.00  0.00    -0.330 N 
ATOM      3  H1  UNL     1      20.465  39.824  16.268  1.00  0.00     0.165 HD
HETATM    4  C5  UNL     1      19.564  38.459  17.578  1.00  0.00     0.326 C 
HETATM    5  O1  UNL     1      18.870  39.408  18.016  1.00  0.00    -0.247 OA
HETATM    6  N2  UNL     1      19.140  37.182  17.978  1.00  0.00    -0.265 N 
HETATM    7  C18 UNL     1      19.927  36.076  18.567  1.00  0.00     0.147 C 
HETATM    8  C19 UNL     1      20.205  35.091  17.469  1.00  0.00     0.091 C 
HETATM    9  S1  UNL     1      21.815  35.379  16.726  1.00  0.00    -0.147 SA
HETATM   10  C29 UNL     1      21.942  36.990  16.044  1.00  0.00     0.199 C 
HETATM   11  O4  UNL     1      22.014  36.976  14.806  1.00  0.00    -0.284 OA
ENDROOT
BRANCH   6  12
HETATM   12  C6  UNL     1      17.790  36.894  17.900  1.00  0.00     0.225 C 
BRANCH  12  13
HETATM   13  O2  UNL     1      17.042  37.627  18.757  1.00  0.00    -0.332 OA
ATOM     14  H2  UNL     1      16.644  37.104  19.443  1.00  0.00     0.221 HD
ENDBRANCH  12  13
BRANCH  12  15
HETATM   15  N3  UNL     1      16.983  36.028  17.164  1.00  0.00    -0.344 N 
HETATM   16  C7  UNL     1      16.241  35.019  17.954  1.00  0.00     0.146 C 
HETATM   17  C8  UNL     1      15.194  34.405  17.065  1.00  0.00     0.145 C 
HETATM   18  N4  UNL     1      15.864  33.763  15.964  1.00  0.00    -0.349 N 
HETATM   19  C9  UNL     1      15.631  32.406  15.657  1.00  0.00     0.219 C 
HETATM   20  C16 UNL     1      16.802  34.536  15.195  1.00  0.00     0.145 C 
HETATM   21  O3  UNL     1      14.816  31.802  16.431  1.00  0.00    -0.273 OA
HETATM   22  C17 UNL     1      16.891  35.972  15.742  1.00  0.00     0.146 C 
BRANCH  19  23
HETATM   23  C10 UNL     1      16.308  31.786  14.516  1.00  0.00     0.103 C 
BRANCH  23  24
HETATM   24  C11 UNL     1      17.140  30.627  14.906  1.00  0.00     0.009 C 
BRANCH  24  25
HETATM   25  C12 UNL     1      17.816  29.916  13.794  1.00  0.00     0.002 C 
BRANCH  25  26
HETATM   26  C13 UNL     1      18.233  28.486  14.174  1.00  0.00     0.020 C 
BRANCH  26  27
HETATM   27  C14 UNL     1      18.240  27.684  12.884  1.00  0.00     0.122 C 
BRANCH  27  28
HETATM   28  N5  UNL     1      17.617  28.459  11.830  1.00  0.00    -0.367 N 
HETATM   29  C15 UNL     1      17.834  28.259  10.584  1.00  0.00     0.196 C 
HETATM   30  N6  UNL     1      17.184  29.060   9.621  1.00  0.00    -0.067 NA
HETATM   31  N7  UNL     1      18.715  27.240  10.163  1.00  0.00    -0.067 NA
ATOM     32  H5  UNL     1      16.972  29.203  12.095  1.00  0.00     0.161 HD
ENDBRANCH  27  28
ENDBRANCH  26  27
ENDBRANCH  25  26
ENDBRANCH  24  25
ENDBRANCH  23  24
ENDBRANCH  19  23
ENDBRANCH  12  15
ENDBRANCH   6  12
BRANCH   1  33
HETATM   33  C3  UNL     1      22.782  38.599  17.783  1.00  0.00     0.033 C 
BRANCH  33  34
HETATM   34  C2  UNL     1      23.648  39.817  17.769  1.00  0.00    -0.002 C 
HETATM   35  C1  UNL     1      23.842  40.352  16.360  1.00  0.00     0.005 C 
ENDBRANCH  33  34
ENDBRANCH   1  33
BRANCH   9  36
HETATM   36  C20 UNL     1      21.944  34.158  15.430  1.00  0.00     0.076 C 
BRANCH  36  37
HETATM   37  C21 UNL     1      20.790  33.295  15.192  1.00  0.00     0.048 C 
BRANCH  37  38
HETATM   38  C22 UNL     1      20.966  32.124  14.326  1.00  0.00    -0.055 A 
HETATM   39  C23 UNL     1      20.642  32.142  12.998  1.00  0.00     0.008 A 
HETATM   40  C24 UNL     1      20.833  30.998  12.214  1.00  0.00     0.018 A 
HETATM   41  C25 UNL     1      21.349  29.830  12.749  1.00  0.00     0.037 A 
HETATM   42  C26 UNL     1      21.644  28.579  12.248  1.00  0.00     0.126 A 
HETATM   43  C27 UNL     1      21.678  29.801  14.084  1.00  0.00     0.062 A 
HETATM   44  N9  UNL     1      22.136  27.828  13.259  1.00  0.00    -0.285 N 
HETATM   45  N10 UNL     1      22.156  28.558  14.356  1.00  0.00    -0.298 N 
ATOM     46  H9  UNL     1      22.441  26.858  13.185  1.00  0.00     0.188 HD
ATOM     47  H10 UNL     1      22.481  28.240  15.269  1.00  0.00     0.187 HD
HETATM   48  C28 UNL     1      21.482  30.933  14.837  1.00  0.00     0.039 A 
BRANCH  42  49
HETATM   49  N8  UNL     1      21.486  28.180  11.032  1.00  0.00    -0.384 N 
ATOM     50  H82 UNL     1      21.964  27.387  10.606  1.00  0.00     0.157 HD
ATOM     51  H81 UNL     1      20.870  28.593  10.332  1.00  0.00     0.157 HD
ENDBRANCH  42  49
ENDBRANCH  37  38
ENDBRANCH  36  37
ENDBRANCH   9  36
TORSDOF 15
ENDMDL
MODEL 3
REMARK VINA RESULT: -9.710421455      2.192      3.531
REMARK  15 active torsions:
REMARK  status: ('A' for Active; 'I' for Inactive)
REMARK    1  A    between atoms: C2_2  and  C3_3 
REMARK    2  A    between atoms: C3_3  and  C4_4 
REMARK    3  A    between atoms: N2_9  and  C6_10 
REMARK    4  A    between atoms: C6_10  and  O2_11 
REMARK    5  A    between atoms: C6_10  and  N3_13 
REMARK       I    between atoms: N4_16  and  C9_17 
REMARK    6  A    between atoms: C9_17  and  C10_19 
REMARK    7  A    between atoms: C10_19  and  C11_20 
REMARK    8  A    between atoms: C11_20  and  C12_21 
REMARK    9  A    between atoms: C12_21  and  C13_22 
REMARK   10  A    between atoms: C13_22  and  C14_23 
REMARK   11  A    between atoms: C14_23  and  N5_24 
REMARK   12  A    between atoms: S1_33  and  C20_34 
REMARK   13  A    between atoms: C20_34  and  C21_35 
REMARK   14  A    between atoms: C21_35  and  C22_36 
REMARK   15  A    between atoms: C26_40  and  N8_41 
ROOT
HETATM    1  C4  UNL     1      17.334  30.375  14.869  1.00  0.00     0.166 C 
HETATM    2  N1  UNL     1      17.916  31.079  16.029  1.00  0.00    -0.330 N 
ATOM      3  H1  UNL     1      17.590  30.761  16.941  1.00  0.00     0.165 HD
HETATM    4  C5  UNL     1      18.882  32.156  16.060  1.00  0.00     0.326 C 
HETATM    5  O1  UNL     1      18.709  32.882  17.067  1.00  0.00    -0.247 OA
HETATM    6  N2  UNL     1      19.937  32.548  15.220  1.00  0.00    -0.265 N 
HETATM    7  C18 UNL     1      19.944  32.742  13.754  1.00  0.00     0.147 C 
HETATM    8  C19 UNL     1      20.577  31.524  13.145  1.00  0.00     0.091 C 
HETATM    9  S1  UNL     1      19.335  30.330  12.633  1.00  0.00    -0.147 SA
HETATM   10  C29 UNL     1      18.343  29.802  13.978  1.00  0.00     0.199 C 
HETATM   11  O4  UNL     1      18.535  28.611  14.270  1.00  0.00    -0.284 OA
ENDROOT
BRANCH   6  12
HETATM   12  C6  UNL     1      21.142  32.884  15.809  1.00  0.00     0.225 C 
BRANCH  12  13
HETATM   13  O2  UNL     1      21.756  31.831  16.397  1.00  0.00    -0.332 OA
ATOM     14  H2  UNL     1      22.128  31.221  15.771  1.00  0.00     0.221 HD
ENDBRANCH  12  13
BRANCH  12  15
HETATM   15  N3  UNL     1      21.900  34.042  15.966  1.00  0.00    -0.344 N 
HETATM   16  C7  UNL     1      22.017  34.547  17.353  1.00  0.00     0.146 C 
HETATM   17  C8  UNL     1      23.112  35.578  17.387  1.00  0.00     0.145 C 
HETATM   18  N4  UNL     1      22.737  36.655  16.507  1.00  0.00    -0.349 N 
HETATM   19  C9  UNL     1      22.699  37.990  16.961  1.00  0.00     0.219 C 
HETATM   20  C16 UNL     1      22.377  36.333  15.153  1.00  0.00     0.145 C 
HETATM   21  O3  UNL     1      22.993  38.158  18.192  1.00  0.00    -0.273 OA
HETATM   22  C17 UNL     1      22.478  34.815  14.917  1.00  0.00     0.146 C 
BRANCH  19  23
HETATM   23  C10 UNL     1      22.339  39.069  16.038  1.00  0.00     0.103 C 
BRANCH  23  24
HETATM   24  C11 UNL     1      21.269  39.941  16.568  1.00  0.00     0.009 C 
BRANCH  24  25
HETATM   25  C12 UNL     1      19.924  39.325  16.664  1.00  0.00     0.002 C 
BRANCH  25  26
HETATM   26  C13 UNL     1      19.378  39.318  18.101  1.00  0.00     0.020 C 
BRANCH  26  27
HETATM   27  C14 UNL     1      17.887  39.052  17.992  1.00  0.00     0.122 C 
BRANCH  27  28
HETATM   28  N5  UNL     1      17.584  37.757  18.567  1.00  0.00    -0.367 N 
HETATM   29  C15 UNL     1      17.009  36.814  17.919  1.00  0.00     0.196 C 
HETATM   30  N6  UNL     1      16.752  35.581  18.556  1.00  0.00    -0.067 NA
HETATM   31  N7  UNL     1      16.635  36.994  16.570  1.00  0.00    -0.067 NA
ATOM     32  H5  UNL     1      17.841  37.588  19.539  1.00  0.00     0.161 HD
ENDBRANCH  27  28
ENDBRANCH  26  27
ENDBRANCH  25  26
ENDBRANCH  24  25
ENDBRANCH  23  24
ENDBRANCH  19  23
ENDBRANCH  12  15
ENDBRANCH   6  12
BRANCH   1  33
HETATM   33  C3  UNL     1      16.355  31.319  14.234  1.00  0.00     0.033 C 
BRANCH  33  34
HETATM   34  C2  UNL     1      15.574  32.160  15.191  1.00  0.00    -0.002 C 
HETATM   35  C1  UNL     1      15.627  33.632  14.817  1.00  0.00     0.005 C 
ENDBRANCH  33  34
ENDBRANCH   1  33
BRANCH   9  36
HETATM   36  C20 UNL     1      20.267  28.953  11.985  1.00  0.00     0.076 C 
BRANCH  36  37
HETATM   37  C21 UNL     1      21.098  28.196  12.918  1.00  0.00     0.048 C 
BRANCH  37  38
HETATM   38  C22 UNL     1      22.522  28.036  12.606  1.00  0.00    -0.055 A 
HETATM   39  C23 UNL     1      23.486  28.821  13.175  1.00  0.00     0.008 A 
HETATM   40  C24 UNL     1      24.833  28.625  12.846  1.00  0.00     0.018 A 
HETATM   41  C25 UNL     1      25.227  27.647  11.950  1.00  0.00     0.037 A 
HETATM   42  C26 UNL     1      26.437  27.224  11.442  1.00  0.00     0.126 A 
HETATM   43  C27 UNL     1      24.265  26.851  11.373  1.00  0.00     0.062 A 
HETATM   44  N9  UNL     1      26.200  26.205  10.586  1.00  0.00    -0.285 N 
HETATM   45  N10 UNL     1      24.902  25.982  10.545  1.00  0.00    -0.298 N 
ATOM     46  H9  UNL     1      26.908  25.693  10.060  1.00  0.00     0.188 HD
ATOM     47  H10 UNL     1      24.445  25.267   9.978  1.00  0.00     0.187 HD
HETATM   48  C28 UNL     1      22.948  27.059  11.707  1.00  0.00     0.039 A 
BRANCH  42  49
HETATM   49  N8  UNL     1      27.600  27.705  11.723  1.00  0.00    -0.384 N 
ATOM     50  H82 UNL     1      27.813  28.693  11.854  1.00  0.00     0.157 HD
ATOM     51  H81 UNL     1      28.463  27.175  11.854  1.00  0.00     0.157 HD
ENDBRANCH  42  49
ENDBRANCH  37  38
ENDBRANCH  36  37
ENDBRANCH   9  36
TORSDOF 15
ENDMDL
MODEL 4
REMARK VINA RESULT: -9.691526088      1.637      2.726
REMARK  15 active torsions:
REMARK  status: ('A' for Active; 'I' for Inactive)
REMARK    1  A    between atoms: C2_2  and  C3_3 
REMARK    2  A    between atoms: C3_3  and  C4_4 
REMARK    3  A    between atoms: N2_9  and  C6_10 
REMARK    4  A    between atoms: C6_10  and  O2_11 
REMARK    5  A    between atoms: C6_10  and  N3_13 
REMARK       I    between atoms: N4_16  and  C9_17 
REMARK    6  A    between atoms: C9_17  and  C10_19 
REMARK    7  A    between atoms: C10_19  and  C11_20 
REMARK    8  A    between atoms: C11_20  and  C12_21 
REMARK    9  A    between atoms: C12_21  and  C13_22 
REMARK   10  A    between atoms: C13_22  and  C14_23 
REMARK   11  A    between atoms: C14_23  and  N5_24 
REMARK   12  A    between atoms: S1_33  and  C20_34 
REMARK   13  A    between atoms: C20_34  and  C21_35 
REMARK   14  A    between atoms: C21_35  and  C22_36 
REMARK   15  A    between atoms: C26_40  and  N8_41 
ROOT
HETATM    1  C4  UNL     1      18.372  29.184  13.835  1.00  0.00     0.166 C 
HETATM    2  N1  UNL     1      17.675  29.976  14.867  1.00  0.00    -0.330 N 
ATOM      3  H1  UNL     1      16.959  29.474  15.392  1.00  0.00     0.165 HD
HETATM    4  C5  UNL     1      17.860  31.361  15.244  1.00  0.00     0.326 C 
HETATM    5  O1  UNL     1      16.789  31.854  15.672  1.00  0.00    -0.247 OA
HETATM    6  N2  UNL     1      18.952  32.242  15.224  1.00  0.00    -0.265 N 
HETATM    7  C18 UNL     1      19.898  32.537  14.126  1.00  0.00     0.147 C 
HETATM    8  C19 UNL     1      21.160  31.774  14.405  1.00  0.00     0.091 C 
HETATM    9  S1  UNL     1      21.179  30.202  13.534  1.00  0.00    -0.147 SA
HETATM   10  C29 UNL     1      19.826  29.185  13.992  1.00  0.00     0.199 C 
HETATM   11  O4  UNL     1      20.182  28.180  14.627  1.00  0.00    -0.284 OA
ENDROOT
BRANCH   6  12
HETATM   12  C6  UNL     1      19.173  33.023  16.343  1.00  0.00     0.225 C 
BRANCH  12  13
HETATM   13  O2  UNL     1      20.170  32.554  17.129  1.00  0.00    -0.332 OA
ATOM     14  H2  UNL     1      19.935  32.525  18.049  1.00  0.00     0.221 HD
ENDBRANCH  12  13
BRANCH  12  15
HETATM   15  N3  UNL     1      18.626  34.184  16.888  1.00  0.00    -0.344 N 
HETATM   16  C7  UNL     1      17.671  34.909  16.020  1.00  0.00     0.146 C 
HETATM   17  C8  UNL     1      16.943  35.919  16.864  1.00  0.00     0.145 C 
HETATM   18  N4  UNL     1      17.915  36.840  17.394  1.00  0.00    -0.349 N 
HETATM   19  C9  UNL     1      17.779  38.232  17.210  1.00  0.00     0.219 C 
HETATM   20  C16 UNL     1      19.048  36.303  18.098  1.00  0.00     0.145 C 
HETATM   21  O3  UNL     1      16.762  38.599  16.532  1.00  0.00    -0.273 OA
HETATM   22  C17 UNL     1      18.973  34.766  18.142  1.00  0.00     0.146 C 
BRANCH  19  23
HETATM   23  C10 UNL     1      18.770  39.147  17.783  1.00  0.00     0.103 C 
BRANCH  23  24
HETATM   24  C11 UNL     1      19.294  40.113  16.793  1.00  0.00     0.009 C 
BRANCH  24  25
HETATM   25  C12 UNL     1      20.575  39.741  16.146  1.00  0.00     0.002 C 
BRANCH  25  26
HETATM   26  C13 UNL     1      21.492  38.929  17.075  1.00  0.00     0.020 C 
BRANCH  26  27
HETATM   27  C14 UNL     1      22.137  37.858  16.212  1.00  0.00     0.122 C 
BRANCH  27  28
HETATM   28  N5  UNL     1      22.418  36.690  17.021  1.00  0.00    -0.367 N 
HETATM   29  C15 UNL     1      22.320  35.490  16.587  1.00  0.00     0.196 C 
HETATM   30  N6  UNL     1      22.614  34.407  17.443  1.00  0.00    -0.067 NA
HETATM   31  N7  UNL     1      21.923  35.238  15.256  1.00  0.00    -0.067 NA
ATOM     32  H5  UNL     1      22.710  36.832  17.988  1.00  0.00     0.161 HD
ENDBRANCH  27  28
ENDBRANCH  26  27
ENDBRANCH  25  26
ENDBRANCH  24  25
ENDBRANCH  23  24
ENDBRANCH  19  23
ENDBRANCH  12  15
ENDBRANCH   6  12
BRANCH   1  33
HETATM   33  C3  UNL     1      17.853  29.651  12.506  1.00  0.00     0.033 C 
BRANCH  33  34
HETATM   34  C2  UNL     1      17.795  28.600  11.444  1.00  0.00    -0.002 C 
HETATM   35  C1  UNL     1      16.366  28.168  11.160  1.00  0.00     0.005 C 
ENDBRANCH  33  34
ENDBRANCH   1  33
BRANCH   9  36
HETATM   36  C20 UNL     1      22.713  29.430  14.021  1.00  0.00     0.076 C 
BRANCH  36  37
HETATM   37  C21 UNL     1      23.793  29.386  13.039  1.00  0.00     0.048 C 
BRANCH  37  38
HETATM   38  C22 UNL     1      23.865  28.230  12.137  1.00  0.00    -0.055 A 
HETATM   39  C23 UNL     1      25.051  27.642  11.798  1.00  0.00     0.008 A 
HETATM   40  C24 UNL     1      25.065  26.538  10.936  1.00  0.00     0.018 A 
HETATM   41  C25 UNL     1      23.898  26.015  10.409  1.00  0.00     0.037 A 
HETATM   42  C26 UNL     1      23.597  24.969   9.562  1.00  0.00     0.126 A 
HETATM   43  C27 UNL     1      22.699  26.600  10.744  1.00  0.00     0.062 A 
HETATM   44  N9  UNL     1      22.255  24.933   9.399  1.00  0.00    -0.285 N 
HETATM   45  N10 UNL     1      21.718  25.908  10.105  1.00  0.00    -0.298 N 
ATOM     46  H9  UNL     1      21.743  24.264   8.824  1.00  0.00     0.188 HD
ATOM     47  H10 UNL     1      20.721  26.112  10.163  1.00  0.00     0.187 HD
HETATM   48  C28 UNL     1      22.705  27.682  11.590  1.00  0.00     0.039 A 
BRANCH  42  49
HETATM   49  N8  UNL     1      24.435  24.157   9.013  1.00  0.00    -0.384 N 
ATOM     50  H82 UNL     1      24.482  23.153   9.186  1.00  0.00     0.157 HD
ATOM     51  H81 UNL     1      25.162  24.397   8.339  1.00  0.00     0.157 HD
ENDBRANCH  42  49
ENDBRANCH  37  38
ENDBRANCH  36  37
ENDBRANCH   9  36
TORSDOF 15
ENDMDL
MODEL 5
REMARK VINA RESULT: -9.637937330      2.110      3.392
REMARK  15 active torsions:
REMARK  status: ('A' for Active; 'I' for Inactive)
REMARK    1  A    between atoms: C2_2  and  C3_3 
REMARK    2  A    between atoms: C3_3  and  C4_4 
REMARK    3  A    between atoms: N2_9  and  C6_10 
REMARK    4  A    between atoms: C6_10  and  O2_11 
REMARK    5  A    between atoms: C6_10  and  N3_13 
REMARK       I    between atoms: N4_16  and  C9_17 
REMARK    6  A    between atoms: C9_17  and  C10_19 
REMARK    7  A    between atoms: C10_19  and  C11_20 
REMARK    8  A    between atoms: C11_20  and  C12_21 
REMARK    9  A    between atoms: C12_21  and  C13_22 
REMARK   10  A    between atoms: C13_22  and  C14_23 
REMARK   11  A    between atoms: C14_23  and  N5_24 
REMARK   12  A    between atoms: S1_33  and  C20_34 
REMARK   13  A    between atoms: C20_34  and  C21_35 
REMARK   14  A    between atoms: C21_35  and  C22_36 
REMARK   15  A    between atoms: C26_40  and  N8_41 
ROOT
HETATM    1  C4  UNL     1      19.062  30.209  15.393  1.00  0.00     0.166 C 
HETATM    2  N1  UNL     1      19.049  31.266  16.423  1.00  0.00    -0.330 N 
ATOM      3  H1  UNL     1      18.501  31.055  17.258  1.00  0.00     0.165 HD
HETATM    4  C5  UNL     1      19.700  32.558  16.422  1.00  0.00     0.326 C 
HETATM    5  O1  UNL     1      19.044  33.390  17.094  1.00  0.00    -0.247 OA
HETATM    6  N2  UNL     1      20.874  33.061  15.840  1.00  0.00    -0.265 N 
HETATM    7  C18 UNL     1      21.346  32.953  14.443  1.00  0.00     0.147 C 
HETATM    8  C19 UNL     1      22.388  31.873  14.404  1.00  0.00     0.091 C 
HETATM    9  S1  UNL     1      21.675  30.296  13.919  1.00  0.00    -0.147 SA
HETATM   10  C29 UNL     1      20.411  29.783  15.022  1.00  0.00     0.199 C 
HETATM   11  O4  UNL     1      20.733  28.781  15.678  1.00  0.00    -0.284 OA
ENDROOT
BRANCH   6  12
HETATM   12  C6  UNL     1      21.704  33.838  16.626  1.00  0.00     0.225 C 
BRANCH  12  13
HETATM   13  O2  UNL     1      22.195  33.173  17.698  1.00  0.00    -0.332 OA
ATOM     14  H2  UNL     1      22.993  33.557  18.040  1.00  0.00     0.221 HD
ENDBRANCH  12  13
BRANCH  12  15
HETATM   15  N3  UNL     1      22.172  35.151  16.609  1.00  0.00    -0.344 N 
HETATM   16  C7  UNL     1      22.297  35.802  17.934  1.00  0.00     0.146 C 
HETATM   17  C8  UNL     1      23.109  37.057  17.765  1.00  0.00     0.145 C 
HETATM   18  N4  UNL     1      22.402  37.926  16.860  1.00  0.00    -0.349 N 
HETATM   19  C9  UNL     1      22.087  39.254  17.219  1.00  0.00     0.219 C 
HETATM   20  C16 UNL     1      22.000  37.399  15.585  1.00  0.00     0.145 C 
HETATM   21  O3  UNL     1      22.449  39.605  18.391  1.00  0.00    -0.273 OA
HETATM   22  C17 UNL     1      22.442  35.931  15.447  1.00  0.00     0.146 C 
BRANCH  19  23
HETATM   23  C10 UNL     1      21.389  40.124  16.269  1.00  0.00     0.103 C 
BRANCH  23  24
HETATM   24  C11 UNL     1      19.931  39.880  16.235  1.00  0.00     0.009 C 
BRANCH  24  25
HETATM   25  C12 UNL     1      19.287  39.644  17.549  1.00  0.00     0.002 C 
BRANCH  25  26
HETATM   26  C13 UNL     1      18.882  38.175  17.755  1.00  0.00     0.020 C 
BRANCH  26  27
HETATM   27  C14 UNL     1      17.367  38.131  17.661  1.00  0.00     0.122 C 
BRANCH  27  28
HETATM   28  N5  UNL     1      16.882  36.900  18.253  1.00  0.00    -0.367 N 
HETATM   29  C15 UNL     1      16.420  35.922  17.568  1.00  0.00     0.196 C 
HETATM   30  N6  UNL     1      15.969  34.757  18.224  1.00  0.00    -0.067 NA
HETATM   31  N7  UNL     1      16.360  35.996  16.160  1.00  0.00    -0.067 NA
ATOM     32  H5  UNL     1      16.912  36.808  19.268  1.00  0.00     0.161 HD
ENDBRANCH  27  28
ENDBRANCH  26  27
ENDBRANCH  25  26
ENDBRANCH  24  25
ENDBRANCH  23  24
ENDBRANCH  19  23
ENDBRANCH  12  15
ENDBRANCH   6  12
BRANCH   1  33
HETATM   33  C3  UNL     1      18.189  30.687  14.269  1.00  0.00     0.033 C 
BRANCH  33  34
HETATM   34  C2  UNL     1      16.720  30.594  14.524  1.00  0.00    -0.002 C 
HETATM   35  C1  UNL     1      16.140  31.930  14.956  1.00  0.00     0.005 C 
ENDBRANCH  33  34
ENDBRANCH   1  33
BRANCH   9  36
HETATM   36  C20 UNL     1      23.036  29.144  13.975  1.00  0.00     0.076 C 
BRANCH  36  37
HETATM   37  C21 UNL     1      24.033  29.217  12.910  1.00  0.00     0.048 C 
BRANCH  37  38
HETATM   38  C22 UNL     1      24.088  28.122  11.935  1.00  0.00    -0.055 A 
HETATM   39  C23 UNL     1      25.269  27.653  11.430  1.00  0.00     0.008 A 
HETATM   40  C24 UNL     1      25.267  26.604  10.504  1.00  0.00     0.018 A 
HETATM   41  C25 UNL     1      24.090  26.015  10.076  1.00  0.00     0.037 A 
HETATM   42  C26 UNL     1      23.773  24.995   9.203  1.00  0.00     0.126 A 
HETATM   43  C27 UNL     1      22.896  26.479  10.578  1.00  0.00     0.062 A 
HETATM   44  N9  UNL     1      22.429  24.858   9.187  1.00  0.00    -0.285 N 
HETATM   45  N10 UNL     1      21.904  25.745  10.009  1.00  0.00    -0.298 N 
ATOM     46  H9  UNL     1      21.907  24.181   8.631  1.00  0.00     0.188 HD
ATOM     47  H10 UNL     1      20.908  25.862  10.190  1.00  0.00     0.187 HD
HETATM   48  C28 UNL     1      22.918  27.511  11.485  1.00  0.00     0.039 A 
BRANCH  42  49
HETATM   49  N8  UNL     1      24.603  24.287   8.514  1.00  0.00    -0.384 N 
ATOM     50  H82 UNL     1      25.516  24.602   8.187  1.00  0.00     0.157 HD
ATOM     51  H81 UNL     1      24.468  23.325   8.201  1.00  0.00     0.157 HD
ENDBRANCH  42  49
ENDBRANCH  37  38
ENDBRANCH  36  37
ENDBRANCH   9  36
TORSDOF 15
ENDMDL
