MODEL 1
REMARK VINA RESULT: -7.979084559      0.000      0.000
REMARK  11 active torsions:
REMARK  status: ('A' for Active; 'I' for Inactive)
REMARK    1  A    between atoms: C5_8  and  C6_9 
REMARK    2  A    between atoms: C6_9  and  C7_10 
REMARK    3  A    between atoms: C7_10  and  C8_11 
REMARK    4  A    between atoms: C8_11  and  C9_12 
REMARK    5  A    between atoms: C9_12  and  N3_13 
REMARK    6  A    between atoms: C15_25  and  C16_26 
REMARK    7  A    between atoms: N5_36  and  C26_37 
REMARK    8  A    between atoms: C26_37  and  C27_38 
REMARK    9  A    between atoms: C27_38  and  C28_39 
REMARK   10  A    between atoms: C28_39  and  N6_40 
REMARK   11  A    between atoms: N9_48  and  N10_50 
ROOT
HETATM    1  C1  UNL     1      22.371  31.860  14.366  1.00  0.00     0.024 C 
HETATM    2  C2  UNL     1      21.292  30.870  13.898  1.00  0.00     0.017 C 
HETATM    3  C3  UNL     1      20.346  31.671  13.011  1.00  0.00     0.144 C 
HETATM    4  N1  UNL     1      19.132  31.856  13.786  1.00  0.00    -0.312 N 
HETATM    5  C4  UNL     1      18.840  33.259  14.050  1.00  0.00     0.322 C 
HETATM    6  O1  UNL     1      19.287  34.070  13.239  1.00  0.00    -0.247 OA
HETATM    7  N2  UNL     1      18.049  33.495  15.267  1.00  0.00    -0.323 N 
HETATM    8  C5  UNL     1      16.764  34.014  15.554  1.00  0.00     0.107 C 
HETATM    9  C10 UNL     1      15.739  33.039  14.893  1.00  0.00     0.148 C 
HETATM   10  N4  UNL     1      16.191  31.744  15.353  1.00  0.00    -0.357 N 
ATOM     11  H4  UNL     1      15.563  31.351  16.054  1.00  0.00     0.162 HD
HETATM   12  C11 UNL     1      17.259  30.901  15.085  1.00  0.00     0.249 C 
HETATM   13  O2  UNL     1      17.039  29.907  15.892  1.00  0.00    -0.271 OA
HETATM   14  C12 UNL     1      18.529  30.651  14.284  1.00  0.00     0.147 C 
HETATM   15  C13 UNL     1      19.376  30.607  15.612  1.00  0.00     0.033 C 
HETATM   16  C14 UNL     1      19.477  31.779  16.373  1.00  0.00     0.034 C 
HETATM   17  C15 UNL     1      18.529  32.964  16.536  1.00  0.00     0.094 C 
HETATM   18  C21 UNL     1      20.683  30.148  15.027  1.00  0.00     0.008 C 
HETATM   19  C22 UNL     1      20.403  28.683  14.796  1.00  0.00     0.009 C 
HETATM   20  C23 UNL     1      18.933  28.386  14.430  1.00  0.00     0.035 C 
HETATM   21  C24 UNL     1      18.493  29.443  13.491  1.00  0.00     0.067 C 
HETATM   22  C25 UNL     1      17.020  29.536  13.050  1.00  0.00     0.042 C 
HETATM   23  N5  UNL     1      18.978  28.917  12.324  1.00  0.00    -0.361 N 
HETATM   24  C30 UNL     1      20.255  28.758  11.831  1.00  0.00     0.070 C 
HETATM   25  C31 UNL     1      21.456  29.520  11.823  1.00  0.00     0.099 C 
HETATM   26  C32 UNL     1      22.057  29.881  13.101  1.00  0.00     0.020 C 
HETATM   27  N9  UNL     1      23.195  29.415  13.561  1.00  0.00    -0.294 N 
ATOM     28  H9  UNL     1      23.526  29.750  14.466  1.00  0.00     0.188 HD
ENDROOT
BRANCH   8  29
HETATM   29  C6  UNL     1      16.355  35.395  15.374  1.00  0.00     0.027 C 
BRANCH  29  30
HETATM   30  C7  UNL     1      16.137  36.364  16.443  1.00  0.00     0.004 C 
BRANCH  30  31
HETATM   31  C8  UNL     1      17.038  37.539  16.581  1.00  0.00     0.027 C 
BRANCH  31  32
HETATM   32  C9  UNL     1      16.341  38.539  17.552  1.00  0.00     0.229 C 
BRANCH  32  33
HETATM   33  N3  UNL     1      16.870  38.243  18.864  1.00  0.00    -0.079 N 
ATOM     34  H33 UNL     1      17.644  37.579  18.852  1.00  0.00     0.274 HD
ATOM     35  H32 UNL     1      17.381  39.019  19.284  1.00  0.00     0.274 HD
ATOM     36  H31 UNL     1      16.072  37.931  19.419  1.00  0.00     0.274 HD
ENDBRANCH  32  33
ENDBRANCH  31  32
ENDBRANCH  30  31
ENDBRANCH  29  30
ENDBRANCH   8  29
BRANCH  17  37
HETATM   37  C16 UNL     1      19.295  33.909  17.417  1.00  0.00     0.009 C 
HETATM   38  C17 UNL     1      18.623  34.903  18.226  1.00  0.00     0.007 C 
HETATM   39  C18 UNL     1      19.661  35.986  18.473  1.00  0.00     0.000 C 
HETATM   40  C19 UNL     1      20.864  35.623  17.649  1.00  0.00     0.000 C 
HETATM   41  C20 UNL     1      20.359  34.662  16.586  1.00  0.00     0.007 C 
ENDBRANCH  17  37
BRANCH  23  42
HETATM   42  C26 UNL     1      18.324  27.747  11.817  1.00  0.00     0.066 C 
BRANCH  42  43
HETATM   43  C27 UNL     1      18.242  27.000  10.613  1.00  0.00     0.064 C 
BRANCH  43  44
HETATM   44  C28 UNL     1      18.673  25.546  10.974  1.00  0.00     0.127 C 
BRANCH  44  45
HETATM   45  N6  UNL     1      19.971  25.510  11.554  1.00  0.00    -0.367 N 
HETATM   46  C29 UNL     1      21.009  25.286  10.864  1.00  0.00     0.196 C 
HETATM   47  N7  UNL     1      22.271  25.260  11.484  1.00  0.00    -0.067 NA
HETATM   48  N8  UNL     1      20.911  25.060   9.451  1.00  0.00    -0.067 NA
ATOM     49  H6  UNL     1      20.069  25.668  12.557  1.00  0.00     0.161 HD
ENDBRANCH  44  45
ENDBRANCH  43  44
ENDBRANCH  42  43
ENDBRANCH  23  42
BRANCH  27  50
HETATM   50  N10 UNL     1      23.959  28.500  12.888  1.00  0.00    -0.249 N 
HETATM   51  N11 UNL     1      25.137  28.788  12.540  1.00  0.00    -0.331 N 
ATOM     52 2H11 UNL     1      25.507  29.711  12.769  1.00  0.00     0.178 HD
ATOM     53 1H11 UNL     1      25.706  28.107  12.038  1.00  0.00     0.178 HD
ATOM     54  H10 UNL     1      23.574  27.582  12.667  1.00  0.00     0.207 HD
ENDBRANCH  27  50
TORSDOF 11
ENDMDL
MODEL 2
REMARK VINA RESULT: -7.527650483      0.932      1.139
REMARK  11 active torsions:
REMARK  status: ('A' for Active; 'I' for Inactive)
REMARK    1  A    between atoms: C5_8  and  C6_9 
REMARK    2  A    between atoms: C6_9  and  C7_10 
REMARK    3  A    between atoms: C7_10  and  C8_11 
REMARK    4  A    between atoms: C8_11  and  C9_12 
REMARK    5  A    between atoms: C9_12  and  N3_13 
REMARK    6  A    between atoms: C15_25  and  C16_26 
REMARK    7  A    between atoms: N5_36  and  C26_37 
REMARK    8  A    between atoms: C26_37  and  C27_38 
REMARK    9  A    between atoms: C27_38  and  C28_39 
REMARK   10  A    between atoms: C28_39  and  N6_40 
REMARK   11  A    between atoms: N9_48  and  N10_50 
ROOT
HETATM    1  C1  UNL     1      22.415  31.866  14.419  1.00  0.00     0.024 C 
HETATM    2  C2  UNL     1      21.349  30.871  13.934  1.00  0.00     0.017 C 
HETATM    3  C3  UNL     1      20.412  31.668  13.034  1.00  0.00     0.144 C 
HETATM    4  N1  UNL     1      19.186  31.845  13.790  1.00  0.00    -0.312 N 
HETATM    5  C4  UNL     1      18.882  33.246  14.053  1.00  0.00     0.322 C 
HETATM    6  O1  UNL     1      19.337  34.061  13.250  1.00  0.00    -0.247 OA
HETATM    7  N2  UNL     1      18.071  33.475  15.257  1.00  0.00    -0.323 N 
HETATM    8  C5  UNL     1      16.779  33.987  15.526  1.00  0.00     0.107 C 
HETATM    9  C10 UNL     1      15.770  33.008  14.847  1.00  0.00     0.148 C 
HETATM   10  N4  UNL     1      16.222  31.715  15.312  1.00  0.00    -0.357 N 
ATOM     11  H4  UNL     1      15.586  31.317  16.003  1.00  0.00     0.162 HD
HETATM   12  C11 UNL     1      17.298  30.878  15.059  1.00  0.00     0.249 C 
HETATM   13  O2  UNL     1      17.072  29.881  15.861  1.00  0.00    -0.271 OA
HETATM   14  C12 UNL     1      18.581  30.636  14.277  1.00  0.00     0.147 C 
HETATM   15  C13 UNL     1      19.409  30.594  15.617  1.00  0.00     0.033 C 
HETATM   16  C14 UNL     1      19.492  31.765  16.382  1.00  0.00     0.034 C 
HETATM   17  C15 UNL     1      18.535  32.944  16.533  1.00  0.00     0.094 C 
HETATM   18  C21 UNL     1      20.726  30.143  15.052  1.00  0.00     0.008 C 
HETATM   19  C22 UNL     1      20.458  28.677  14.814  1.00  0.00     0.009 C 
HETATM   20  C23 UNL     1      18.996  28.373  14.425  1.00  0.00     0.035 C 
HETATM   21  C24 UNL     1      18.564  29.429  13.481  1.00  0.00     0.067 C 
HETATM   22  C25 UNL     1      17.097  29.515  13.019  1.00  0.00     0.042 C 
HETATM   23  N5  UNL     1      19.069  28.908  12.321  1.00  0.00    -0.361 N 
HETATM   24  C30 UNL     1      20.355  28.756  11.848  1.00  0.00     0.070 C 
HETATM   25  C31 UNL     1      21.551  29.525  11.859  1.00  0.00     0.099 C 
HETATM   26  C32 UNL     1      22.132  29.887  13.146  1.00  0.00     0.020 C 
HETATM   27  N9  UNL     1      23.265  29.426  13.623  1.00  0.00    -0.294 N 
ATOM     28  H9  UNL     1      23.580  29.762  14.533  1.00  0.00     0.188 HD
ENDROOT
BRANCH   8  29
HETATM   29  C6  UNL     1      16.366  35.366  15.342  1.00  0.00     0.027 C 
BRANCH  29  30
HETATM   30  C7  UNL     1      16.144  36.337  16.409  1.00  0.00     0.004 C 
BRANCH  30  31
HETATM   31  C8  UNL     1      17.071  37.487  16.577  1.00  0.00     0.027 C 
BRANCH  31  32
HETATM   32  C9  UNL     1      16.377  38.499  17.537  1.00  0.00     0.229 C 
BRANCH  32  33
HETATM   33  N3  UNL     1      16.867  38.182  18.859  1.00  0.00    -0.079 N 
ATOM     34  H33 UNL     1      17.123  37.202  18.976  1.00  0.00     0.274 HD
ATOM     35  H32 UNL     1      17.788  38.573  19.058  1.00  0.00     0.274 HD
ATOM     36  H31 UNL     1      16.142  38.496  19.505  1.00  0.00     0.274 HD
ENDBRANCH  32  33
ENDBRANCH  31  32
ENDBRANCH  30  31
ENDBRANCH  29  30
ENDBRANCH   8  29
BRANCH  17  37
HETATM   37  C16 UNL     1      19.282  33.893  17.427  1.00  0.00     0.009 C 
HETATM   38  C17 UNL     1      18.592  34.871  18.239  1.00  0.00     0.007 C 
HETATM   39  C18 UNL     1      19.614  35.965  18.502  1.00  0.00     0.000 C 
HETATM   40  C19 UNL     1      20.828  35.624  17.684  1.00  0.00     0.000 C 
HETATM   41  C20 UNL     1      20.343  34.665  16.610  1.00  0.00     0.007 C 
ENDBRANCH  17  37
BRANCH  23  42
HETATM   42  C26 UNL     1      18.430  27.735  11.802  1.00  0.00     0.066 C 
BRANCH  42  43
HETATM   43  C27 UNL     1      18.771  26.543  11.113  1.00  0.00     0.064 C 
BRANCH  43  44
HETATM   44  C28 UNL     1      18.253  26.721   9.654  1.00  0.00     0.127 C 
BRANCH  44  45
HETATM   45  N6  UNL     1      19.251  26.396   8.695  1.00  0.00    -0.367 N 
HETATM   46  C29 UNL     1      19.208  25.327   8.017  1.00  0.00     0.196 C 
HETATM   47  N7  UNL     1      20.219  25.050   7.081  1.00  0.00    -0.067 NA
HETATM   48  N8  UNL     1      18.133  24.394   8.193  1.00  0.00    -0.067 NA
ATOM     49  H6  UNL     1      20.026  27.042   8.550  1.00  0.00     0.161 HD
ENDBRANCH  44  45
ENDBRANCH  43  44
ENDBRANCH  42  43
ENDBRANCH  23  42
BRANCH  27  50
HETATM   50  N10 UNL     1      24.044  28.517  12.960  1.00  0.00    -0.249 N 
HETATM   51  N11 UNL     1      25.208  28.828  12.587  1.00  0.00    -0.331 N 
ATOM     52 2H11 UNL     1      25.555  29.766  12.789  1.00  0.00     0.178 HD
ATOM     53 1H11 UNL     1      25.788  28.151  12.093  1.00  0.00     0.178 HD
ATOM     54  H10 UNL     1      23.681  27.583  12.766  1.00  0.00     0.207 HD
ENDBRANCH  27  50
TORSDOF 11
ENDMDL
MODEL 3
REMARK VINA RESULT: -7.027010267      2.130      8.466
REMARK  11 active torsions:
REMARK  status: ('A' for Active; 'I' for Inactive)
REMARK    1  A    between atoms: C5_8  and  C6_9 
REMARK    2  A    between atoms: C6_9  and  C7_10 
REMARK    3  A    between atoms: C7_10  and  C8_11 
REMARK    4  A    between atoms: C8_11  and  C9_12 
REMARK    5  A    between atoms: C9_12  and  N3_13 
REMARK    6  A    between atoms: C15_25  and  C16_26 
REMARK    7  A    between atoms: N5_36  and  C26_37 
REMARK    8  A    between atoms: C26_37  and  C27_38 
REMARK    9  A    between atoms: C27_38  and  C28_39 
REMARK   10  A    between atoms: C28_39  and  N6_40 
REMARK   11  A    between atoms: N9_48  and  N10_50 
ROOT
HETATM    1  C1  UNL     1      22.760  31.827  15.549  1.00  0.00     0.024 C 
HETATM    2  C2  UNL     1      21.235  31.930  15.388  1.00  0.00     0.017 C 
HETATM    3  C3  UNL     1      20.676  30.583  15.830  1.00  0.00     0.144 C 
HETATM    4  N1  UNL     1      20.258  29.905  14.617  1.00  0.00    -0.312 N 
HETATM    5  C4  UNL     1      20.983  28.663  14.385  1.00  0.00     0.322 C 
HETATM    6  O1  UNL     1      21.434  28.102  15.384  1.00  0.00    -0.247 OA
HETATM    7  N2  UNL     1      21.072  28.268  12.972  1.00  0.00    -0.323 N 
HETATM    8  C5  UNL     1      20.598  27.186  12.192  1.00  0.00     0.107 C 
HETATM    9  C10 UNL     1      19.039  27.270  12.228  1.00  0.00     0.148 C 
HETATM   10  N4  UNL     1      18.788  28.655  11.897  1.00  0.00    -0.357 N 
ATOM     11  H4  UNL     1      18.410  28.757  10.955  1.00  0.00     0.162 HD
HETATM   12  C11 UNL     1      18.929  29.880  12.532  1.00  0.00     0.249 C 
HETATM   13  O2  UNL     1      18.529  30.715  11.621  1.00  0.00    -0.271 OA
HETATM   14  C12 UNL     1      19.338  30.636  13.789  1.00  0.00     0.147 C 
HETATM   15  C13 UNL     1      20.453  31.404  12.983  1.00  0.00     0.033 C 
HETATM   16  C14 UNL     1      21.524  30.665  12.462  1.00  0.00     0.034 C 
HETATM   17  C15 UNL     1      21.622  29.211  12.007  1.00  0.00     0.094 C 
HETATM   18  C21 UNL     1      20.855  32.391  14.042  1.00  0.00     0.008 C 
HETATM   19  C22 UNL     1      19.707  33.370  13.983  1.00  0.00     0.009 C 
HETATM   20  C23 UNL     1      18.356  32.716  13.623  1.00  0.00     0.035 C 
HETATM   21  C24 UNL     1      18.278  31.434  14.362  1.00  0.00     0.067 C 
HETATM   22  C25 UNL     1      17.123  30.449  14.104  1.00  0.00     0.042 C 
HETATM   23  N5  UNL     1      17.827  31.902  15.566  1.00  0.00    -0.361 N 
HETATM   24  C30 UNL     1      18.421  32.649  16.560  1.00  0.00     0.070 C 
HETATM   25  C31 UNL     1      19.701  32.706  17.178  1.00  0.00     0.099 C 
HETATM   26  C32 UNL     1      20.860  33.000  16.345  1.00  0.00     0.020 C 
HETATM   27  N9  UNL     1      21.573  34.102  16.400  1.00  0.00    -0.294 N 
ATOM     28  H9  UNL     1      22.373  34.193  15.775  1.00  0.00     0.188 HD
ENDROOT
BRANCH   8  29
HETATM   29  C6  UNL     1      21.046  25.810  12.301  1.00  0.00     0.027 C 
BRANCH  29  30
HETATM   30  C7  UNL     1      21.180  24.868  11.194  1.00  0.00     0.004 C 
BRANCH  30  31
HETATM   31  C8  UNL     1      21.293  25.367   9.799  1.00  0.00     0.027 C 
BRANCH  31  32
HETATM   32  C9  UNL     1      19.866  25.306   9.173  1.00  0.00     0.229 C 
BRANCH  32  33
HETATM   33  N3  UNL     1      19.580  26.648   8.721  1.00  0.00    -0.079 N 
ATOM     34  H33 UNL     1      20.254  27.341   9.046  1.00  0.00     0.274 HD
ATOM     35  H32 UNL     1      19.736  26.785   7.723  1.00  0.00     0.274 HD
ATOM     36  H31 UNL     1      18.622  26.839   9.015  1.00  0.00     0.274 HD
ENDBRANCH  32  33
ENDBRANCH  31  32
ENDBRANCH  30  31
ENDBRANCH  29  30
ENDBRANCH   8  29
BRANCH  17  37
HETATM   37  C16 UNL     1      23.074  29.050  11.656  1.00  0.00     0.009 C 
HETATM   38  C17 UNL     1      23.551  27.904  10.913  1.00  0.00     0.007 C 
HETATM   39  C18 UNL     1      25.025  27.784  11.265  1.00  0.00     0.000 C 
HETATM   40  C19 UNL     1      25.295  28.804  12.334  1.00  0.00     0.000 C 
HETATM   41  C20 UNL     1      23.940  29.139  12.934  1.00  0.00     0.007 C 
ENDBRANCH  17  37
BRANCH  23  42
HETATM   42  C26 UNL     1      16.477  32.381  15.613  1.00  0.00     0.066 C 
BRANCH  42  43
HETATM   43  C27 UNL     1      15.685  33.417  15.052  1.00  0.00     0.064 C 
BRANCH  43  44
HETATM   44  C28 UNL     1      15.310  34.363  16.232  1.00  0.00     0.127 C 
BRANCH  44  45
HETATM   45  N6  UNL     1      16.078  35.560  16.213  1.00  0.00    -0.367 N 
HETATM   46  C29 UNL     1      16.676  35.990  17.243  1.00  0.00     0.196 C 
HETATM   47  N7  UNL     1      17.424  37.178  17.174  1.00  0.00    -0.067 NA
HETATM   48  N8  UNL     1      16.601  35.273  18.484  1.00  0.00    -0.067 NA
ATOM     49  H6  UNL     1      16.149  36.088  15.344  1.00  0.00     0.161 HD
ENDBRANCH  44  45
ENDBRANCH  43  44
ENDBRANCH  42  43
ENDBRANCH  23  42
BRANCH  27  50
HETATM   50  N10 UNL     1      21.293  35.135  17.252  1.00  0.00    -0.249 N 
HETATM   51  N11 UNL     1      20.517  36.064  16.895  1.00  0.00    -0.331 N 
ATOM     52 2H11 UNL     1      20.105  36.030  15.963  1.00  0.00     0.178 HD
ATOM     53 1H11 UNL     1      20.309  36.833  17.531  1.00  0.00     0.178 HD
ATOM     54  H10 UNL     1      21.713  35.155  18.182  1.00  0.00     0.207 HD
ENDBRANCH  27  50
TORSDOF 11
ENDMDL
MODEL 4
REMARK VINA RESULT: -6.841305673      1.714      2.276
REMARK  11 active torsions:
REMARK  status: ('A' for Active; 'I' for Inactive)
REMARK    1  A    between atoms: C5_8  and  C6_9 
REMARK    2  A    between atoms: C6_9  and  C7_10 
REMARK    3  A    between atoms: C7_10  and  C8_11 
REMARK    4  A    between atoms: C8_11  and  C9_12 
REMARK    5  A    between atoms: C9_12  and  N3_13 
REMARK    6  A    between atoms: C15_25  and  C16_26 
REMARK    7  A    between atoms: N5_36  and  C26_37 
REMARK    8  A    between atoms: C26_37  and  C27_38 
REMARK    9  A    between atoms: C27_38  and  C28_39 
REMARK   10  A    between atoms: C28_39  and  N6_40 
REMARK   11  A    between atoms: N9_48  and  N10_50 
ROOT
HETATM    1  C1  UNL     1      22.790  30.369  13.430  1.00  0.00     0.024 C 
HETATM    2  C2  UNL     1      21.578  29.536  12.984  1.00  0.00     0.017 C 
HETATM    3  C3  UNL     1      20.707  30.474  12.157  1.00  0.00     0.144 C 
HETATM    4  N1  UNL     1      19.557  30.787  12.985  1.00  0.00    -0.312 N 
HETATM    5  C4  UNL     1      19.454  32.206  13.296  1.00  0.00     0.322 C 
HETATM    6  O1  UNL     1      19.968  32.979  12.487  1.00  0.00    -0.247 OA
HETATM    7  N2  UNL     1      18.745  32.503  14.549  1.00  0.00    -0.323 N 
HETATM    8  C5  UNL     1      17.548  33.170  14.903  1.00  0.00     0.107 C 
HETATM    9  C10 UNL     1      16.384  32.350  14.261  1.00  0.00     0.148 C 
HETATM   10  N4  UNL     1      16.687  30.996  14.670  1.00  0.00    -0.357 N 
ATOM     11  H4  UNL     1      16.042  30.664  15.388  1.00  0.00     0.162 HD
HETATM   12  C11 UNL     1      17.629  30.035  14.338  1.00  0.00     0.249 C 
HETATM   13  O2  UNL     1      17.317  29.052  15.129  1.00  0.00    -0.271 OA
HETATM   14  C12 UNL     1      18.826  29.652  13.478  1.00  0.00     0.147 C 
HETATM   15  C13 UNL     1      19.711  29.464  14.768  1.00  0.00     0.033 C 
HETATM   16  C14 UNL     1      19.988  30.591  15.553  1.00  0.00     0.034 C 
HETATM   17  C15 UNL     1      19.204  31.879  15.784  1.00  0.00     0.094 C 
HETATM   18  C21 UNL     1      20.926  28.862  14.119  1.00  0.00     0.008 C 
HETATM   19  C22 UNL     1      20.456  27.451  13.864  1.00  0.00     0.009 C 
HETATM   20  C23 UNL     1      18.948  27.350  13.553  1.00  0.00     0.035 C 
HETATM   21  C24 UNL     1      18.608  28.482  12.658  1.00  0.00     0.067 C 
HETATM   22  C25 UNL     1      17.142  28.771  12.282  1.00  0.00     0.042 C 
HETATM   23  N5  UNL     1      18.977  27.934  11.460  1.00  0.00    -0.361 N 
HETATM   24  C30 UNL     1      20.205  27.631  10.911  1.00  0.00     0.070 C 
HETATM   25  C31 UNL     1      21.491  28.237  10.871  1.00  0.00     0.099 C 
HETATM   26  C32 UNL     1      22.181  28.482  12.131  1.00  0.00     0.020 C 
HETATM   27  N9  UNL     1      23.269  27.865  12.532  1.00  0.00    -0.294 N 
ATOM     28  H9  UNL     1      23.673  28.130  13.430  1.00  0.00     0.188 HD
ENDROOT
BRANCH   8  29
HETATM   29  C6  UNL     1      17.310  34.596  14.774  1.00  0.00     0.027 C 
BRANCH  29  30
HETATM   30  C7  UNL     1      16.136  35.311  15.265  1.00  0.00     0.004 C 
BRANCH  30  31
HETATM   31  C8  UNL     1      16.170  35.978  16.593  1.00  0.00     0.027 C 
BRANCH  31  32
HETATM   32  C9  UNL     1      16.165  34.852  17.671  1.00  0.00     0.229 C 
BRANCH  32  33
HETATM   33  N3  UNL     1      15.009  34.036  17.378  1.00  0.00    -0.079 N 
ATOM     34  H33 UNL     1      14.350  33.968  18.154  1.00  0.00     0.274 HD
ATOM     35  H32 UNL     1      14.367  34.462  16.710  1.00  0.00     0.274 HD
ATOM     36  H31 UNL     1      15.377  33.135  17.074  1.00  0.00     0.274 HD
ENDBRANCH  32  33
ENDBRANCH  31  32
ENDBRANCH  30  31
ENDBRANCH  29  30
ENDBRANCH   8  29
BRANCH  17  37
HETATM   37  C16 UNL     1      20.115  32.696  16.656  1.00  0.00     0.009 C 
HETATM   38  C17 UNL     1      20.013  34.137  16.719  1.00  0.00     0.007 C 
HETATM   39  C18 UNL     1      21.381  34.616  17.175  1.00  0.00     0.000 C 
HETATM   40  C19 UNL     1      22.270  33.405  17.209  1.00  0.00     0.000 C 
HETATM   41  C20 UNL     1      21.591  32.372  16.327  1.00  0.00     0.007 C 
ENDBRANCH  17  37
BRANCH  23  42
HETATM   42  C26 UNL     1      18.163  26.870  10.953  1.00  0.00     0.066 C 
BRANCH  42  43
HETATM   43  C27 UNL     1      18.267  25.486  10.658  1.00  0.00     0.064 C 
BRANCH  43  44
HETATM   44  C28 UNL     1      17.975  25.343   9.134  1.00  0.00     0.127 C 
BRANCH  44  45
HETATM   45  N6  UNL     1      17.880  26.610   8.494  1.00  0.00    -0.367 N 
HETATM   46  C29 UNL     1      18.529  26.881   7.441  1.00  0.00     0.196 C 
HETATM   47  N7  UNL     1      18.401  28.147   6.845  1.00  0.00    -0.067 NA
HETATM   48  N8  UNL     1      19.395  25.904   6.846  1.00  0.00    -0.067 NA
ATOM     49  H6  UNL     1      17.270  27.321   8.896  1.00  0.00     0.161 HD
ENDBRANCH  44  45
ENDBRANCH  43  44
ENDBRANCH  42  43
ENDBRANCH  23  42
BRANCH  27  50
HETATM   50  N10 UNL     1      23.885  26.883  11.806  1.00  0.00    -0.249 N 
HETATM   51  N11 UNL     1      25.141  26.775  11.818  1.00  0.00    -0.331 N 
ATOM     52 2H11 UNL     1      25.686  27.431  12.377  1.00  0.00     0.178 HD
ATOM     53 1H11 UNL     1      25.601  26.043  11.276  1.00  0.00     0.178 HD
ATOM     54  H10 UNL     1      23.325  26.234  11.251  1.00  0.00     0.207 HD
ENDBRANCH  27  50
TORSDOF 11
ENDMDL
MODEL 5
REMARK VINA RESULT: -6.670660965      1.758      4.181
REMARK  11 active torsions:
REMARK  status: ('A' for Active; 'I' for Inactive)
REMARK    1  A    between atoms: C5_8  and  C6_9 
REMARK    2  A    between atoms: C6_9  and  C7_10 
REMARK    3  A    between atoms: C7_10  and  C8_11 
REMARK    4  A    between atoms: C8_11  and  C9_12 
REMARK    5  A    between atoms: C9_12  and  N3_13 
REMARK    6  A    between atoms: C15_25  and  C16_26 
REMARK    7  A    between atoms: N5_36  and  C26_37 
REMARK    8  A    between atoms: C26_37  and  C27_38 
REMARK    9  A    between atoms: C27_38  and  C28_39 
REMARK   10  A    between atoms: C28_39  and  N6_40 
REMARK   11  A    between atoms: N9_48  and  N10_50 
ROOT
HETATM    1  C1  UNL     1      16.806  30.110  14.151  1.00  0.00     0.024 C 
HETATM    2  C2  UNL     1      18.266  29.792  13.791  1.00  0.00     0.017 C 
HETATM    3  C3  UNL     1      18.997  29.627  15.119  1.00  0.00     0.144 C 
HETATM    4  N1  UNL     1      19.817  30.814  15.275  1.00  0.00    -0.312 N 
HETATM    5  C4  UNL     1      19.457  31.599  16.448  1.00  0.00     0.322 C 
HETATM    6  O1  UNL     1      18.931  30.982  17.374  1.00  0.00    -0.247 OA
HETATM    7  N2  UNL     1      19.778  33.030  16.343  1.00  0.00    -0.323 N 
HETATM    8  C5  UNL     1      20.644  33.925  17.015  1.00  0.00     0.107 C 
HETATM    9  C10 UNL     1      22.096  33.423  16.737  1.00  0.00     0.148 C 
HETATM   10  N4  UNL     1      22.100  33.244  15.301  1.00  0.00    -0.357 N 
ATOM     11  H4  UNL     1      22.647  33.966  14.831  1.00  0.00     0.162 HD
HETATM   12  C11 UNL     1      21.551  32.344  14.401  1.00  0.00     0.249 C 
HETATM   13  O2  UNL     1      21.950  32.814  13.257  1.00  0.00    -0.271 OA
HETATM   14  C12 UNL     1      20.713  31.092  14.185  1.00  0.00     0.147 C 
HETATM   15  C13 UNL     1      19.665  31.918  13.348  1.00  0.00     0.033 C 
HETATM   16  C14 UNL     1      18.931  32.916  14.002  1.00  0.00     0.034 C 
HETATM   17  C15 UNL     1      19.263  33.788  15.210  1.00  0.00     0.094 C 
HETATM   18  C21 UNL     1      18.827  30.775  12.849  1.00  0.00     0.008 C 
HETATM   19  C22 UNL     1      19.711  30.213  11.762  1.00  0.00     0.009 C 
HETATM   20  C23 UNL     1      21.219  30.350  12.062  1.00  0.00     0.035 C 
HETATM   21  C24 UNL     1      21.412  30.031  13.496  1.00  0.00     0.067 C 
HETATM   22  C25 UNL     1      22.785  30.228  14.164  1.00  0.00     0.042 C 
HETATM   23  N5  UNL     1      21.466  28.666  13.413  1.00  0.00    -0.361 N 
HETATM   24  C30 UNL     1      20.513  27.708  13.141  1.00  0.00     0.070 C 
HETATM   25  C31 UNL     1      19.147  27.494  13.476  1.00  0.00     0.099 C 
HETATM   26  C32 UNL     1      18.169  28.497  13.074  1.00  0.00     0.020 C 
HETATM   27  N9  UNL     1      17.235  28.325  12.167  1.00  0.00    -0.294 N 
ATOM     28  H9  UNL     1      16.595  29.096  11.978  1.00  0.00     0.188 HD
ENDROOT
BRANCH   8  29
HETATM   29  C6  UNL     1      20.501  34.360  18.392  1.00  0.00     0.027 C 
BRANCH  29  30
HETATM   30  C7  UNL     1      19.810  35.565  18.837  1.00  0.00     0.004 C 
BRANCH  30  31
HETATM   31  C8  UNL     1      19.733  36.753  17.947  1.00  0.00     0.027 C 
BRANCH  31  32
HETATM   32  C9  UNL     1      18.320  37.382  18.145  1.00  0.00     0.229 C 
BRANCH  32  33
HETATM   33  N3  UNL     1      17.942  37.908  16.853  1.00  0.00    -0.079 N 
ATOM     34  H33 UNL     1      18.354  38.818  16.645  1.00  0.00     0.274 HD
ATOM     35  H32 UNL     1      18.357  37.405  16.069  1.00  0.00     0.274 HD
ATOM     36  H31 UNL     1      16.921  37.910  16.844  1.00  0.00     0.274 HD
ENDBRANCH  32  33
ENDBRANCH  31  32
ENDBRANCH  30  31
ENDBRANCH  29  30
ENDBRANCH   8  29
BRANCH  17  37
HETATM   37  C16 UNL     1      18.000  34.569  15.438  1.00  0.00     0.009 C 
HETATM   38  C17 UNL     1      17.176  34.353  16.607  1.00  0.00     0.007 C 
HETATM   39  C18 UNL     1      15.789  34.832  16.213  1.00  0.00     0.000 C 
HETATM   40  C19 UNL     1      15.852  35.171  14.750  1.00  0.00     0.000 C 
HETATM   41  C20 UNL     1      17.069  34.440  14.211  1.00  0.00     0.007 C 
ENDBRANCH  17  37
BRANCH  23  42
HETATM   42  C26 UNL     1      22.630  28.098  12.800  1.00  0.00     0.066 C 
BRANCH  42  43
HETATM   43  C27 UNL     1      23.078  27.695  11.514  1.00  0.00     0.064 C 
BRANCH  43  44
HETATM   44  C28 UNL     1      22.566  26.237  11.313  1.00  0.00     0.127 C 
BRANCH  44  45
HETATM   45  N6  UNL     1      21.759  26.116  10.149  1.00  0.00    -0.367 N 
HETATM   46  C29 UNL     1      20.728  25.382  10.119  1.00  0.00     0.196 C 
HETATM   47  N7  UNL     1      19.962  25.296   8.944  1.00  0.00    -0.067 NA
HETATM   48  N8  UNL     1      20.330  24.636  11.278  1.00  0.00    -0.067 NA
ATOM     49  H6  UNL     1      22.020  26.637   9.312  1.00  0.00     0.161 HD
ENDBRANCH  44  45
ENDBRANCH  43  44
ENDBRANCH  42  43
ENDBRANCH  23  42
BRANCH  27  50
HETATM   50  N10 UNL     1      17.079  27.163  11.462  1.00  0.00    -0.249 N 
HETATM   51  N11 UNL     1      17.514  27.071  10.281  1.00  0.00    -0.331 N 
ATOM     52 2H11 UNL     1      17.981  27.876   9.865  1.00  0.00     0.178 HD
ATOM     53 1H11 UNL     1      17.397  26.205   9.756  1.00  0.00     0.178 HD
ATOM     54  H10 UNL     1      16.609  26.366  11.893  1.00  0.00     0.207 HD
ENDBRANCH  27  50
TORSDOF 11
ENDMDL
