MODEL 1
REMARK VINA RESULT: -8.550252620      0.000      0.000
REMARK  15 active torsions:
REMARK  status: ('A' for Active; 'I' for Inactive)
REMARK    1  A    between atoms: N1_2  and  C2_3 
REMARK       I    between atoms: N1_2  and  C26_43 
REMARK    2  A    between atoms: C2_3  and  C3_4 
REMARK    3  A    between atoms: C3_4  and  C4_5 
REMARK    4  A    between atoms: C4_5  and  C5_6 
REMARK    5  A    between atoms: N2_8  and  C7_9 
REMARK    6  A    between atoms: C7_9  and  O1_10 
REMARK    7  A    between atoms: C7_9  and  N3_12 
REMARK    8  A    between atoms: C12_18  and  C13_19 
REMARK    9  A    between atoms: C14_20  and  C15_21 
REMARK   10  A    between atoms: C17_28  and  C18_29 
REMARK   11  A    between atoms: C18_29  and  C19_30 
REMARK   12  A    between atoms: C19_30  and  C20_31 
REMARK   13  A    between atoms: C20_31  and  C21_32 
REMARK   14  A    between atoms: C21_32  and  C22_33 
REMARK   15  A    between atoms: C22_33  and  C23_34 
ROOT
HETATM    1  C5  UNL     1      24.828  18.774   7.024  1.00  0.00     0.105 C 
HETATM    2  C6  UNL     1      25.053  19.358   5.653  1.00  0.00     0.163 C 
HETATM    3  N2  UNL     1      23.997  19.311   4.711  1.00  0.00    -0.263 N 
HETATM    4  C16 UNL     1      22.586  18.983   4.729  1.00  0.00     0.326 C 
HETATM    5  O4  UNL     1      21.938  19.518   3.791  1.00  0.00    -0.247 OA
HETATM    6  N5  UNL     1      21.732  18.211   5.533  1.00  0.00    -0.329 N 
ATOM      7  H5  UNL     1      20.770  18.340   5.219  1.00  0.00     0.165 HD
HETATM    8  C17 UNL     1      21.748  17.313   6.634  1.00  0.00     0.178 C 
HETATM    9  C24 UNL     1      23.081  16.796   7.014  1.00  0.00     0.242 C 
HETATM   10  O5  UNL     1      23.081  15.600   7.404  1.00  0.00    -0.271 OA
HETATM   11  N8  UNL     1      24.358  17.436   7.009  1.00  0.00    -0.348 N 
HETATM   12  C25 UNL     1      25.388  16.380   6.968  1.00  0.00     0.153 C 
ENDROOT
BRANCH   3  13
HETATM   13  C7  UNL     1      24.423  19.691   3.423  1.00  0.00     0.226 C 
BRANCH  13  14
HETATM   14  O1  UNL     1      24.858  18.643   2.733  1.00  0.00    -0.332 OA
ATOM     15  H1  UNL     1      25.492  18.904   2.076  1.00  0.00     0.221 HD
ENDBRANCH  13  14
BRANCH  13  16
HETATM   16  N3  UNL     1      24.508  20.849   2.695  1.00  0.00    -0.333 N 
HETATM   17  C8  UNL     1      24.810  21.026   1.321  1.00  0.00     0.147 C 
HETATM   18  C9  UNL     1      25.263  22.478   1.012  1.00  0.00     0.141 C 
HETATM   19  N4  UNL     1      24.192  23.325   1.366  1.00  0.00    -0.394 N 
HETATM   20  C10 UNL     1      23.728  24.306   0.438  1.00  0.00     0.148 C 
HETATM   21  C11 UNL     1      23.686  23.156   2.542  1.00  0.00     0.087 C 
HETATM   22  C12 UNL     1      24.233  22.121   3.430  1.00  0.00     0.149 C 
BRANCH  22  23
HETATM   23  C13 UNL     1      25.459  22.633   4.072  1.00  0.00     0.010 C 
HETATM   24  C14 UNL     1      25.480  23.875   4.507  1.00  0.00     0.082 C 
BRANCH  24  25
HETATM   25  C15 UNL     1      26.663  24.441   5.153  1.00  0.00     0.198 C 
HETATM   26  O2  UNL     1      27.124  23.932   6.192  1.00  0.00    -0.645 OA
HETATM   27  O3  UNL     1      27.250  25.558   4.576  1.00  0.00    -0.645 OA
ENDBRANCH  24  25
ENDBRANCH  22  23
ENDBRANCH  13  16
ENDBRANCH   3  13
BRANCH   1  28
HETATM   28  C4  UNL     1      24.086  19.756   7.881  1.00  0.00     0.028 C 
BRANCH  28  29
HETATM   29  C3  UNL     1      24.721  19.828   9.241  1.00  0.00     0.022 C 
BRANCH  29  30
HETATM   30  C2  UNL     1      26.130  19.317   9.308  1.00  0.00     0.125 C 
BRANCH  30  31
HETATM   31  N1  UNL     1      27.093  20.341   9.578  1.00  0.00    -0.360 N 
HETATM   32  C1  UNL     1      27.705  20.444  10.907  1.00  0.00     0.152 C 
HETATM   33  C26 UNL     1      27.487  21.256   8.596  1.00  0.00     0.183 C 
HETATM   34  N9  UNL     1      27.524  22.544   8.834  1.00  0.00    -0.374 N 
HETATM   35  N10 UNL     1      27.851  20.772   7.325  1.00  0.00    -0.064 NA
ATOM     36  H92 UNL     1      27.260  22.895   9.754  1.00  0.00     0.158 HD
ATOM     37  H91 UNL     1      27.811  23.211   8.118  1.00  0.00     0.158 HD
ENDBRANCH  30  31
ENDBRANCH  29  30
ENDBRANCH  28  29
ENDBRANCH   1  28
BRANCH   8  38
HETATM   38  C18 UNL     1      20.877  16.116   6.321  1.00  0.00     0.035 C 
BRANCH  38  39
HETATM   39  C19 UNL     1      20.757  15.917   4.851  1.00  0.00     0.002 C 
BRANCH  39  40
HETATM   40  C20 UNL     1      20.860  14.462   4.451  1.00  0.00     0.000 C 
BRANCH  40  41
HETATM   41  C21 UNL     1      19.586  13.900   3.955  1.00  0.00     0.007 C 
BRANCH  41  42
HETATM   42  C22 UNL     1      19.213  14.196   2.550  1.00  0.00     0.072 C 
BRANCH  42  43
HETATM   43  C23 UNL     1      18.519  13.115   1.845  1.00  0.00     0.086 C 
HETATM   44  N6  UNL     1      17.951  13.245   0.716  1.00  0.00    -0.391 N 
ATOM     45  H62 UNL     1      17.952  14.154   0.252  1.00  0.00     0.157 HD
ATOM     46  H61 UNL     1      17.468  12.493   0.225  1.00  0.00     0.157 HD
HETATM   47  N7  UNL     1      18.519  11.830   2.500  1.00  0.00    -0.088 NA
ENDBRANCH  42  43
ENDBRANCH  41  42
ENDBRANCH  40  41
ENDBRANCH  39  40
ENDBRANCH  38  39
ENDBRANCH   8  38
TORSDOF 15
ENDMDL
MODEL 2
REMARK VINA RESULT: -8.316976453      2.667      8.956
REMARK  15 active torsions:
REMARK  status: ('A' for Active; 'I' for Inactive)
REMARK    1  A    between atoms: N1_2  and  C2_3 
REMARK       I    between atoms: N1_2  and  C26_43 
REMARK    2  A    between atoms: C2_3  and  C3_4 
REMARK    3  A    between atoms: C3_4  and  C4_5 
REMARK    4  A    between atoms: C4_5  and  C5_6 
REMARK    5  A    between atoms: N2_8  and  C7_9 
REMARK    6  A    between atoms: C7_9  and  O1_10 
REMARK    7  A    between atoms: C7_9  and  N3_12 
REMARK    8  A    between atoms: C12_18  and  C13_19 
REMARK    9  A    between atoms: C14_20  and  C15_21 
REMARK   10  A    between atoms: C17_28  and  C18_29 
REMARK   11  A    between atoms: C18_29  and  C19_30 
REMARK   12  A    between atoms: C19_30  and  C20_31 
REMARK   13  A    between atoms: C20_31  and  C21_32 
REMARK   14  A    between atoms: C21_32  and  C22_33 
REMARK   15  A    between atoms: C22_33  and  C23_34 
ROOT
HETATM    1  C5  UNL     1      23.035  19.391   3.087  1.00  0.00     0.105 C 
HETATM    2  C6  UNL     1      23.003  18.029   3.730  1.00  0.00     0.163 C 
HETATM    3  N2  UNL     1      23.765  17.812   4.904  1.00  0.00    -0.263 N 
HETATM    4  C16 UNL     1      24.505  18.630   5.843  1.00  0.00     0.326 C 
HETATM    5  O4  UNL     1      24.632  18.096   6.976  1.00  0.00    -0.247 OA
HETATM    6  N5  UNL     1      25.130  19.886   5.823  1.00  0.00    -0.329 N 
ATOM      7  H5  UNL     1      25.463  20.110   6.761  1.00  0.00     0.165 HD
HETATM    8  C17 UNL     1      25.460  20.954   4.945  1.00  0.00     0.178 C 
HETATM    9  C24 UNL     1      25.311  20.660   3.502  1.00  0.00     0.242 C 
HETATM   10  O5  UNL     1      26.182  21.199   2.772  1.00  0.00    -0.271 OA
HETATM   11  N8  UNL     1      24.342  19.867   2.814  1.00  0.00    -0.348 N 
HETATM   12  C25 UNL     1      24.923  19.480   1.514  1.00  0.00     0.153 C 
ENDROOT
BRANCH   3  13
HETATM   13  C7  UNL     1      23.807  16.449   5.259  1.00  0.00     0.226 C 
BRANCH  13  14
HETATM   14  O1  UNL     1      24.791  15.819   4.626  1.00  0.00    -0.332 OA
ATOM     15  H1  UNL     1      25.497  15.600   5.222  1.00  0.00     0.221 HD
ENDBRANCH  13  14
BRANCH  13  16
HETATM   16  N3  UNL     1      23.107  15.604   6.080  1.00  0.00    -0.333 N 
HETATM   17  C8  UNL     1      23.590  14.716   7.075  1.00  0.00     0.147 C 
HETATM   18  C9  UNL     1      22.544  13.626   7.431  1.00  0.00     0.141 C 
HETATM   19  N4  UNL     1      21.403  14.295   7.918  1.00  0.00    -0.394 N 
HETATM   20  C10 UNL     1      20.814  13.886   9.153  1.00  0.00     0.148 C 
HETATM   21  C11 UNL     1      20.948  15.264   7.194  1.00  0.00     0.087 C 
HETATM   22  C12 UNL     1      21.620  15.611   5.935  1.00  0.00     0.149 C 
BRANCH  22  23
HETATM   23  C13 UNL     1      21.190  14.671   4.881  1.00  0.00     0.010 C 
HETATM   24  C14 UNL     1      19.906  14.432   4.726  1.00  0.00     0.082 C 
BRANCH  24  25
HETATM   25  C15 UNL     1      19.416  13.512   3.701  1.00  0.00     0.198 C 
HETATM   26  O2  UNL     1      19.144  13.925   2.557  1.00  0.00    -0.645 OA
HETATM   27  O3  UNL     1      19.263  12.177   4.041  1.00  0.00    -0.645 OA
ENDBRANCH  24  25
ENDBRANCH  22  23
ENDBRANCH  13  16
ENDBRANCH   3  13
BRANCH   1  28
HETATM   28  C4  UNL     1      22.100  20.318   3.806  1.00  0.00     0.028 C 
BRANCH  28  29
HETATM   29  C3  UNL     1      21.770  21.491   2.928  1.00  0.00     0.022 C 
BRANCH  29  30
HETATM   30  C2  UNL     1      22.099  22.832   3.514  1.00  0.00     0.125 C 
BRANCH  30  31
HETATM   31  N1  UNL     1      23.204  23.477   2.873  1.00  0.00    -0.360 N 
HETATM   32  C1  UNL     1      23.482  23.226   1.455  1.00  0.00     0.152 C 
HETATM   33  C26 UNL     1      24.038  24.365   3.562  1.00  0.00     0.183 C 
HETATM   34  N9  UNL     1      25.342  24.267   3.503  1.00  0.00    -0.374 N 
HETATM   35  N10 UNL     1      23.449  25.384   4.336  1.00  0.00    -0.064 NA
ATOM     36  H92 UNL     1      25.768  23.529   2.943  1.00  0.00     0.158 HD
ATOM     37  H91 UNL     1      25.949  24.914   4.006  1.00  0.00     0.158 HD
ENDBRANCH  30  31
ENDBRANCH  29  30
ENDBRANCH  28  29
ENDBRANCH   1  28
BRANCH   8  38
HETATM   38  C18 UNL     1      26.897  21.368   5.171  1.00  0.00     0.035 C 
BRANCH  38  39
HETATM   39  C19 UNL     1      26.991  22.388   6.250  1.00  0.00     0.002 C 
BRANCH  39  40
HETATM   40  C20 UNL     1      27.805  21.910   7.432  1.00  0.00     0.000 C 
BRANCH  40  41
HETATM   41  C21 UNL     1      27.074  21.987   8.715  1.00  0.00     0.007 C 
BRANCH  41  42
HETATM   42  C22 UNL     1      26.959  20.739   9.508  1.00  0.00     0.072 C 
BRANCH  42  43
HETATM   43  C23 UNL     1      25.664  20.059   9.425  1.00  0.00     0.086 C 
HETATM   44  N6  UNL     1      25.479  18.831   9.693  1.00  0.00    -0.391 N 
ATOM     45  H62 UNL     1      26.270  18.253   9.976  1.00  0.00     0.157 HD
ATOM     46  H61 UNL     1      24.577  18.359   9.635  1.00  0.00     0.157 HD
HETATM   47  N7  UNL     1      24.545  20.878   9.026  1.00  0.00    -0.088 NA
ENDBRANCH  42  43
ENDBRANCH  41  42
ENDBRANCH  40  41
ENDBRANCH  39  40
ENDBRANCH  38  39
ENDBRANCH   8  38
TORSDOF 15
ENDMDL
MODEL 3
REMARK VINA RESULT: -8.209496406      2.474      8.765
REMARK  15 active torsions:
REMARK  status: ('A' for Active; 'I' for Inactive)
REMARK    1  A    between atoms: N1_2  and  C2_3 
REMARK       I    between atoms: N1_2  and  C26_43 
REMARK    2  A    between atoms: C2_3  and  C3_4 
REMARK    3  A    between atoms: C3_4  and  C4_5 
REMARK    4  A    between atoms: C4_5  and  C5_6 
REMARK    5  A    between atoms: N2_8  and  C7_9 
REMARK    6  A    between atoms: C7_9  and  O1_10 
REMARK    7  A    between atoms: C7_9  and  N3_12 
REMARK    8  A    between atoms: C12_18  and  C13_19 
REMARK    9  A    between atoms: C14_20  and  C15_21 
REMARK   10  A    between atoms: C17_28  and  C18_29 
REMARK   11  A    between atoms: C18_29  and  C19_30 
REMARK   12  A    between atoms: C19_30  and  C20_31 
REMARK   13  A    between atoms: C20_31  and  C21_32 
REMARK   14  A    between atoms: C21_32  and  C22_33 
REMARK   15  A    between atoms: C22_33  and  C23_34 
ROOT
HETATM    1  C5  UNL     1      23.469  20.366   2.958  1.00  0.00     0.105 C 
HETATM    2  C6  UNL     1      23.334  18.931   3.398  1.00  0.00     0.163 C 
HETATM    3  N2  UNL     1      23.919  18.537   4.626  1.00  0.00    -0.263 N 
HETATM    4  C16 UNL     1      24.524  19.201   5.763  1.00  0.00     0.326 C 
HETATM    5  O4  UNL     1      24.483  18.518   6.819  1.00  0.00    -0.247 OA
HETATM    6  N5  UNL     1      25.156  20.431   6.003  1.00  0.00    -0.329 N 
ATOM      7  H5  UNL     1      25.353  20.518   7.001  1.00  0.00     0.165 HD
HETATM    8  C17 UNL     1      25.616  21.598   5.334  1.00  0.00     0.178 C 
HETATM    9  C24 UNL     1      25.673  21.505   3.859  1.00  0.00     0.242 C 
HETATM   10  O5  UNL     1      26.644  22.112   3.338  1.00  0.00    -0.271 OA
HETATM   11  N8  UNL     1      24.806  20.838   2.940  1.00  0.00    -0.348 N 
HETATM   12  C25 UNL     1      25.564  20.613   1.694  1.00  0.00     0.153 C 
ENDROOT
BRANCH   3  13
HETATM   13  C7  UNL     1      23.899  17.139   4.794  1.00  0.00     0.226 C 
BRANCH  13  14
HETATM   14  O1  UNL     1      24.807  16.551   4.023  1.00  0.00    -0.332 OA
ATOM     15  H1  UNL     1      24.923  15.639   4.265  1.00  0.00     0.221 HD
ENDBRANCH  13  14
BRANCH  13  16
HETATM   16  N3  UNL     1      23.196  16.227   5.538  1.00  0.00    -0.333 N 
HETATM   17  C8  UNL     1      23.675  15.260   6.458  1.00  0.00     0.147 C 
HETATM   18  C9  UNL     1      22.628  14.142   6.715  1.00  0.00     0.141 C 
HETATM   19  N4  UNL     1      21.485  14.768   7.252  1.00  0.00    -0.394 N 
HETATM   20  C10 UNL     1      20.890  14.256   8.445  1.00  0.00     0.148 C 
HETATM   21  C11 UNL     1      21.032  15.794   6.610  1.00  0.00     0.087 C 
HETATM   22  C12 UNL     1      21.710  16.246   5.388  1.00  0.00     0.149 C 
BRANCH  22  23
HETATM   23  C13 UNL     1      21.285  15.398   4.256  1.00  0.00     0.010 C 
HETATM   24  C14 UNL     1      20.024  15.032   4.173  1.00  0.00     0.082 C 
BRANCH  24  25
HETATM   25  C15 UNL     1      19.541  14.193   3.077  1.00  0.00     0.198 C 
HETATM   26  O2  UNL     1      19.177  13.021   3.288  1.00  0.00    -0.645 OA
HETATM   27  O3  UNL     1      19.502  14.742   1.804  1.00  0.00    -0.645 OA
ENDBRANCH  24  25
ENDBRANCH  22  23
ENDBRANCH  13  16
ENDBRANCH   3  13
BRANCH   1  28
HETATM   28  C4  UNL     1      22.449  21.213   3.659  1.00  0.00     0.028 C 
BRANCH  28  29
HETATM   29  C3  UNL     1      22.207  22.472   2.876  1.00  0.00     0.022 C 
BRANCH  29  30
HETATM   30  C2  UNL     1      22.459  23.744   3.630  1.00  0.00     0.125 C 
BRANCH  30  31
HETATM   31  N1  UNL     1      23.650  24.423   3.218  1.00  0.00    -0.360 N 
HETATM   32  C1  UNL     1      24.113  24.322   1.830  1.00  0.00     0.152 C 
HETATM   33  C26 UNL     1      24.395  25.205   4.108  1.00  0.00     0.183 C 
HETATM   34  N9  UNL     1      25.694  25.077   4.211  1.00  0.00    -0.374 N 
HETATM   35  N10 UNL     1      23.722  26.150   4.907  1.00  0.00    -0.064 NA
ATOM     36  H92 UNL     1      26.182  24.393   3.633  1.00  0.00     0.158 HD
ATOM     37  H91 UNL     1      26.237  25.647   4.860  1.00  0.00     0.158 HD
ENDBRANCH  30  31
ENDBRANCH  29  30
ENDBRANCH  28  29
ENDBRANCH   1  28
BRANCH   8  38
HETATM   38  C18 UNL     1      27.010  21.939   5.815  1.00  0.00     0.035 C 
BRANCH  38  39
HETATM   39  C19 UNL     1      26.987  23.133   6.702  1.00  0.00     0.002 C 
BRANCH  39  40
HETATM   40  C20 UNL     1      27.141  22.775   8.164  1.00  0.00     0.000 C 
BRANCH  40  41
HETATM   41  C21 UNL     1      27.571  21.377   8.381  1.00  0.00     0.007 C 
BRANCH  41  42
HETATM   42  C22 UNL     1      27.095  20.703   9.614  1.00  0.00     0.072 C 
BRANCH  42  43
HETATM   43  C23 UNL     1      25.832  19.972   9.481  1.00  0.00     0.086 C 
HETATM   44  N6  UNL     1      25.730  18.706   9.513  1.00  0.00    -0.391 N 
ATOM     45  H62 UNL     1      26.568  18.135   9.626  1.00  0.00     0.157 HD
ATOM     46  H61 UNL     1      24.851  18.197   9.421  1.00  0.00     0.157 HD
HETATM   47  N7  UNL     1      24.647  20.780   9.323  1.00  0.00    -0.088 NA
ENDBRANCH  42  43
ENDBRANCH  41  42
ENDBRANCH  40  41
ENDBRANCH  39  40
ENDBRANCH  38  39
ENDBRANCH   8  38
TORSDOF 15
ENDMDL
MODEL 4
REMARK VINA RESULT: -8.083162211      1.289      1.460
REMARK  15 active torsions:
REMARK  status: ('A' for Active; 'I' for Inactive)
REMARK    1  A    between atoms: N1_2  and  C2_3 
REMARK       I    between atoms: N1_2  and  C26_43 
REMARK    2  A    between atoms: C2_3  and  C3_4 
REMARK    3  A    between atoms: C3_4  and  C4_5 
REMARK    4  A    between atoms: C4_5  and  C5_6 
REMARK    5  A    between atoms: N2_8  and  C7_9 
REMARK    6  A    between atoms: C7_9  and  O1_10 
REMARK    7  A    between atoms: C7_9  and  N3_12 
REMARK    8  A    between atoms: C12_18  and  C13_19 
REMARK    9  A    between atoms: C14_20  and  C15_21 
REMARK   10  A    between atoms: C17_28  and  C18_29 
REMARK   11  A    between atoms: C18_29  and  C19_30 
REMARK   12  A    between atoms: C19_30  and  C20_31 
REMARK   13  A    between atoms: C20_31  and  C21_32 
REMARK   14  A    between atoms: C21_32  and  C22_33 
REMARK   15  A    between atoms: C22_33  and  C23_34 
ROOT
HETATM    1  C5  UNL     1      24.790  18.836   7.058  1.00  0.00     0.105 C 
HETATM    2  C6  UNL     1      25.005  19.403   5.679  1.00  0.00     0.163 C 
HETATM    3  N2  UNL     1      23.951  19.322   4.737  1.00  0.00    -0.263 N 
HETATM    4  C16 UNL     1      22.546  18.968   4.759  1.00  0.00     0.326 C 
HETATM    5  O4  UNL     1      21.889  19.477   3.814  1.00  0.00    -0.247 OA
HETATM    6  N5  UNL     1      21.707  18.193   5.574  1.00  0.00    -0.329 N 
ATOM      7  H5  UNL     1      20.742  18.298   5.258  1.00  0.00     0.165 HD
HETATM    8  C17 UNL     1      21.739  17.311   6.688  1.00  0.00     0.178 C 
HETATM    9  C24 UNL     1      23.081  16.825   7.077  1.00  0.00     0.242 C 
HETATM   10  O5  UNL     1      23.103  15.635   7.484  1.00  0.00    -0.271 OA
HETATM   11  N8  UNL     1      24.346  17.489   7.062  1.00  0.00    -0.348 N 
HETATM   12  C25 UNL     1      25.395  16.452   7.037  1.00  0.00     0.153 C 
ENDROOT
BRANCH   3  13
HETATM   13  C7  UNL     1      24.371  19.692   3.444  1.00  0.00     0.226 C 
BRANCH  13  14
HETATM   14  O1  UNL     1      24.796  18.637   2.758  1.00  0.00    -0.332 OA
ATOM     15  H1  UNL     1      24.175  17.920   2.811  1.00  0.00     0.221 HD
ENDBRANCH  13  14
BRANCH  13  16
HETATM   16  N3  UNL     1      24.456  20.845   2.708  1.00  0.00    -0.333 N 
HETATM   17  C8  UNL     1      24.736  21.009   1.327  1.00  0.00     0.147 C 
HETATM   18  C9  UNL     1      25.200  22.454   1.001  1.00  0.00     0.141 C 
HETATM   19  N4  UNL     1      24.146  23.315   1.368  1.00  0.00    -0.394 N 
HETATM   20  C10 UNL     1      23.676  24.296   0.442  1.00  0.00     0.148 C 
HETATM   21  C11 UNL     1      23.658  23.160   2.554  1.00  0.00     0.087 C 
HETATM   22  C12 UNL     1      24.208  22.124   3.438  1.00  0.00     0.149 C 
BRANCH  22  23
HETATM   23  C13 UNL     1      25.452  22.626   4.056  1.00  0.00     0.010 C 
HETATM   24  C14 UNL     1      25.476  23.851   4.536  1.00  0.00     0.082 C 
BRANCH  24  25
HETATM   25  C15 UNL     1      26.675  24.406   5.161  1.00  0.00     0.198 C 
HETATM   26  O2  UNL     1      27.129  23.913   6.211  1.00  0.00    -0.645 OA
HETATM   27  O3  UNL     1      27.285  25.492   4.551  1.00  0.00    -0.645 OA
ENDBRANCH  24  25
ENDBRANCH  22  23
ENDBRANCH  13  16
ENDBRANCH   3  13
BRANCH   1  28
HETATM   28  C4  UNL     1      24.029  19.816   7.900  1.00  0.00     0.028 C 
BRANCH  28  29
HETATM   29  C3  UNL     1      24.678  19.941   9.250  1.00  0.00     0.022 C 
BRANCH  29  30
HETATM   30  C2  UNL     1      26.070  19.390   9.335  1.00  0.00     0.125 C 
BRANCH  30  31
HETATM   31  N1  UNL     1      27.065  20.392   9.569  1.00  0.00    -0.360 N 
HETATM   32  C1  UNL     1      27.695  20.509  10.888  1.00  0.00     0.152 C 
HETATM   33  C26 UNL     1      27.473  21.272   8.561  1.00  0.00     0.183 C 
HETATM   34  N9  UNL     1      27.548  22.563   8.768  1.00  0.00    -0.374 N 
HETATM   35  N10 UNL     1      27.808  20.747   7.298  1.00  0.00    -0.064 NA
ATOM     36  H92 UNL     1      27.305  22.944   9.683  1.00  0.00     0.158 HD
ATOM     37  H91 UNL     1      27.845  23.205   8.033  1.00  0.00     0.158 HD
ENDBRANCH  30  31
ENDBRANCH  29  30
ENDBRANCH  28  29
ENDBRANCH   1  28
BRANCH   8  38
HETATM   38  C18 UNL     1      20.890  16.093   6.392  1.00  0.00     0.035 C 
BRANCH  38  39
HETATM   39  C19 UNL     1      20.884  15.793   4.935  1.00  0.00     0.002 C 
BRANCH  39  40
HETATM   40  C20 UNL     1      20.973  14.311   4.647  1.00  0.00     0.000 C 
BRANCH  40  41
HETATM   41  C21 UNL     1      20.118  13.490   5.531  1.00  0.00     0.007 C 
BRANCH  41  42
HETATM   42  C22 UNL     1      19.550  12.244   4.962  1.00  0.00     0.072 C 
BRANCH  42  43
HETATM   43  C23 UNL     1      18.928  11.338   5.932  1.00  0.00     0.086 C 
HETATM   44  N6  UNL     1      17.678  11.128   6.018  1.00  0.00    -0.391 N 
ATOM     45  H62 UNL     1      17.040  11.620   5.393  1.00  0.00     0.157 HD
ATOM     46  H61 UNL     1      17.246  10.498   6.694  1.00  0.00     0.157 HD
HETATM   47  N7  UNL     1      19.832  10.643   6.817  1.00  0.00    -0.088 NA
ENDBRANCH  42  43
ENDBRANCH  41  42
ENDBRANCH  40  41
ENDBRANCH  39  40
ENDBRANCH  38  39
ENDBRANCH   8  38
TORSDOF 15
ENDMDL
MODEL 5
REMARK VINA RESULT: -8.030979032      4.345      7.761
REMARK  15 active torsions:
REMARK  status: ('A' for Active; 'I' for Inactive)
REMARK    1  A    between atoms: N1_2  and  C2_3 
REMARK       I    between atoms: N1_2  and  C26_43 
REMARK    2  A    between atoms: C2_3  and  C3_4 
REMARK    3  A    between atoms: C3_4  and  C4_5 
REMARK    4  A    between atoms: C4_5  and  C5_6 
REMARK    5  A    between atoms: N2_8  and  C7_9 
REMARK    6  A    between atoms: C7_9  and  O1_10 
REMARK    7  A    between atoms: C7_9  and  N3_12 
REMARK    8  A    between atoms: C12_18  and  C13_19 
REMARK    9  A    between atoms: C14_20  and  C15_21 
REMARK   10  A    between atoms: C17_28  and  C18_29 
REMARK   11  A    between atoms: C18_29  and  C19_30 
REMARK   12  A    between atoms: C19_30  and  C20_31 
REMARK   13  A    between atoms: C20_31  and  C21_32 
REMARK   14  A    between atoms: C21_32  and  C22_33 
REMARK   15  A    between atoms: C22_33  and  C23_34 
ROOT
HETATM    1  C5  UNL     1      21.270  13.004   8.911  1.00  0.00     0.105 C 
HETATM    2  C6  UNL     1      22.189  13.998   8.249  1.00  0.00     0.163 C 
HETATM    3  N2  UNL     1      21.879  14.445   6.941  1.00  0.00    -0.263 N 
HETATM    4  C16 UNL     1      20.755  14.342   6.034  1.00  0.00     0.326 C 
HETATM    5  O4  UNL     1      20.719  15.264   5.178  1.00  0.00    -0.247 OA
HETATM    6  N5  UNL     1      19.671  13.469   5.854  1.00  0.00    -0.329 N 
ATOM      7  H5  UNL     1      19.059  13.840   5.127  1.00  0.00     0.165 HD
HETATM    8  C17 UNL     1      19.133  12.245   6.336  1.00  0.00     0.178 C 
HETATM    9  C24 UNL     1      20.044  11.438   7.177  1.00  0.00     0.242 C 
HETATM   10  O5  UNL     1      19.932  10.195   7.017  1.00  0.00    -0.271 OA
HETATM   11  N8  UNL     1      21.023  11.844   8.135  1.00  0.00    -0.348 N 
HETATM   12  C25 UNL     1      21.981  10.733   8.292  1.00  0.00     0.153 C 
ENDROOT
BRANCH   3  13
HETATM   13  C7  UNL     1      22.932  15.192   6.377  1.00  0.00     0.226 C 
BRANCH  13  14
HETATM   14  O1  UNL     1      23.538  14.513   5.409  1.00  0.00    -0.332 OA
ATOM     15  H1  UNL     1      23.867  15.096   4.736  1.00  0.00     0.221 HD
ENDBRANCH  13  14
BRANCH  13  16
HETATM   16  N3  UNL     1      23.496  16.428   6.561  1.00  0.00    -0.333 N 
HETATM   17  C8  UNL     1      23.551  17.224   7.733  1.00  0.00     0.147 C 
HETATM   18  C9  UNL     1      23.847  18.712   7.405  1.00  0.00     0.141 C 
HETATM   19  N4  UNL     1      25.100  18.748   6.759  1.00  0.00    -0.394 N 
HETATM   20  C10 UNL     1      26.104  19.657   7.211  1.00  0.00     0.148 C 
HETATM   21  C11 UNL     1      25.264  17.935   5.769  1.00  0.00     0.087 C 
HETATM   22  C12 UNL     1      24.169  17.037   5.374  1.00  0.00     0.149 C 
BRANCH  22  23
HETATM   23  C13 UNL     1      23.202  17.788   4.549  1.00  0.00     0.010 C 
HETATM   24  C14 UNL     1      23.648  18.715   3.730  1.00  0.00     0.082 C 
BRANCH  24  25
HETATM   25  C15 UNL     1      22.741  19.492   2.886  1.00  0.00     0.198 C 
HETATM   26  O2  UNL     1      22.858  19.475   1.646  1.00  0.00    -0.645 OA
HETATM   27  O3  UNL     1      21.756  20.245   3.507  1.00  0.00    -0.645 OA
ENDBRANCH  24  25
ENDBRANCH  22  23
ENDBRANCH  13  16
ENDBRANCH   3  13
BRANCH   1  28
HETATM   28  C4  UNL     1      20.081  13.713   9.488  1.00  0.00     0.028 C 
BRANCH  28  29
HETATM   29  C3  UNL     1      19.391  12.824  10.484  1.00  0.00     0.022 C 
BRANCH  29  30
HETATM   30  C2  UNL     1      18.006  12.399  10.097  1.00  0.00     0.125 C 
BRANCH  30  31
HETATM   31  N1  UNL     1      17.255  11.851  11.186  1.00  0.00    -0.360 N 
HETATM   32  C1  UNL     1      16.015  12.498  11.625  1.00  0.00     0.152 C 
HETATM   33  C26 UNL     1      17.666  10.691  11.851  1.00  0.00     0.183 C 
HETATM   34  N9  UNL     1      17.718  10.631  13.159  1.00  0.00    -0.374 N 
HETATM   35  N10 UNL     1      18.031   9.565  11.087  1.00  0.00    -0.064 NA
ATOM     36  H92 UNL     1      17.454  11.446  13.712  1.00  0.00     0.158 HD
ATOM     37  H91 UNL     1      18.017   9.785  13.643  1.00  0.00     0.158 HD
ENDBRANCH  30  31
ENDBRANCH  29  30
ENDBRANCH  28  29
ENDBRANCH   1  28
BRANCH   8  38
HETATM   38  C18 UNL     1      18.719  11.379   5.166  1.00  0.00     0.035 C 
BRANCH  38  39
HETATM   39  C19 UNL     1      17.241  11.211   5.128  1.00  0.00     0.002 C 
BRANCH  39  40
HETATM   40  C20 UNL     1      16.635  11.691   3.828  1.00  0.00     0.000 C 
BRANCH  40  41
HETATM   41  C21 UNL     1      17.584  11.661   2.694  1.00  0.00     0.007 C 
BRANCH  41  42
HETATM   42  C22 UNL     1      17.412  12.686   1.636  1.00  0.00     0.072 C 
BRANCH  42  43
HETATM   43  C23 UNL     1      18.555  13.581   1.437  1.00  0.00     0.086 C 
HETATM   44  N6  UNL     1      19.062  13.856   0.305  1.00  0.00    -0.391 N 
ATOM     45  H62 UNL     1      18.676  13.430  -0.537  1.00  0.00     0.157 HD
ATOM     46  H61 UNL     1      19.858  14.479   0.168  1.00  0.00     0.157 HD
HETATM   47  N7  UNL     1      19.101  14.184   2.629  1.00  0.00    -0.088 NA
ENDBRANCH  42  43
ENDBRANCH  41  42
ENDBRANCH  40  41
ENDBRANCH  39  40
ENDBRANCH  38  39
ENDBRANCH   8  38
TORSDOF 15
ENDMDL
