MODEL 1
REMARK VINA RESULT: -6.056888731      0.000      0.000
REMARK  13 active torsions:
REMARK  status: ('A' for Active; 'I' for Inactive)
REMARK    1  A    between atoms: C2_2  and  C3_3 
REMARK    2  A    between atoms: C3_3  and  N1_4 
REMARK    3  A    between atoms: C4_5  and  O1_6 
REMARK    4  A    between atoms: C5_8  and  C6_9 
REMARK    5  A    between atoms: C10_16  and  C11_17 
REMARK    6  A    between atoms: C11_17  and  C12_18 
REMARK    7  A    between atoms: C12_18  and  C13_19 
REMARK    8  A    between atoms: C13_19  and  C14_20 
REMARK    9  A    between atoms: C14_20  and  C15_21 
REMARK   10  A    between atoms: C17_28  and  C18_29 
REMARK   11  A    between atoms: C18_29  and  C19_30 
REMARK   12  A    between atoms: C22_35  and  C23_36 
REMARK   13  A    between atoms: C24_37  and  C25_38 
ROOT
HETATM    1  N1  UNL     1      17.806  -3.964   3.812  1.00  0.00    -0.350 N 
HETATM    2  C4  UNL     1      17.297  -5.020   4.596  1.00  0.00     0.138 C 
HETATM    3  C5  UNL     1      16.111  -5.284   5.387  1.00  0.00     0.162 C 
HETATM    4  N2  UNL     1      16.286  -5.786   6.722  1.00  0.00    -0.347 N 
ATOM      5  H2  UNL     1      15.819  -6.681   6.867  1.00  0.00     0.163 HD
HETATM    6  C9  UNL     1      16.937  -5.339   7.853  1.00  0.00     0.241 C 
HETATM    7  O2  UNL     1      16.179  -5.049   8.868  1.00  0.00    -0.271 OA
HETATM    8  C10 UNL     1      18.387  -5.125   8.121  1.00  0.00     0.176 C 
HETATM    9  N4  UNL     1      18.613  -4.696   9.487  1.00  0.00    -0.346 N 
ATOM     10  H4  UNL     1      18.160  -5.259  10.207  1.00  0.00     0.163 HD
HETATM   11  C16 UNL     1      19.370  -3.610   9.953  1.00  0.00     0.240 C 
HETATM   12  O4  UNL     1      20.443  -3.861  10.593  1.00  0.00    -0.271 OA
HETATM   13  C17 UNL     1      19.055  -2.161   9.785  1.00  0.00     0.170 C 
HETATM   14  N5  UNL     1      18.176  -2.025   8.687  1.00  0.00    -0.400 N 
ATOM     15  H5  UNL     1      17.513  -2.765   8.455  1.00  0.00     0.154 HD
HETATM   16  C22 UNL     1      18.236  -0.816   7.902  1.00  0.00     0.126 C 
HETATM   17  C26 UNL     1      16.953  -0.732   7.181  1.00  0.00     0.265 C 
HETATM   18  N8  UNL     1      17.043  -0.784   5.700  1.00  0.00    -0.070 N 
HETATM   19  C27 UNL     1      17.851   0.290   5.328  1.00  0.00     0.272 C 
HETATM   20  C28 UNL     1      15.657  -0.391   5.311  1.00  0.00     0.272 C 
HETATM   21  C29 UNL     1      17.238  -2.102   5.346  1.00  0.00     0.266 C 
HETATM   22  C30 UNL     1      17.919  -2.547   4.112  1.00  0.00     0.051 C 
HETATM   23  C31 UNL     1      19.440  -2.305   4.229  1.00  0.00     0.040 C 
HETATM   24  C32 UNL     1      17.371  -1.867   2.865  1.00  0.00     0.040 C 
ENDROOT
BRANCH   8  25
HETATM   25  C11 UNL     1      19.166  -6.443   8.032  1.00  0.00     0.035 C 
BRANCH  25  26
HETATM   26  C12 UNL     1      20.412  -6.312   7.188  1.00  0.00     0.003 C 
BRANCH  26  27
HETATM   27  C13 UNL     1      20.875  -7.676   6.693  1.00  0.00     0.009 C 
BRANCH  27  28
HETATM   28  C14 UNL     1      19.906  -8.759   7.122  1.00  0.00     0.099 C 
BRANCH  28  29
HETATM   29  C15 UNL     1      19.320  -9.496   5.968  1.00  0.00     0.231 C 
HETATM   30  N3  UNL     1      18.183  -8.891   5.319  1.00  0.00    -0.062 NA
HETATM   31  O3  UNL     1      19.818 -10.573   5.610  1.00  0.00    -0.277 OA
ENDBRANCH  28  29
ENDBRANCH  27  28
ENDBRANCH  26  27
ENDBRANCH  25  26
ENDBRANCH   8  25
BRANCH   3  32
HETATM   32  C6  UNL     1      15.316  -6.420   4.628  1.00  0.00     0.008 C 
HETATM   33  C7  UNL     1      14.628  -5.783   3.437  1.00  0.00     0.012 C 
HETATM   34  C8  UNL     1      14.262  -6.987   5.544  1.00  0.00     0.012 C 
ENDBRANCH   3  32
BRANCH  13  35
HETATM   35  C18 UNL     1      18.278  -1.758  11.024  1.00  0.00     0.038 C 
BRANCH  35  36
HETATM   36  C19 UNL     1      19.090  -1.055  12.071  1.00  0.00    -0.020 C 
HETATM   37  C20 UNL     1      19.189  -1.962  13.320  1.00  0.00     0.009 C 
HETATM   38  C21 UNL     1      18.378   0.188  12.570  1.00  0.00     0.009 C 
ENDBRANCH  35  36
ENDBRANCH  13  35
BRANCH   2  39
HETATM   39  O1  UNL     1      18.135  -6.014   4.594  1.00  0.00    -0.348 OA
ATOM     40  H1  UNL     1      18.899  -5.792   5.113  1.00  0.00     0.219 HD
ENDBRANCH   2  39
BRANCH   1  41
HETATM   41  C3  UNL     1      18.302  -4.310   2.446  1.00  0.00     0.152 C 
BRANCH  41  42
HETATM   42  C2  UNL     1      17.258  -4.894   1.577  1.00  0.00    -0.017 C 
HETATM   43  C1  UNL     1      17.534  -6.050   0.967  1.00  0.00     0.008 C 
ENDBRANCH  41  42
ENDBRANCH   1  41
BRANCH  16  44
HETATM   44  C23 UNL     1      18.550   0.337   8.779  1.00  0.00     0.003 C 
HETATM   45  C24 UNL     1      17.797   1.371   9.029  1.00  0.00     0.042 C 
BRANCH  45  46
HETATM   46  C25 UNL     1      18.188   2.456   9.906  1.00  0.00     0.109 C 
HETATM   47  N6  UNL     1      19.439   2.817  10.085  1.00  0.00    -0.388 N 
ATOM     48  H62 UNL     1      20.108   2.269   9.544  1.00  0.00     0.157 HD
ATOM     49  H61 UNL     1      19.715   3.581  10.702  1.00  0.00     0.157 HD
HETATM   50  N7  UNL     1      17.260   3.219  10.657  1.00  0.00    -0.083 NA
ENDBRANCH  45  46
ENDBRANCH  16  44
TORSDOF 13
ENDMDL
MODEL 2
REMARK VINA RESULT: -5.943686416      6.598     13.893
REMARK  13 active torsions:
REMARK  status: ('A' for Active; 'I' for Inactive)
REMARK    1  A    between atoms: C2_2  and  C3_3 
REMARK    2  A    between atoms: C3_3  and  N1_4 
REMARK    3  A    between atoms: C4_5  and  O1_6 
REMARK    4  A    between atoms: C5_8  and  C6_9 
REMARK    5  A    between atoms: C10_16  and  C11_17 
REMARK    6  A    between atoms: C11_17  and  C12_18 
REMARK    7  A    between atoms: C12_18  and  C13_19 
REMARK    8  A    between atoms: C13_19  and  C14_20 
REMARK    9  A    between atoms: C14_20  and  C15_21 
REMARK   10  A    between atoms: C17_28  and  C18_29 
REMARK   11  A    between atoms: C18_29  and  C19_30 
REMARK   12  A    between atoms: C22_35  and  C23_36 
REMARK   13  A    between atoms: C24_37  and  C25_38 
ROOT
HETATM    1  N1  UNL     1      17.634   3.910  17.952  1.00  0.00    -0.350 N 
HETATM    2  C4  UNL     1      16.972   4.988  17.329  1.00  0.00     0.138 C 
HETATM    3  C5  UNL     1      15.709   5.216  16.654  1.00  0.00     0.162 C 
HETATM    4  N2  UNL     1      15.733   5.873  15.377  1.00  0.00    -0.347 N 
ATOM      5  H2  UNL     1      15.177   6.727  15.366  1.00  0.00     0.163 HD
HETATM    6  C9  UNL     1      16.333   5.616  14.161  1.00  0.00     0.241 C 
HETATM    7  O2  UNL     1      15.529   5.363  13.173  1.00  0.00    -0.271 OA
HETATM    8  C10 UNL     1      17.772   5.578  13.775  1.00  0.00     0.176 C 
HETATM    9  N4  UNL     1      17.930   5.322  12.357  1.00  0.00    -0.346 N 
ATOM     10  H4  UNL     1      17.373   5.911  11.737  1.00  0.00     0.163 HD
HETATM   11  C16 UNL     1      18.745   4.373  11.721  1.00  0.00     0.240 C 
HETATM   12  O4  UNL     1      19.738   4.797  11.043  1.00  0.00    -0.271 OA
HETATM   13  C17 UNL     1      18.578   2.890  11.743  1.00  0.00     0.170 C 
HETATM   14  N5  UNL     1      17.803   2.551  12.874  1.00  0.00    -0.400 N 
ATOM     15  H5  UNL     1      17.095   3.192  13.233  1.00  0.00     0.154 HD
HETATM   16  C22 UNL     1      18.034   1.277  13.511  1.00  0.00     0.126 C 
HETATM   17  C26 UNL     1      16.823   0.988  14.301  1.00  0.00     0.265 C 
HETATM   18  N8  UNL     1      17.023   0.891  15.769  1.00  0.00    -0.070 N 
HETATM   19  C27 UNL     1      17.952  -0.131  15.962  1.00  0.00     0.272 C 
HETATM   20  C28 UNL     1      15.713   0.322  16.202  1.00  0.00     0.272 C 
HETATM   21  C29 UNL     1      17.122   2.176  16.257  1.00  0.00     0.266 C 
HETATM   22  C30 UNL     1      17.853   2.552  17.486  1.00  0.00     0.051 C 
HETATM   23  C31 UNL     1      19.376   2.476  17.241  1.00  0.00     0.040 C 
HETATM   24  C32 UNL     1      17.468   1.692  18.681  1.00  0.00     0.040 C 
ENDROOT
BRANCH   8  25
HETATM   25  C11 UNL     1      18.431   6.950  13.961  1.00  0.00     0.035 C 
BRANCH  25  26
HETATM   26  C12 UNL     1      17.728   8.029  13.170  1.00  0.00     0.003 C 
BRANCH  26  27
HETATM   27  C13 UNL     1      17.531   9.278  14.019  1.00  0.00     0.009 C 
BRANCH  27  28
HETATM   28  C14 UNL     1      16.118   9.341  14.560  1.00  0.00     0.099 C 
BRANCH  28  29
HETATM   29  C15 UNL     1      16.073   9.383  16.048  1.00  0.00     0.231 C 
HETATM   30  N3  UNL     1      15.073  10.233  16.645  1.00  0.00    -0.062 NA
HETATM   31  O3  UNL     1      16.874   8.702  16.706  1.00  0.00    -0.277 OA
ENDBRANCH  28  29
ENDBRANCH  27  28
ENDBRANCH  26  27
ENDBRANCH  25  26
ENDBRANCH   8  25
BRANCH   3  32
HETATM   32  C6  UNL     1      14.874   6.179  17.589  1.00  0.00     0.008 C 
HETATM   33  C7  UNL     1      14.358   5.357  18.753  1.00  0.00     0.012 C 
HETATM   34  C8  UNL     1      13.695   6.718  16.822  1.00  0.00     0.012 C 
ENDBRANCH   3  32
BRANCH  13  35
HETATM   35  C18 UNL     1      17.749   2.547  10.520  1.00  0.00     0.038 C 
BRANCH  35  36
HETATM   36  C19 UNL     1      18.497   1.831   9.436  1.00  0.00    -0.020 C 
HETATM   37  C20 UNL     1      18.825   2.836   8.307  1.00  0.00     0.009 C 
HETATM   38  C21 UNL     1      17.622   0.790   8.765  1.00  0.00     0.009 C 
ENDBRANCH  35  36
ENDBRANCH  13  35
BRANCH   2  39
HETATM   39  O1  UNL     1      17.713   6.055  17.389  1.00  0.00    -0.348 OA
ATOM     40  H1  UNL     1      18.361   6.036  16.695  1.00  0.00     0.219 HD
ENDBRANCH   2  39
BRANCH   1  41
HETATM   41  C3  UNL     1      18.200   4.156  19.313  1.00  0.00     0.152 C 
BRANCH  41  42
HETATM   42  C2  UNL     1      17.236   4.781  20.241  1.00  0.00    -0.017 C 
HETATM   43  C1  UNL     1      17.670   5.793  21.000  1.00  0.00     0.008 C 
ENDBRANCH  41  42
ENDBRANCH   1  41
BRANCH  16  44
HETATM   44  C23 UNL     1      18.384   0.261  12.489  1.00  0.00     0.003 C 
HETATM   45  C24 UNL     1      17.708  -0.806  12.168  1.00  0.00     0.042 C 
BRANCH  45  46
HETATM   46  C25 UNL     1      18.128  -1.747  11.150  1.00  0.00     0.109 C 
HETATM   47  N6  UNL     1      19.384  -2.087  10.963  1.00  0.00    -0.388 N 
ATOM     48  H62 UNL     1      20.033  -1.633  11.605  1.00  0.00     0.157 HD
ATOM     49  H61 UNL     1      19.680  -2.749  10.246  1.00  0.00     0.157 HD
HETATM   50  N7  UNL     1      17.227  -2.377  10.257  1.00  0.00    -0.083 NA
ENDBRANCH  45  46
ENDBRANCH  16  44
TORSDOF 13
ENDMDL
MODEL 3
REMARK VINA RESULT: -5.559424822      2.760      4.927
REMARK  13 active torsions:
REMARK  status: ('A' for Active; 'I' for Inactive)
REMARK    1  A    between atoms: C2_2  and  C3_3 
REMARK    2  A    between atoms: C3_3  and  N1_4 
REMARK    3  A    between atoms: C4_5  and  O1_6 
REMARK    4  A    between atoms: C5_8  and  C6_9 
REMARK    5  A    between atoms: C10_16  and  C11_17 
REMARK    6  A    between atoms: C11_17  and  C12_18 
REMARK    7  A    between atoms: C12_18  and  C13_19 
REMARK    8  A    between atoms: C13_19  and  C14_20 
REMARK    9  A    between atoms: C14_20  and  C15_21 
REMARK   10  A    between atoms: C17_28  and  C18_29 
REMARK   11  A    between atoms: C18_29  and  C19_30 
REMARK   12  A    between atoms: C22_35  and  C23_36 
REMARK   13  A    between atoms: C24_37  and  C25_38 
ROOT
HETATM    1  N1  UNL     1      15.737  -8.826   2.100  1.00  0.00    -0.350 N 
HETATM    2  C4  UNL     1      14.926  -9.112   3.218  1.00  0.00     0.138 C 
HETATM    3  C5  UNL     1      13.755  -8.547   3.858  1.00  0.00     0.162 C 
HETATM    4  N2  UNL     1      13.798  -8.327   5.276  1.00  0.00    -0.347 N 
ATOM      5  H2  UNL     1      13.057  -8.822   5.772  1.00  0.00     0.163 HD
HETATM    6  C9  UNL     1      14.608  -7.600   6.124  1.00  0.00     0.241 C 
HETATM    7  O2  UNL     1      14.038  -6.613   6.748  1.00  0.00    -0.271 OA
HETATM    8  C10 UNL     1      16.053  -7.753   6.459  1.00  0.00     0.176 C 
HETATM    9  N4  UNL     1      16.467  -6.787   7.457  1.00  0.00    -0.346 N 
ATOM     10  H4  UNL     1      15.876  -6.729   8.287  1.00  0.00     0.163 HD
HETATM   11  C16 UNL     1      17.570  -5.920   7.436  1.00  0.00     0.240 C 
HETATM   12  O4  UNL     1      18.515  -6.137   8.264  1.00  0.00    -0.271 OA
HETATM   13  C17 UNL     1      17.769  -4.745   6.539  1.00  0.00     0.170 C 
HETATM   14  N5  UNL     1      16.948  -4.915   5.401  1.00  0.00    -0.400 N 
ATOM     15  H5  UNL     1      16.062  -5.416   5.468  1.00  0.00     0.154 HD
HETATM   16  C22 UNL     1      17.391  -4.364   4.143  1.00  0.00     0.126 C 
HETATM   17  C26 UNL     1      16.188  -4.256   3.298  1.00  0.00     0.265 C 
HETATM   18  N8  UNL     1      16.196  -5.078   2.062  1.00  0.00    -0.070 N 
HETATM   19  C27 UNL     1      17.310  -4.663   1.332  1.00  0.00     0.272 C 
HETATM   20  C28 UNL     1      15.017  -4.521   1.336  1.00  0.00     0.272 C 
HETATM   21  C29 UNL     1      15.909  -6.376   2.429  1.00  0.00     0.266 C 
HETATM   22  C30 UNL     1      16.344  -7.575   1.682  1.00  0.00     0.051 C 
HETATM   23  C31 UNL     1      17.859  -7.803   1.883  1.00  0.00     0.040 C 
HETATM   24  C32 UNL     1      16.016  -7.490   0.198  1.00  0.00     0.040 C 
ENDROOT
BRANCH   8  25
HETATM   25  C11 UNL     1      16.323  -9.101   7.139  1.00  0.00     0.035 C 
BRANCH  25  26
HETATM   26  C12 UNL     1      17.404  -9.886   6.433  1.00  0.00     0.003 C 
BRANCH  26  27
HETATM   27  C13 UNL     1      18.756  -9.661   7.099  1.00  0.00     0.009 C 
BRANCH  27  28
HETATM   28  C14 UNL     1      19.631  -8.767   6.246  1.00  0.00     0.099 C 
BRANCH  28  29
HETATM   29  C15 UNL     1      20.671  -8.054   7.039  1.00  0.00     0.231 C 
HETATM   30  N3  UNL     1      21.210  -6.845   6.468  1.00  0.00    -0.062 NA
HETATM   31  O3  UNL     1      21.026  -8.510   8.136  1.00  0.00    -0.277 OA
ENDBRANCH  28  29
ENDBRANCH  27  28
ENDBRANCH  26  27
ENDBRANCH  25  26
ENDBRANCH   8  25
BRANCH   3  32
HETATM   32  C6  UNL     1      12.586  -9.590   3.645  1.00  0.00     0.008 C 
HETATM   33  C7  UNL     1      11.836  -9.192   2.389  1.00  0.00     0.012 C 
HETATM   34  C8  UNL     1      11.637  -9.519   4.813  1.00  0.00     0.012 C 
ENDBRANCH   3  32
BRANCH  13  35
HETATM   35  C18 UNL     1      17.230  -3.547   7.297  1.00  0.00     0.038 C 
BRANCH  35  36
HETATM   36  C19 UNL     1      18.088  -3.090   8.438  1.00  0.00    -0.020 C 
HETATM   37  C20 UNL     1      17.181  -2.767   9.649  1.00  0.00     0.009 C 
HETATM   38  C21 UNL     1      18.764  -1.770   8.118  1.00  0.00     0.009 C 
ENDBRANCH  35  36
ENDBRANCH  13  35
BRANCH   2  39
HETATM   39  O1  UNL     1      15.368 -10.176   3.822  1.00  0.00    -0.348 OA
ATOM     40  H1  UNL     1      16.183  -9.978   4.268  1.00  0.00     0.219 HD
ENDBRANCH   2  39
BRANCH   1  41
HETATM   41  C3  UNL     1      16.028  -9.954   1.165  1.00  0.00     0.152 C 
BRANCH  41  42
HETATM   42  C2  UNL     1      14.846 -10.794   0.879  1.00  0.00    -0.017 C 
HETATM   43  C1  UNL     1      14.246 -10.640  -0.305  1.00  0.00     0.008 C 
ENDBRANCH  41  42
ENDBRANCH   1  41
BRANCH  16  44
HETATM   44  C23 UNL     1      18.119  -3.095   4.379  1.00  0.00     0.003 C 
HETATM   45  C24 UNL     1      17.708  -1.885   4.122  1.00  0.00     0.042 C 
BRANCH  45  46
HETATM   46  C25 UNL     1      18.491  -0.696   4.390  1.00  0.00     0.109 C 
HETATM   47  N6  UNL     1      18.214   0.139   5.367  1.00  0.00    -0.388 N 
ATOM     48  H62 UNL     1      17.403  -0.132   5.923  1.00  0.00     0.157 HD
ATOM     49  H61 UNL     1      18.766   0.976   5.556  1.00  0.00     0.157 HD
HETATM   50  N7  UNL     1      19.618  -0.319   3.619  1.00  0.00    -0.083 NA
ENDBRANCH  45  46
ENDBRANCH  16  44
TORSDOF 13
ENDMDL
MODEL 4
REMARK VINA RESULT: -5.551901422      2.727      4.864
REMARK  13 active torsions:
REMARK  status: ('A' for Active; 'I' for Inactive)
REMARK    1  A    between atoms: C2_2  and  C3_3 
REMARK    2  A    between atoms: C3_3  and  N1_4 
REMARK    3  A    between atoms: C4_5  and  O1_6 
REMARK    4  A    between atoms: C5_8  and  C6_9 
REMARK    5  A    between atoms: C10_16  and  C11_17 
REMARK    6  A    between atoms: C11_17  and  C12_18 
REMARK    7  A    between atoms: C12_18  and  C13_19 
REMARK    8  A    between atoms: C13_19  and  C14_20 
REMARK    9  A    between atoms: C14_20  and  C15_21 
REMARK   10  A    between atoms: C17_28  and  C18_29 
REMARK   11  A    between atoms: C18_29  and  C19_30 
REMARK   12  A    between atoms: C22_35  and  C23_36 
REMARK   13  A    between atoms: C24_37  and  C25_38 
ROOT
HETATM    1  N1  UNL     1      15.803  -8.810   2.140  1.00  0.00    -0.350 N 
HETATM    2  C4  UNL     1      15.015  -9.097   3.272  1.00  0.00     0.138 C 
HETATM    3  C5  UNL     1      13.853  -8.534   3.933  1.00  0.00     0.162 C 
HETATM    4  N2  UNL     1      13.922  -8.311   5.350  1.00  0.00    -0.347 N 
ATOM      5  H2  UNL     1      13.192  -8.809   5.860  1.00  0.00     0.163 HD
HETATM    6  C9  UNL     1      14.745  -7.582   6.182  1.00  0.00     0.241 C 
HETATM    7  O2  UNL     1      14.184  -6.595   6.814  1.00  0.00    -0.271 OA
HETATM    8  C10 UNL     1      16.196  -7.729   6.490  1.00  0.00     0.176 C 
HETATM    9  N4  UNL     1      16.626  -6.760   7.479  1.00  0.00    -0.346 N 
ATOM     10  H4  UNL     1      16.051  -6.703   8.319  1.00  0.00     0.163 HD
HETATM   11  C16 UNL     1      17.726  -5.891   7.436  1.00  0.00     0.240 C 
HETATM   12  O4  UNL     1      18.687  -6.103   8.247  1.00  0.00    -0.271 OA
HETATM   13  C17 UNL     1      17.905  -4.716   6.534  1.00  0.00     0.170 C 
HETATM   14  N5  UNL     1      17.064  -4.890   5.412  1.00  0.00    -0.400 N 
ATOM     15  H5  UNL     1      16.180  -5.394   5.496  1.00  0.00     0.154 HD
HETATM   16  C22 UNL     1      17.482  -4.340   4.145  1.00  0.00     0.126 C 
HETATM   17  C26 UNL     1      16.263  -4.237   3.322  1.00  0.00     0.265 C 
HETATM   18  N8  UNL     1      16.251  -5.061   2.087  1.00  0.00    -0.070 N 
HETATM   19  C27 UNL     1      17.350  -4.644   1.337  1.00  0.00     0.272 C 
HETATM   20  C28 UNL     1      15.057  -4.509   1.382  1.00  0.00     0.272 C 
HETATM   21  C29 UNL     1      15.974  -6.359   2.461  1.00  0.00     0.266 C 
HETATM   22  C30 UNL     1      16.400  -7.558   1.708  1.00  0.00     0.051 C 
HETATM   23  C31 UNL     1      17.918  -7.781   1.882  1.00  0.00     0.040 C 
HETATM   24  C32 UNL     1      16.044  -7.476   0.231  1.00  0.00     0.040 C 
ENDROOT
BRANCH   8  25
HETATM   25  C11 UNL     1      16.483  -9.075   7.167  1.00  0.00     0.035 C 
BRANCH  25  26
HETATM   26  C12 UNL     1      17.889  -9.559   6.896  1.00  0.00     0.003 C 
BRANCH  26  27
HETATM   27  C13 UNL     1      18.379  -9.062   5.542  1.00  0.00     0.009 C 
BRANCH  27  28
HETATM   28  C14 UNL     1      19.493  -9.945   5.018  1.00  0.00     0.099 C 
BRANCH  28  29
HETATM   29  C15 UNL     1      19.012 -11.293   4.607  1.00  0.00     0.231 C 
HETATM   30  N3  UNL     1      19.546 -12.422   5.328  1.00  0.00    -0.062 NA
HETATM   31  O3  UNL     1      18.189 -11.398   3.686  1.00  0.00    -0.277 OA
ENDBRANCH  28  29
ENDBRANCH  27  28
ENDBRANCH  26  27
ENDBRANCH  25  26
ENDBRANCH   8  25
BRANCH   3  32
HETATM   32  C6  UNL     1      12.685  -9.581   3.744  1.00  0.00     0.008 C 
HETATM   33  C7  UNL     1      11.919  -9.196   2.493  1.00  0.00     0.012 C 
HETATM   34  C8  UNL     1      11.749  -9.501   4.921  1.00  0.00     0.012 C 
ENDBRANCH   3  32
BRANCH  13  35
HETATM   35  C18 UNL     1      17.376  -3.519   7.300  1.00  0.00     0.038 C 
BRANCH  35  36
HETATM   36  C19 UNL     1      18.197  -3.125   8.491  1.00  0.00    -0.020 C 
HETATM   37  C20 UNL     1      17.249  -2.823   9.675  1.00  0.00     0.009 C 
HETATM   38  C21 UNL     1      18.918  -1.813   8.248  1.00  0.00     0.009 C 
ENDBRANCH  35  36
ENDBRANCH  13  35
BRANCH   2  39
HETATM   39  O1  UNL     1      15.471 -10.158   3.870  1.00  0.00    -0.348 OA
ATOM     40  H1  UNL     1      15.203 -10.156   4.781  1.00  0.00     0.219 HD
ENDBRANCH   2  39
BRANCH   1  41
HETATM   41  C3  UNL     1      16.081  -9.939   1.201  1.00  0.00     0.152 C 
BRANCH  41  42
HETATM   42  C2  UNL     1      14.897 -10.784   0.940  1.00  0.00    -0.017 C 
HETATM   43  C1  UNL     1      14.322 -10.694  -0.264  1.00  0.00     0.008 C 
ENDBRANCH  41  42
ENDBRANCH   1  41
BRANCH  16  44
HETATM   44  C23 UNL     1      18.211  -3.068   4.366  1.00  0.00     0.003 C 
HETATM   45  C24 UNL     1      17.762  -1.857   4.190  1.00  0.00     0.042 C 
BRANCH  45  46
HETATM   46  C25 UNL     1      18.550  -0.666   4.434  1.00  0.00     0.109 C 
HETATM   47  N6  UNL     1      18.335   0.138   5.453  1.00  0.00    -0.388 N 
ATOM     48  H62 UNL     1      17.569  -0.158   6.057  1.00  0.00     0.157 HD
ATOM     49  H61 UNL     1      18.889   0.977   5.625  1.00  0.00     0.157 HD
HETATM   50  N7  UNL     1      19.614  -0.253   3.596  1.00  0.00    -0.083 NA
ENDBRANCH  45  46
ENDBRANCH  16  44
TORSDOF 13
ENDMDL
MODEL 5
REMARK VINA RESULT: -5.395580118      2.805      4.726
REMARK  13 active torsions:
REMARK  status: ('A' for Active; 'I' for Inactive)
REMARK    1  A    between atoms: C2_2  and  C3_3 
REMARK    2  A    between atoms: C3_3  and  N1_4 
REMARK    3  A    between atoms: C4_5  and  O1_6 
REMARK    4  A    between atoms: C5_8  and  C6_9 
REMARK    5  A    between atoms: C10_16  and  C11_17 
REMARK    6  A    between atoms: C11_17  and  C12_18 
REMARK    7  A    between atoms: C12_18  and  C13_19 
REMARK    8  A    between atoms: C13_19  and  C14_20 
REMARK    9  A    between atoms: C14_20  and  C15_21 
REMARK   10  A    between atoms: C17_28  and  C18_29 
REMARK   11  A    between atoms: C18_29  and  C19_30 
REMARK   12  A    between atoms: C22_35  and  C23_36 
REMARK   13  A    between atoms: C24_37  and  C25_38 
ROOT
HETATM    1  N1  UNL     1      16.018  -8.545   2.136  1.00  0.00    -0.350 N 
HETATM    2  C4  UNL     1      15.305  -8.889   3.303  1.00  0.00     0.138 C 
HETATM    3  C5  UNL     1      14.154  -8.395   4.033  1.00  0.00     0.162 C 
HETATM    4  N2  UNL     1      14.286  -8.190   5.448  1.00  0.00    -0.347 N 
ATOM      5  H2  UNL     1      13.609  -8.731   5.986  1.00  0.00     0.163 HD
HETATM    6  C9  UNL     1      15.114  -7.432   6.249  1.00  0.00     0.241 C 
HETATM    7  O2  UNL     1      14.539  -6.484   6.926  1.00  0.00    -0.271 OA
HETATM    8  C10 UNL     1      16.585  -7.510   6.479  1.00  0.00     0.176 C 
HETATM    9  N4  UNL     1      17.017  -6.536   7.461  1.00  0.00    -0.346 N 
ATOM     10  H4  UNL     1      16.485  -6.520   8.331  1.00  0.00     0.163 HD
HETATM   11  C16 UNL     1      18.069  -5.611   7.377  1.00  0.00     0.240 C 
HETATM   12  O4  UNL     1      19.080  -5.786   8.133  1.00  0.00    -0.271 OA
HETATM   13  C17 UNL     1      18.141  -4.416   6.487  1.00  0.00     0.170 C 
HETATM   14  N5  UNL     1      17.252  -4.615   5.407  1.00  0.00    -0.400 N 
ATOM     15  H5  UNL     1      16.401  -5.164   5.528  1.00  0.00     0.154 HD
HETATM   16  C22 UNL     1      17.575  -4.026   4.130  1.00  0.00     0.126 C 
HETATM   17  C26 UNL     1      16.312  -3.973   3.372  1.00  0.00     0.265 C 
HETATM   18  N8  UNL     1      16.275  -4.778   2.126  1.00  0.00    -0.070 N 
HETATM   19  C27 UNL     1      17.312  -4.295   1.327  1.00  0.00     0.272 C 
HETATM   20  C28 UNL     1      15.020  -4.277   1.494  1.00  0.00     0.272 C 
HETATM   21  C29 UNL     1      16.084  -6.094   2.492  1.00  0.00     0.266 C 
HETATM   22  C30 UNL     1      16.528  -7.258   1.697  1.00  0.00     0.051 C 
HETATM   23  C31 UNL     1      18.063  -7.407   1.787  1.00  0.00     0.040 C 
HETATM   24  C32 UNL     1      16.092  -7.173   0.241  1.00  0.00     0.040 C 
ENDROOT
BRANCH   8  25
HETATM   25  C11 UNL     1      16.974  -8.850   7.117  1.00  0.00     0.035 C 
BRANCH  25  26
HETATM   26  C12 UNL     1      18.200  -9.452   6.470  1.00  0.00     0.003 C 
BRANCH  26  27
HETATM   27  C13 UNL     1      19.171  -9.963   7.527  1.00  0.00     0.009 C 
BRANCH  27  28
HETATM   28  C14 UNL     1      18.848 -11.393   7.905  1.00  0.00     0.099 C 
BRANCH  28  29
HETATM   29  C15 UNL     1      19.455 -11.795   9.205  1.00  0.00     0.231 C 
HETATM   30  N3  UNL     1      20.816 -11.381   9.443  1.00  0.00    -0.062 NA
HETATM   31  O3  UNL     1      18.788 -12.453  10.018  1.00  0.00    -0.277 OA
ENDBRANCH  28  29
ENDBRANCH  27  28
ENDBRANCH  26  27
ENDBRANCH  25  26
ENDBRANCH   8  25
BRANCH   3  32
HETATM   32  C6  UNL     1      13.030  -9.497   3.886  1.00  0.00     0.008 C 
HETATM   33  C7  UNL     1      12.159  -9.112   2.706  1.00  0.00     0.012 C 
HETATM   34  C8  UNL     1      12.178  -9.507   5.128  1.00  0.00     0.012 C 
ENDBRANCH   3  32
BRANCH  13  35
HETATM   35  C18 UNL     1      17.595  -3.258   7.300  1.00  0.00     0.038 C 
BRANCH  35  36
HETATM   36  C19 UNL     1      18.356  -2.960   8.556  1.00  0.00    -0.020 C 
HETATM   37  C20 UNL     1      17.351  -2.723   9.707  1.00  0.00     0.009 C 
HETATM   38  C21 UNL     1      19.107  -1.647   8.442  1.00  0.00     0.009 C 
ENDBRANCH  35  36
ENDBRANCH  13  35
BRANCH   2  39
HETATM   39  O1  UNL     1      15.845  -9.934   3.858  1.00  0.00    -0.348 OA
ATOM     40  H1  UNL     1      15.397 -10.135   4.671  1.00  0.00     0.219 HD
ENDBRANCH   2  39
BRANCH   1  41
HETATM   41  C3  UNL     1      16.302  -9.645   1.165  1.00  0.00     0.152 C 
BRANCH  41  42
HETATM   42  C2  UNL     1      15.159 -10.562   0.973  1.00  0.00    -0.017 C 
HETATM   43  C1  UNL     1      14.379 -10.368  -0.094  1.00  0.00     0.008 C 
ENDBRANCH  41  42
ENDBRANCH   1  41
BRANCH  16  44
HETATM   44  C23 UNL     1      18.251  -2.723   4.335  1.00  0.00     0.003 C 
HETATM   45  C24 UNL     1      17.745  -1.533   4.166  1.00  0.00     0.042 C 
BRANCH  45  46
HETATM   46  C25 UNL     1      18.483  -0.307   4.394  1.00  0.00     0.109 C 
HETATM   47  N6  UNL     1      19.139   0.321   3.444  1.00  0.00    -0.388 N 
ATOM     48  H62 UNL     1      19.074  -0.130   2.531  1.00  0.00     0.157 HD
ATOM     49  H61 UNL     1      19.658   1.185   3.604  1.00  0.00     0.157 HD
HETATM   50  N7  UNL     1      18.573   0.320   5.661  1.00  0.00    -0.083 NA
ENDBRANCH  45  46
ENDBRANCH  16  44
TORSDOF 13
ENDMDL
