MODEL 1
REMARK VINA RESULT: -5.731745726      0.000      0.000
REMARK  12 active torsions:
REMARK  status: ('A' for Active; 'I' for Inactive)
REMARK    1  A    between atoms: C2_2  and  C3_3 
REMARK    2  A    between atoms: C3_3  and  C5_5 
REMARK    3  A    between atoms: C7_10  and  C8_11 
REMARK    4  A    between atoms: C8_11  and  C9_12 
REMARK    5  A    between atoms: C13_17  and  O2_18 
REMARK    6  A    between atoms: C14_20  and  C15_21 
REMARK    7  A    between atoms: C15_21  and  C16_22 
REMARK    8  A    between atoms: C16_22  and  C17_23 
REMARK    9  A    between atoms: C17_23  and  N3_24 
REMARK   10  A    between atoms: C20_33  and  C21_34 
REMARK   11  A    between atoms: C26_42  and  C27_43 
REMARK   12  A    between atoms: C27_43  and  C28_44 
ROOT
HETATM    1  C5  UNL     1      16.147  -8.548   4.469  1.00  0.00     0.180 C 
HETATM    2  N1  UNL     1      17.202  -7.780   5.079  1.00  0.00    -0.346 N 
ATOM      3  H1  UNL     1      16.969  -6.791   5.172  1.00  0.00     0.163 HD
HETATM    4  C6  UNL     1      18.470  -8.085   5.572  1.00  0.00     0.241 C 
HETATM    5  O1  UNL     1      19.456  -7.735   4.804  1.00  0.00    -0.271 OA
HETATM    6  C7  UNL     1      18.904  -8.735   6.818  1.00  0.00     0.178 C 
HETATM    7  N2  UNL     1      19.813  -7.857   7.597  1.00  0.00    -0.351 N 
HETATM    8  C12 UNL     1      20.805  -8.667   8.352  1.00  0.00     0.152 C 
HETATM    9  C13 UNL     1      19.869  -6.508   7.688  1.00  0.00     0.161 C 
HETATM   10  C14 UNL     1      18.945  -5.396   8.045  1.00  0.00     0.063 C 
HETATM   11  N6  UNL     1      19.194  -4.209   7.249  1.00  0.00    -0.325 N 
ATOM     12  H6  UNL     1      19.496  -3.406   7.800  1.00  0.00     0.169 HD
HETATM   13  C19 UNL     1      19.105  -3.944   5.887  1.00  0.00     0.245 C 
HETATM   14  O3  UNL     1      20.200  -3.795   5.211  1.00  0.00    -0.271 OA
HETATM   15  C20 UNL     1      17.921  -3.784   4.995  1.00  0.00     0.184 C 
HETATM   16  N7  UNL     1      18.169  -4.436   3.722  1.00  0.00    -0.345 N 
ATOM     17  H7  UNL     1      19.135  -4.714   3.550  1.00  0.00     0.163 HD
HETATM   18  C25 UNL     1      17.268  -4.735   2.705  1.00  0.00     0.241 C 
HETATM   19  O4  UNL     1      17.578  -4.399   1.505  1.00  0.00    -0.271 OA
HETATM   20  C26 UNL     1      15.952  -5.411   2.808  1.00  0.00     0.177 C 
HETATM   21  N8  UNL     1      16.159  -6.804   2.520  1.00  0.00    -0.346 N 
ATOM     22  H8  UNL     1      16.718  -6.967   1.683  1.00  0.00     0.163 HD
HETATM   23  C31 UNL     1      15.754  -7.966   3.146  1.00  0.00     0.241 C 
HETATM   24  O5  UNL     1      14.907  -8.707   2.538  1.00  0.00    -0.271 OA
ENDROOT
BRANCH  10  25
HETATM   25  C15 UNL     1      17.546  -5.730   8.321  1.00  0.00     0.063 C 
BRANCH  25  26
HETATM   26  C16 UNL     1      16.737  -4.474   8.562  1.00  0.00     0.026 C 
BRANCH  26  27
HETATM   27  C17 UNL     1      17.063  -3.841   9.877  1.00  0.00     0.122 C 
BRANCH  27  28
HETATM   28  N3  UNL     1      17.201  -2.389   9.661  1.00  0.00    -0.367 N 
HETATM   29  C18 UNL     1      18.351  -1.829   9.733  1.00  0.00     0.196 C 
HETATM   30  N4  UNL     1      18.403  -0.411   9.511  1.00  0.00    -0.067 NA
HETATM   31  N5  UNL     1      19.529  -2.559  10.019  1.00  0.00    -0.067 NA
ATOM     32  H3  UNL     1      16.375  -1.827   9.453  1.00  0.00     0.161 HD
ENDBRANCH  27  28
ENDBRANCH  26  27
ENDBRANCH  25  26
ENDBRANCH  10  25
BRANCH   9  33
HETATM   33  O2  UNL     1      21.034  -5.977   7.393  1.00  0.00    -0.345 OA
ATOM     34  H2  UNL     1      20.995  -5.171   6.892  1.00  0.00     0.219 HD
ENDBRANCH   9  33
BRANCH   6  35
HETATM   35  C8  UNL     1      19.594 -10.028   6.488  1.00  0.00     0.038 C 
BRANCH  35  36
HETATM   36  C9  UNL     1      18.739 -11.065   5.829  1.00  0.00    -0.020 C 
HETATM   37  C10 UNL     1      18.438 -12.261   6.727  1.00  0.00     0.009 C 
HETATM   38  C11 UNL     1      19.488 -11.548   4.575  1.00  0.00     0.009 C 
ENDBRANCH  35  36
ENDBRANCH   6  35
BRANCH  15  39
HETATM   39  C21 UNL     1      17.856  -2.260   4.750  1.00  0.00    -0.022 C 
HETATM   40  C22 UNL     1      18.190  -1.467   5.980  1.00  0.00     0.017 C 
HETATM   41  C23 UNL     1      16.468  -1.828   4.326  1.00  0.00     0.017 C 
HETATM   42  C24 UNL     1      18.780  -1.836   3.640  1.00  0.00     0.017 C 
ENDBRANCH  15  39
BRANCH   1  43
HETATM   43  C3  UNL     1      14.947  -8.616   5.401  1.00  0.00     0.013 C 
HETATM   44  C4  UNL     1      14.625  -7.270   6.010  1.00  0.00     0.012 C 
BRANCH  43  45
HETATM   45  C2  UNL     1      15.064  -9.615   6.496  1.00  0.00     0.002 C 
HETATM   46  C1  UNL     1      14.968 -10.995   5.845  1.00  0.00     0.005 C 
ENDBRANCH  43  45
ENDBRANCH   1  43
BRANCH  20  47
HETATM   47  C27 UNL     1      14.870  -4.768   2.029  1.00  0.00     0.038 C 
BRANCH  47  48
HETATM   48  C28 UNL     1      14.335  -5.362   0.807  1.00  0.00    -0.020 C 
HETATM   49  C29 UNL     1      12.847  -5.592   0.854  1.00  0.00     0.009 C 
HETATM   50  C30 UNL     1      14.537  -4.301  -0.311  1.00  0.00     0.009 C 
ENDBRANCH  47  48
ENDBRANCH  20  47
TORSDOF 12
ENDMDL
MODEL 2
REMARK VINA RESULT: -5.544159417      2.431      5.447
REMARK  12 active torsions:
REMARK  status: ('A' for Active; 'I' for Inactive)
REMARK    1  A    between atoms: C2_2  and  C3_3 
REMARK    2  A    between atoms: C3_3  and  C5_5 
REMARK    3  A    between atoms: C7_10  and  C8_11 
REMARK    4  A    between atoms: C8_11  and  C9_12 
REMARK    5  A    between atoms: C13_17  and  O2_18 
REMARK    6  A    between atoms: C14_20  and  C15_21 
REMARK    7  A    between atoms: C15_21  and  C16_22 
REMARK    8  A    between atoms: C16_22  and  C17_23 
REMARK    9  A    between atoms: C17_23  and  N3_24 
REMARK   10  A    between atoms: C20_33  and  C21_34 
REMARK   11  A    between atoms: C26_42  and  C27_43 
REMARK   12  A    between atoms: C27_43  and  C28_44 
ROOT
HETATM    1  C5  UNL     1      16.588  -6.100   2.171  1.00  0.00     0.180 C 
HETATM    2  N1  UNL     1      16.938  -6.813   3.373  1.00  0.00    -0.346 N 
ATOM      3  H1  UNL     1      16.730  -6.285   4.221  1.00  0.00     0.163 HD
HETATM    4  C6  UNL     1      17.496  -8.063   3.637  1.00  0.00     0.241 C 
HETATM    5  O1  UNL     1      18.746  -8.043   3.985  1.00  0.00    -0.271 OA
HETATM    6  C7  UNL     1      16.923  -9.417   3.599  1.00  0.00     0.178 C 
HETATM    7  N2  UNL     1      17.053 -10.096   4.912  1.00  0.00    -0.351 N 
HETATM    8  C12 UNL     1      17.218 -11.562   4.731  1.00  0.00     0.152 C 
HETATM    9  C13 UNL     1      17.061  -9.590   6.167  1.00  0.00     0.161 C 
HETATM   10  C14 UNL     1      16.177  -8.739   7.011  1.00  0.00     0.063 C 
HETATM   11  N6  UNL     1      16.939  -7.864   7.881  1.00  0.00    -0.325 N 
ATOM     12  H6  UNL     1      16.791  -8.049   8.873  1.00  0.00     0.169 HD
HETATM   13  C19 UNL     1      17.831  -6.825   7.639  1.00  0.00     0.245 C 
HETATM   14  O3  UNL     1      19.091  -7.022   7.869  1.00  0.00    -0.271 OA
HETATM   15  C20 UNL     1      17.608  -5.439   7.136  1.00  0.00     0.184 C 
HETATM   16  N7  UNL     1      18.657  -5.078   6.200  1.00  0.00    -0.345 N 
ATOM     17  H7  UNL     1      19.462  -5.702   6.178  1.00  0.00     0.163 HD
HETATM   18  C25 UNL     1      18.713  -3.994   5.328  1.00  0.00     0.241 C 
HETATM   19  O4  UNL     1      19.779  -3.280   5.320  1.00  0.00    -0.271 OA
HETATM   20  C26 UNL     1      17.682  -3.529   4.369  1.00  0.00     0.177 C 
HETATM   21  N8  UNL     1      17.997  -4.095   3.087  1.00  0.00    -0.346 N 
ATOM     22  H8  UNL     1      18.977  -3.990   2.826  1.00  0.00     0.163 HD
HETATM   23  C31 UNL     1      17.242  -4.753   2.136  1.00  0.00     0.241 C 
HETATM   24  O5  UNL     1      17.041  -4.160   1.020  1.00  0.00    -0.271 OA
ENDROOT
BRANCH  10  25
HETATM   25  C15 UNL     1      14.975  -8.178   6.392  1.00  0.00     0.063 C 
BRANCH  25  26
HETATM   26  C16 UNL     1      14.008  -9.279   6.014  1.00  0.00     0.026 C 
BRANCH  26  27
HETATM   27  C17 UNL     1      12.670  -8.741   5.619  1.00  0.00     0.122 C 
BRANCH  27  28
HETATM   28  N3  UNL     1      12.429  -7.509   6.392  1.00  0.00    -0.367 N 
HETATM   29  C18 UNL     1      11.457  -7.447   7.225  1.00  0.00     0.196 C 
HETATM   30  N4  UNL     1      11.287  -6.212   7.940  1.00  0.00    -0.067 NA
HETATM   31  N5  UNL     1      10.579  -8.534   7.443  1.00  0.00    -0.067 NA
ATOM     32  H3  UNL     1      13.039  -6.702   6.263  1.00  0.00     0.161 HD
ENDBRANCH  27  28
ENDBRANCH  26  27
ENDBRANCH  25  26
ENDBRANCH  10  25
BRANCH   9  33
HETATM   33  O2  UNL     1      18.115  -9.904   6.888  1.00  0.00    -0.345 OA
ATOM     34  H2  UNL     1      18.123  -9.546   7.767  1.00  0.00     0.219 HD
ENDBRANCH   9  33
BRANCH   6  35
HETATM   35  C8  UNL     1      17.616 -10.217   2.534  1.00  0.00     0.038 C 
BRANCH  35  36
HETATM   36  C9  UNL     1      16.842 -10.414   1.267  1.00  0.00    -0.020 C 
HETATM   37  C10 UNL     1      17.085  -9.318   0.234  1.00  0.00     0.009 C 
HETATM   38  C11 UNL     1      15.350 -10.437   1.640  1.00  0.00     0.009 C 
ENDBRANCH  35  36
ENDBRANCH   6  35
BRANCH  15  39
HETATM   39  C21 UNL     1      17.769  -4.566   8.399  1.00  0.00    -0.022 C 
HETATM   40  C22 UNL     1      16.924  -5.051   9.543  1.00  0.00     0.017 C 
HETATM   41  C23 UNL     1      17.352  -3.134   8.138  1.00  0.00     0.017 C 
HETATM   42  C24 UNL     1      19.202  -4.505   8.854  1.00  0.00     0.017 C 
ENDBRANCH  15  39
BRANCH   1  43
HETATM   43  C3  UNL     1      15.077  -5.963   2.068  1.00  0.00     0.013 C 
HETATM   44  C4  UNL     1      14.400  -6.123   3.412  1.00  0.00     0.012 C 
BRANCH  43  45
HETATM   45  C2  UNL     1      14.432  -6.888   1.100  1.00  0.00     0.002 C 
HETATM   46  C1  UNL     1      13.157  -7.405   1.765  1.00  0.00     0.005 C 
ENDBRANCH  43  45
ENDBRANCH   1  43
BRANCH  20  47
HETATM   47  C27 UNL     1      17.464  -2.064   4.367  1.00  0.00     0.038 C 
BRANCH  47  48
HETATM   48  C28 UNL     1      18.534  -1.120   4.680  1.00  0.00    -0.020 C 
HETATM   49  C29 UNL     1      18.841  -0.169   3.553  1.00  0.00     0.009 C 
HETATM   50  C30 UNL     1      17.992  -0.218   5.823  1.00  0.00     0.009 C 
ENDBRANCH  47  48
ENDBRANCH  20  47
TORSDOF 12
ENDMDL
MODEL 3
REMARK VINA RESULT: -5.379755873      2.953      6.945
REMARK  12 active torsions:
REMARK  status: ('A' for Active; 'I' for Inactive)
REMARK    1  A    between atoms: C2_2  and  C3_3 
REMARK    2  A    between atoms: C3_3  and  C5_5 
REMARK    3  A    between atoms: C7_10  and  C8_11 
REMARK    4  A    between atoms: C8_11  and  C9_12 
REMARK    5  A    between atoms: C13_17  and  O2_18 
REMARK    6  A    between atoms: C14_20  and  C15_21 
REMARK    7  A    between atoms: C15_21  and  C16_22 
REMARK    8  A    between atoms: C16_22  and  C17_23 
REMARK    9  A    between atoms: C17_23  and  N3_24 
REMARK   10  A    between atoms: C20_33  and  C21_34 
REMARK   11  A    between atoms: C26_42  and  C27_43 
REMARK   12  A    between atoms: C27_43  and  C28_44 
ROOT
HETATM    1  C5  UNL     1      17.174  -9.681   4.939  1.00  0.00     0.180 C 
HETATM    2  N1  UNL     1      16.741  -8.620   4.066  1.00  0.00    -0.346 N 
ATOM      3  H1  UNL     1      17.353  -7.805   4.100  1.00  0.00     0.163 HD
HETATM    4  C6  UNL     1      15.673  -8.458   3.185  1.00  0.00     0.241 C 
HETATM    5  O1  UNL     1      14.713  -7.700   3.619  1.00  0.00    -0.271 OA
HETATM    6  C7  UNL     1      15.430  -8.990   1.835  1.00  0.00     0.178 C 
HETATM    7  N2  UNL     1      15.218  -7.897   0.854  1.00  0.00    -0.351 N 
HETATM    8  C12 UNL     1      14.277  -8.325  -0.214  1.00  0.00     0.152 C 
HETATM    9  C13 UNL     1      15.718  -6.640   0.816  1.00  0.00     0.161 C 
HETATM   10  C14 UNL     1      17.060  -5.994   0.822  1.00  0.00     0.063 C 
HETATM   11  N6  UNL     1      17.055  -4.743   1.556  1.00  0.00    -0.325 N 
ATOM     12  H6  UNL     1      17.271  -3.932   0.978  1.00  0.00     0.169 HD
HETATM   13  C19 UNL     1      16.814  -4.425   2.888  1.00  0.00     0.245 C 
HETATM   14  O3  UNL     1      15.710  -3.818   3.192  1.00  0.00    -0.271 OA
HETATM   15  C20 UNL     1      17.629  -4.657   4.115  1.00  0.00     0.184 C 
HETATM   16  N7  UNL     1      16.769  -5.064   5.211  1.00  0.00    -0.345 N 
ATOM     17  H7  UNL     1      15.770  -4.939   5.056  1.00  0.00     0.163 HD
HETATM   18  C25 UNL     1      17.124  -5.602   6.445  1.00  0.00     0.241 C 
HETATM   19  O4  UNL     1      16.613  -5.080   7.500  1.00  0.00    -0.271 OA
HETATM   20  C26 UNL     1      18.039  -6.734   6.728  1.00  0.00     0.177 C 
HETATM   21  N8  UNL     1      17.234  -7.916   6.868  1.00  0.00    -0.346 N 
ATOM     22  H8  UNL     1      16.426  -7.787   7.477  1.00  0.00     0.163 HD
HETATM   23  C31 UNL     1      17.332  -9.190   6.345  1.00  0.00     0.241 C 
HETATM   24  O5  UNL     1      17.595 -10.147   7.153  1.00  0.00    -0.271 OA
ENDROOT
BRANCH  10  25
HETATM   25  C15 UNL     1      18.233  -6.856   0.985  1.00  0.00     0.063 C 
BRANCH  25  26
HETATM   26  C16 UNL     1      18.809  -7.230  -0.363  1.00  0.00     0.026 C 
BRANCH  26  27
HETATM   27  C17 UNL     1      20.286  -7.007  -0.423  1.00  0.00     0.122 C 
BRANCH  27  28
HETATM   28  N3  UNL     1      20.916  -7.843   0.615  1.00  0.00    -0.367 N 
HETATM   29  C18 UNL     1      22.188  -7.838   0.768  1.00  0.00     0.196 C 
HETATM   30  N4  UNL     1      22.726  -8.678   1.801  1.00  0.00    -0.067 NA
HETATM   31  N5  UNL     1      23.041  -7.046  -0.036  1.00  0.00    -0.067 NA
ATOM     32  H3  UNL     1      20.335  -8.428   1.216  1.00  0.00     0.161 HD
ENDBRANCH  27  28
ENDBRANCH  26  27
ENDBRANCH  25  26
ENDBRANCH  10  25
BRANCH   9  33
HETATM   33  O2  UNL     1      14.818  -5.683   0.754  1.00  0.00    -0.345 OA
ATOM     34  H2  UNL     1      14.987  -4.934   1.312  1.00  0.00     0.219 HD
ENDBRANCH   9  33
BRANCH   6  35
HETATM   35  C8  UNL     1      14.230  -9.893   1.868  1.00  0.00     0.038 C 
BRANCH  35  36
HETATM   36  C9  UNL     1      14.413 -11.182   2.606  1.00  0.00    -0.020 C 
HETATM   37  C10 UNL     1      15.084 -12.268   1.771  1.00  0.00     0.009 C 
HETATM   38  C11 UNL     1      13.018 -11.666   3.039  1.00  0.00     0.009 C 
ENDBRANCH  35  36
ENDBRANCH   6  35
BRANCH  15  39
HETATM   39  C21 UNL     1      18.197  -3.259   4.442  1.00  0.00    -0.022 C 
HETATM   40  C22 UNL     1      17.146  -2.321   4.962  1.00  0.00     0.017 C 
HETATM   41  C23 UNL     1      18.787  -2.600   3.213  1.00  0.00     0.017 C 
HETATM   42  C24 UNL     1      19.313  -3.334   5.449  1.00  0.00     0.017 C 
ENDBRANCH  15  39
BRANCH   1  43
HETATM   43  C3  UNL     1      18.479 -10.274   4.430  1.00  0.00     0.013 C 
HETATM   44  C4  UNL     1      19.473  -9.203   4.038  1.00  0.00     0.012 C 
BRANCH  43  45
HETATM   45  C2  UNL     1      18.332 -11.222   3.295  1.00  0.00     0.002 C 
HETATM   46  C1  UNL     1      18.996 -10.567   2.085  1.00  0.00     0.005 C 
ENDBRANCH  43  45
ENDBRANCH   1  43
BRANCH  20  47
HETATM   47  C27 UNL     1      18.988  -6.491   7.839  1.00  0.00     0.038 C 
BRANCH  47  48
HETATM   48  C28 UNL     1      20.392  -6.883   7.759  1.00  0.00    -0.020 C 
HETATM   49  C29 UNL     1      20.607  -8.368   7.882  1.00  0.00     0.009 C 
HETATM   50  C30 UNL     1      20.855  -6.533   6.317  1.00  0.00     0.009 C 
ENDBRANCH  47  48
ENDBRANCH  20  47
TORSDOF 12
ENDMDL
MODEL 4
REMARK VINA RESULT: -5.301027555      2.269      6.291
REMARK  12 active torsions:
REMARK  status: ('A' for Active; 'I' for Inactive)
REMARK    1  A    between atoms: C2_2  and  C3_3 
REMARK    2  A    between atoms: C3_3  and  C5_5 
REMARK    3  A    between atoms: C7_10  and  C8_11 
REMARK    4  A    between atoms: C8_11  and  C9_12 
REMARK    5  A    between atoms: C13_17  and  O2_18 
REMARK    6  A    between atoms: C14_20  and  C15_21 
REMARK    7  A    between atoms: C15_21  and  C16_22 
REMARK    8  A    between atoms: C16_22  and  C17_23 
REMARK    9  A    between atoms: C17_23  and  N3_24 
REMARK   10  A    between atoms: C20_33  and  C21_34 
REMARK   11  A    between atoms: C26_42  and  C27_43 
REMARK   12  A    between atoms: C27_43  and  C28_44 
ROOT
HETATM    1  C5  UNL     1      16.337  -5.589   2.062  1.00  0.00     0.180 C 
HETATM    2  N1  UNL     1      16.616  -6.470   3.166  1.00  0.00    -0.346 N 
ATOM      3  H1  UNL     1      16.490  -6.021   4.073  1.00  0.00     0.163 HD
HETATM    4  C6  UNL     1      17.021  -7.800   3.272  1.00  0.00     0.241 C 
HETATM    5  O1  UNL     1      18.270  -7.972   3.581  1.00  0.00    -0.271 OA
HETATM    6  C7  UNL     1      16.284  -9.062   3.102  1.00  0.00     0.178 C 
HETATM    7  N2  UNL     1      16.352  -9.897   4.327  1.00  0.00    -0.351 N 
HETATM    8  C12 UNL     1      16.332 -11.342   3.979  1.00  0.00     0.152 C 
HETATM    9  C13 UNL     1      16.444  -9.542   5.630  1.00  0.00     0.161 C 
HETATM   10  C14 UNL     1      15.686  -8.692   6.589  1.00  0.00     0.063 C 
HETATM   11  N6  UNL     1      16.565  -8.021   7.528  1.00  0.00    -0.325 N 
ATOM     12  H6  UNL     1      16.412  -8.297   8.497  1.00  0.00     0.169 HD
HETATM   13  C19 UNL     1      17.574  -7.076   7.374  1.00  0.00     0.245 C 
HETATM   14  O3  UNL     1      18.803  -7.448   7.542  1.00  0.00    -0.271 OA
HETATM   15  C20 UNL     1      17.515  -5.625   7.036  1.00  0.00     0.184 C 
HETATM   16  N7  UNL     1      18.585  -5.289   6.113  1.00  0.00    -0.345 N 
ATOM     17  H7  UNL     1      19.306  -5.999   5.998  1.00  0.00     0.163 HD
HETATM   18  C25 UNL     1      18.759  -4.128   5.366  1.00  0.00     0.241 C 
HETATM   19  O4  UNL     1      19.905  -3.551   5.404  1.00  0.00    -0.271 OA
HETATM   20  C26 UNL     1      17.777  -3.435   4.497  1.00  0.00     0.177 C 
HETATM   21  N8  UNL     1      17.998  -3.886   3.150  1.00  0.00    -0.346 N 
ATOM     22  H8  UNL     1      18.979  -3.871   2.873  1.00  0.00     0.163 HD
HETATM   23  C31 UNL     1      17.152  -4.335   2.156  1.00  0.00     0.241 C 
HETATM   24  O5  UNL     1      17.006  -3.599   1.119  1.00  0.00    -0.271 OA
ENDROOT
BRANCH  10  25
HETATM   25  C15 UNL     1      14.552  -7.923   6.074  1.00  0.00     0.063 C 
BRANCH  25  26
HETATM   26  C16 UNL     1      13.263  -8.698   6.245  1.00  0.00     0.026 C 
BRANCH  26  27
HETATM   27  C17 UNL     1      12.472  -8.759   4.977  1.00  0.00     0.122 C 
BRANCH  27  28
HETATM   28  N3  UNL     1      12.933  -9.929   4.209  1.00  0.00    -0.367 N 
HETATM   29  C18 UNL     1      12.631 -10.051   2.969  1.00  0.00     0.196 C 
HETATM   30  N4  UNL     1      13.118 -11.219   2.290  1.00  0.00    -0.067 NA
HETATM   31  N5  UNL     1      11.854  -9.088   2.284  1.00  0.00    -0.067 NA
ATOM     32  H3  UNL     1      13.496 -10.646   4.667  1.00  0.00     0.161 HD
ENDBRANCH  27  28
ENDBRANCH  26  27
ENDBRANCH  25  26
ENDBRANCH  10  25
BRANCH   9  33
HETATM   33  O2  UNL     1      17.463 -10.061   6.278  1.00  0.00    -0.345 OA
ATOM     34  H2  UNL     1      18.278  -9.580   6.200  1.00  0.00     0.219 HD
ENDBRANCH   9  33
BRANCH   6  35
HETATM   35  C8  UNL     1      16.855  -9.814   1.934  1.00  0.00     0.038 C 
BRANCH  35  36
HETATM   36  C9  UNL     1      16.659  -9.173   0.596  1.00  0.00    -0.020 C 
HETATM   37  C10 UNL     1      15.192  -8.937   0.247  1.00  0.00     0.009 C 
HETATM   38  C11 UNL     1      17.285 -10.104  -0.456  1.00  0.00     0.009 C 
ENDBRANCH  35  36
ENDBRANCH   6  35
BRANCH  15  39
HETATM   39  C21 UNL     1      17.804  -4.927   8.382  1.00  0.00    -0.022 C 
HETATM   40  C22 UNL     1      19.275  -4.824   8.671  1.00  0.00     0.017 C 
HETATM   41  C23 UNL     1      17.194  -5.687   9.541  1.00  0.00     0.017 C 
HETATM   42  C24 UNL     1      17.208  -3.546   8.431  1.00  0.00     0.017 C 
ENDBRANCH  15  39
BRANCH   1  43
HETATM   43  C3  UNL     1      14.853  -5.259   2.022  1.00  0.00     0.013 C 
HETATM   44  C4  UNL     1      14.041  -6.193   2.892  1.00  0.00     0.012 C 
BRANCH  43  45
HETATM   45  C2  UNL     1      14.256  -5.242   0.660  1.00  0.00     0.002 C 
HETATM   46  C1  UNL     1      12.920  -5.978   0.756  1.00  0.00     0.005 C 
ENDBRANCH  43  45
ENDBRANCH   1  43
BRANCH  20  47
HETATM   47  C27 UNL     1      17.742  -1.964   4.664  1.00  0.00     0.038 C 
BRANCH  47  48
HETATM   48  C28 UNL     1      17.381  -1.336   5.932  1.00  0.00    -0.020 C 
HETATM   49  C29 UNL     1      18.499  -0.530   6.540  1.00  0.00     0.009 C 
HETATM   50  C30 UNL     1      16.278  -0.294   5.598  1.00  0.00     0.009 C 
ENDBRANCH  47  48
ENDBRANCH  20  47
TORSDOF 12
ENDMDL
MODEL 5
REMARK VINA RESULT: -5.266936453      2.954      7.227
REMARK  12 active torsions:
REMARK  status: ('A' for Active; 'I' for Inactive)
REMARK    1  A    between atoms: C2_2  and  C3_3 
REMARK    2  A    between atoms: C3_3  and  C5_5 
REMARK    3  A    between atoms: C7_10  and  C8_11 
REMARK    4  A    between atoms: C8_11  and  C9_12 
REMARK    5  A    between atoms: C13_17  and  O2_18 
REMARK    6  A    between atoms: C14_20  and  C15_21 
REMARK    7  A    between atoms: C15_21  and  C16_22 
REMARK    8  A    between atoms: C16_22  and  C17_23 
REMARK    9  A    between atoms: C17_23  and  N3_24 
REMARK   10  A    between atoms: C20_33  and  C21_34 
REMARK   11  A    between atoms: C26_42  and  C27_43 
REMARK   12  A    between atoms: C27_43  and  C28_44 
ROOT
HETATM    1  C5  UNL     1      16.174  -9.194   3.767  1.00  0.00     0.180 C 
HETATM    2  N1  UNL     1      15.869  -7.904   3.204  1.00  0.00    -0.346 N 
ATOM      3  H1  UNL     1      16.630  -7.234   3.314  1.00  0.00     0.163 HD
HETATM    4  C6  UNL     1      14.766  -7.367   2.541  1.00  0.00     0.241 C 
HETATM    5  O1  UNL     1      14.026  -6.577   3.257  1.00  0.00    -0.271 OA
HETATM    6  C7  UNL     1      14.282  -7.527   1.161  1.00  0.00     0.178 C 
HETATM    7  N2  UNL     1      14.187  -6.219   0.467  1.00  0.00    -0.351 N 
HETATM    8  C12 UNL     1      13.072  -6.226  -0.517  1.00  0.00     0.152 C 
HETATM    9  C13 UNL     1      14.917  -5.089   0.614  1.00  0.00     0.161 C 
HETATM   10  C14 UNL     1      16.353  -4.699   0.556  1.00  0.00     0.063 C 
HETATM   11  N6  UNL     1      16.672  -3.666   1.523  1.00  0.00    -0.325 N 
ATOM     12  H6  UNL     1      16.982  -2.792   1.098  1.00  0.00     0.169 HD
HETATM   13  C19 UNL     1      16.642  -3.625   2.913  1.00  0.00     0.245 C 
HETATM   14  O3  UNL     1      15.718  -2.926   3.493  1.00  0.00    -0.271 OA
HETATM   15  C20 UNL     1      17.520  -4.266   3.933  1.00  0.00     0.184 C 
HETATM   16  N7  UNL     1      16.718  -4.762   5.036  1.00  0.00    -0.345 N 
ATOM     17  H7  UNL     1      15.752  -4.437   5.059  1.00  0.00     0.163 HD
HETATM   18  C25 UNL     1      17.089  -5.619   6.068  1.00  0.00     0.241 C 
HETATM   19  O4  UNL     1      16.806  -5.274   7.272  1.00  0.00    -0.271 OA
HETATM   20  C26 UNL     1      17.787  -6.923   5.976  1.00  0.00     0.177 C 
HETATM   21  N8  UNL     1      16.784  -7.953   5.987  1.00  0.00    -0.346 N 
ATOM     22  H8  UNL     1      16.087  -7.832   6.721  1.00  0.00     0.163 HD
HETATM   23  C31 UNL     1      16.573  -9.071   5.206  1.00  0.00     0.241 C 
HETATM   24  O5  UNL     1      16.727 -10.218   5.752  1.00  0.00    -0.271 OA
ENDROOT
BRANCH  10  25
HETATM   25  C15 UNL     1      17.344  -5.760   0.365  1.00  0.00     0.063 C 
BRANCH  25  26
HETATM   26  C16 UNL     1      18.718  -5.170   0.134  1.00  0.00     0.026 C 
BRANCH  26  27
HETATM   27  C17 UNL     1      19.587  -6.074  -0.680  1.00  0.00     0.122 C 
BRANCH  27  28
HETATM   28  N3  UNL     1      20.207  -7.052   0.231  1.00  0.00    -0.367 N 
HETATM   29  C18 UNL     1      21.417  -7.433   0.048  1.00  0.00     0.196 C 
HETATM   30  N4  UNL     1      21.949  -8.388   0.979  1.00  0.00    -0.067 NA
HETATM   31  N5  UNL     1      22.208  -6.945  -1.018  1.00  0.00    -0.067 NA
ATOM     32  H3  UNL     1      19.669  -7.427   1.013  1.00  0.00     0.161 HD
ENDBRANCH  27  28
ENDBRANCH  26  27
ENDBRANCH  25  26
ENDBRANCH  10  25
BRANCH   9  33
HETATM   33  O2  UNL     1      14.222  -4.006   0.882  1.00  0.00    -0.345 OA
ATOM     34  H2  UNL     1      14.344  -3.655   1.756  1.00  0.00     0.219 HD
ENDBRANCH   9  33
BRANCH   6  35
HETATM   35  C8  UNL     1      12.938  -8.197   1.184  1.00  0.00     0.038 C 
BRANCH  35  36
HETATM   36  C9  UNL     1      12.903  -9.551   1.821  1.00  0.00    -0.020 C 
HETATM   37  C10 UNL     1      12.781 -10.691   0.815  1.00  0.00     0.009 C 
HETATM   38  C11 UNL     1      11.692  -9.581   2.770  1.00  0.00     0.009 C 
ENDBRANCH  35  36
ENDBRANCH   6  35
BRANCH  15  39
HETATM   39  C21 UNL     1      18.384  -3.096   4.453  1.00  0.00    -0.022 C 
HETATM   40  C22 UNL     1      19.499  -3.560   5.346  1.00  0.00     0.017 C 
HETATM   41  C23 UNL     1      17.561  -2.121   5.268  1.00  0.00     0.017 C 
HETATM   42  C24 UNL     1      18.976  -2.297   3.324  1.00  0.00     0.017 C 
ENDBRANCH  15  39
BRANCH   1  43
HETATM   43  C3  UNL     1      17.275  -9.866   2.962  1.00  0.00     0.013 C 
HETATM   44  C4  UNL     1      18.465  -8.955   2.758  1.00  0.00     0.012 C 
BRANCH  43  45
HETATM   45  C2  UNL     1      16.848 -10.391   1.639  1.00  0.00     0.002 C 
HETATM   46  C1  UNL     1      17.623  -9.605   0.582  1.00  0.00     0.005 C 
ENDBRANCH  43  45
ENDBRANCH   1  43
BRANCH  20  47
HETATM   47  C27 UNL     1      18.878  -7.105   6.962  1.00  0.00     0.038 C 
BRANCH  47  48
HETATM   48  C28 UNL     1      20.178  -7.655   6.588  1.00  0.00    -0.020 C 
HETATM   49  C29 UNL     1      21.253  -6.609   6.451  1.00  0.00     0.009 C 
HETATM   50  C30 UNL     1      20.632  -8.537   7.784  1.00  0.00     0.009 C 
ENDBRANCH  47  48
ENDBRANCH  20  47
TORSDOF 12
ENDMDL
