MODEL 1
REMARK VINA RESULT: -7.576339106      0.000      0.000
REMARK  12 active torsions:
REMARK  status: ('A' for Active; 'I' for Inactive)
REMARK    1  A    between atoms: O1_2  and  C2_3 
REMARK    2  A    between atoms: C2_3  and  C3_5 
REMARK    3  A    between atoms: C3_5  and  O3_6 
REMARK    4  A    between atoms: O3_6  and  C4_7 
REMARK    5  A    between atoms: C4_7  and  C5_8 
REMARK    6  A    between atoms: C8_11  and  C9_12 
REMARK    7  A    between atoms: C9_12  and  O4_13 
REMARK    8  A    between atoms: C10_16  and  S1_17 
REMARK    9  A    between atoms: S1_17  and  C11_18 
REMARK   10  A    between atoms: C12_21  and  O6_22 
REMARK   11  A    between atoms: O6_22  and  S2_23 
REMARK   12  A    between atoms: S2_23  and  N1_25 
ROOT
HETATM    1  C3  UNL     1      14.202 -13.820  20.058  1.00  0.00     0.227 C 
HETATM    2  C10 UNL     1      14.198 -15.256  20.563  1.00  0.00     0.135 C 
HETATM    3  C12 UNL     1      15.047 -16.105  19.677  1.00  0.00     0.175 C 
HETATM    4  C14 UNL     1      14.467 -16.097  18.297  1.00  0.00     0.124 C 
HETATM    5 BR1  UNL     1      15.257 -17.442  17.157  1.00  0.00    -0.086 Br
HETATM    6  C15 UNL     1      14.743 -14.689  17.750  1.00  0.00     0.214 A 
HETATM    7  O8  UNL     1      15.881 -14.088  18.288  1.00  0.00    -0.334 OA
HETATM    8  C16 UNL     1      14.505 -13.657  18.617  1.00  0.00     0.275 A 
HETATM    9  F3  UNL     1      14.374 -12.352  18.164  1.00  0.00    -0.205 F 
ENDROOT
BRANCH   1  10
HETATM   10  C2  UNL     1      15.362 -13.202  20.829  1.00  0.00     0.301 C 
HETATM   11  O2  UNL     1      15.573 -13.404  22.030  1.00  0.00    -0.262 OA
BRANCH  10  12
HETATM   12  O1  UNL     1      16.222 -12.368  20.145  1.00  0.00    -0.324 OA
HETATM   13  C1  UNL     1      17.600 -12.314  20.543  1.00  0.00     0.213 C 
ENDBRANCH  10  12
ENDBRANCH   1  10
BRANCH   1  14
HETATM   14  O3  UNL     1      13.120 -13.152  20.491  1.00  0.00    -0.357 OA
BRANCH  14  15
HETATM   15  C4  UNL     1      12.917 -11.853  20.466  1.00  0.00     0.234 C 
BRANCH  15  16
HETATM   16  C5  UNL     1      12.387 -11.448  21.835  1.00  0.00     0.077 A 
HETATM   17  C6  UNL     1      11.800 -12.257  22.776  1.00  0.00     0.037 A 
HETATM   18  C7  UNL     1      11.480 -11.479  23.848  1.00  0.00     0.037 A 
HETATM   19  C8  UNL     1      11.879 -10.207  23.535  1.00  0.00     0.076 A 
HETATM   20  O5  UNL     1      12.407 -10.245  22.339  1.00  0.00    -0.315 OA
BRANCH  19  21
HETATM   21  C9  UNL     1      11.698  -9.057  24.466  1.00  0.00     0.229 C 
BRANCH  21  22
HETATM   22  O4  UNL     1      12.978  -8.565  24.800  1.00  0.00    -0.394 OA
ATOM     23  H4  UNL     1      12.871  -7.686  25.144  1.00  0.00     0.209 HD
ENDBRANCH  21  22
ENDBRANCH  19  21
ENDBRANCH  15  16
ENDBRANCH  14  15
ENDBRANCH   1  14
BRANCH   2  24
HETATM   24  S1  UNL     1      12.606 -15.912  20.968  1.00  0.00    -0.089 SA
BRANCH  24  25
HETATM   25  C11 UNL     1      11.899 -17.021  19.757  1.00  0.00     0.416 C 
HETATM   26  F1  UNL     1      11.277 -16.390  18.703  1.00  0.00    -0.202 F 
HETATM   27  F2  UNL     1      11.144 -17.982  20.378  1.00  0.00    -0.202 F 
ENDBRANCH  24  25
ENDBRANCH   2  24
BRANCH   3  28
HETATM   28  O6  UNL     1      15.370 -17.354  20.177  1.00  0.00    -0.284 OA
BRANCH  28  29
HETATM   29  S2  UNL     1      16.536 -17.318  21.375  1.00  0.00     0.135 S 
HETATM   30  C13 UNL     1      17.634 -18.722  21.251  1.00  0.00     0.168 C 
HETATM   31  O7  UNL     1      17.357 -16.092  21.194  1.00  0.00    -0.222 OA
BRANCH  29  32
HETATM   32  N1  UNL     1      15.961 -17.318  22.801  1.00  0.00    -0.340 N 
ATOM     33  H12 UNL     1      15.016 -17.644  23.006  1.00  0.00     0.167 HD
ATOM     34  H11 UNL     1      16.608 -16.966  23.507  1.00  0.00     0.167 HD
ENDBRANCH  29  32
ENDBRANCH  28  29
ENDBRANCH   3  28
TORSDOF 12
ENDMDL
MODEL 2
REMARK VINA RESULT: -7.369689576      2.807      3.934
REMARK  12 active torsions:
REMARK  status: ('A' for Active; 'I' for Inactive)
REMARK    1  A    between atoms: O1_2  and  C2_3 
REMARK    2  A    between atoms: C2_3  and  C3_5 
REMARK    3  A    between atoms: C3_5  and  O3_6 
REMARK    4  A    between atoms: O3_6  and  C4_7 
REMARK    5  A    between atoms: C4_7  and  C5_8 
REMARK    6  A    between atoms: C8_11  and  C9_12 
REMARK    7  A    between atoms: C9_12  and  O4_13 
REMARK    8  A    between atoms: C10_16  and  S1_17 
REMARK    9  A    between atoms: S1_17  and  C11_18 
REMARK   10  A    between atoms: C12_21  and  O6_22 
REMARK   11  A    between atoms: O6_22  and  S2_23 
REMARK   12  A    between atoms: S2_23  and  N1_25 
ROOT
HETATM    1  C3  UNL     1      14.234 -14.431  19.898  1.00  0.00     0.227 C 
HETATM    2  C10 UNL     1      15.232 -15.555  19.660  1.00  0.00     0.135 C 
HETATM    3  C12 UNL     1      14.556 -16.697  18.978  1.00  0.00     0.175 C 
HETATM    4  C14 UNL     1      13.471 -17.219  19.868  1.00  0.00     0.124 C 
HETATM    5 BR1  UNL     1      12.774 -18.915  19.261  1.00  0.00    -0.086 Br
HETATM    6  C15 UNL     1      12.378 -16.142  19.850  1.00  0.00     0.214 A 
HETATM    7  O8  UNL     1      12.340 -15.397  18.671  1.00  0.00    -0.334 OA
HETATM    8  C16 UNL     1      12.814 -14.850  19.960  1.00  0.00     0.275 A 
HETATM    9  F3  UNL     1      11.946 -13.824  20.305  1.00  0.00    -0.205 F 
ENDROOT
BRANCH   1  10
HETATM   10  C2  UNL     1      14.391 -13.579  18.644  1.00  0.00     0.301 C 
HETATM   11  O2  UNL     1      13.566 -12.734  18.282  1.00  0.00    -0.262 OA
BRANCH  10  12
HETATM   12  O1  UNL     1      15.518 -13.767  17.871  1.00  0.00    -0.324 OA
HETATM   13  C1  UNL     1      16.148 -12.624  17.274  1.00  0.00     0.213 C 
ENDBRANCH  10  12
ENDBRANCH   1  10
BRANCH   1  14
HETATM   14  O3  UNL     1      14.636 -13.630  20.898  1.00  0.00    -0.357 OA
BRANCH  14  15
HETATM   15  C4  UNL     1      14.858 -12.335  20.846  1.00  0.00     0.234 C 
BRANCH  15  16
HETATM   16  C5  UNL     1      13.781 -11.655  21.681  1.00  0.00     0.077 A 
HETATM   17  C6  UNL     1      13.423 -10.330  21.666  1.00  0.00     0.037 A 
HETATM   18  C7  UNL     1      12.417 -10.163  22.569  1.00  0.00     0.037 A 
HETATM   19  C8  UNL     1      12.182 -11.395  23.119  1.00  0.00     0.076 A 
HETATM   20  O5  UNL     1      13.012 -12.238  22.561  1.00  0.00    -0.315 OA
BRANCH  19  21
HETATM   21  C9  UNL     1      11.141 -11.624  24.160  1.00  0.00     0.229 C 
BRANCH  21  22
HETATM   22  O4  UNL     1      10.414 -12.778  23.798  1.00  0.00    -0.394 OA
ATOM     23  H4  UNL     1       9.984 -13.108  24.578  1.00  0.00     0.209 HD
ENDBRANCH  21  22
ENDBRANCH  19  21
ENDBRANCH  15  16
ENDBRANCH  14  15
ENDBRANCH   1  14
BRANCH   2  24
HETATM   24  S1  UNL     1      16.244 -15.975  21.049  1.00  0.00    -0.089 SA
BRANCH  24  25
HETATM   25  C11 UNL     1      17.577 -14.837  21.403  1.00  0.00     0.416 C 
HETATM   26  F1  UNL     1      17.543 -14.298  22.669  1.00  0.00    -0.202 F 
HETATM   27  F2  UNL     1      17.698 -13.920  20.391  1.00  0.00    -0.202 F 
ENDBRANCH  24  25
ENDBRANCH   2  24
BRANCH   3  28
HETATM   28  O6  UNL     1      15.397 -17.656  18.441  1.00  0.00    -0.284 OA
BRANCH  28  29
HETATM   29  S2  UNL     1      15.401 -17.688  16.769  1.00  0.00     0.135 S 
HETATM   30  C13 UNL     1      16.889 -18.451  16.141  1.00  0.00     0.168 C 
HETATM   31  O7  UNL     1      14.251 -18.511  16.312  1.00  0.00    -0.222 OA
BRANCH  29  32
HETATM   32  N1  UNL     1      15.298 -16.297  16.122  1.00  0.00    -0.340 N 
ATOM     33  H12 UNL     1      15.899 -15.521  16.401  1.00  0.00     0.167 HD
ATOM     34  H11 UNL     1      14.581 -16.231  15.400  1.00  0.00     0.167 HD
ENDBRANCH  29  32
ENDBRANCH  28  29
ENDBRANCH   3  28
TORSDOF 12
ENDMDL
MODEL 3
REMARK VINA RESULT: -7.210382040      5.427      7.299
REMARK  12 active torsions:
REMARK  status: ('A' for Active; 'I' for Inactive)
REMARK    1  A    between atoms: O1_2  and  C2_3 
REMARK    2  A    between atoms: C2_3  and  C3_5 
REMARK    3  A    between atoms: C3_5  and  O3_6 
REMARK    4  A    between atoms: O3_6  and  C4_7 
REMARK    5  A    between atoms: C4_7  and  C5_8 
REMARK    6  A    between atoms: C8_11  and  C9_12 
REMARK    7  A    between atoms: C9_12  and  O4_13 
REMARK    8  A    between atoms: C10_16  and  S1_17 
REMARK    9  A    between atoms: S1_17  and  C11_18 
REMARK   10  A    between atoms: C12_21  and  O6_22 
REMARK   11  A    between atoms: O6_22  and  S2_23 
REMARK   12  A    between atoms: S2_23  and  N1_25 
ROOT
HETATM    1  C3  UNL     1      19.444 -15.314  22.852  1.00  0.00     0.227 C 
HETATM    2  C10 UNL     1      20.313 -15.517  24.085  1.00  0.00     0.135 C 
HETATM    3  C12 UNL     1      21.018 -16.830  23.997  1.00  0.00     0.175 C 
HETATM    4  C14 UNL     1      19.999 -17.925  23.962  1.00  0.00     0.124 C 
HETATM    5 BR1  UNL     1      20.785 -19.671  24.219  1.00  0.00    -0.086 Br
HETATM    6  C15 UNL     1      19.340 -17.822  22.580  1.00  0.00     0.214 A 
HETATM    7  O8  UNL     1      20.174 -17.292  21.595  1.00  0.00    -0.334 OA
HETATM    8  C16 UNL     1      19.024 -16.557  22.164  1.00  0.00     0.275 A 
HETATM    9  F3  UNL     1      18.130 -16.344  21.124  1.00  0.00    -0.205 F 
ENDROOT
BRANCH   1  10
HETATM   10  C2  UNL     1      20.382 -14.577  21.904  1.00  0.00     0.301 C 
HETATM   11  O2  UNL     1      21.484 -14.131  22.239  1.00  0.00    -0.262 OA
BRANCH  10  12
HETATM   12  O1  UNL     1      19.972 -14.398  20.599  1.00  0.00    -0.324 OA
HETATM   13  C1  UNL     1      20.310 -13.175  19.928  1.00  0.00     0.213 C 
ENDBRANCH  10  12
ENDBRANCH   1  10
BRANCH   1  14
HETATM   14  O3  UNL     1      18.457 -14.437  23.096  1.00  0.00    -0.357 OA
BRANCH  14  15
HETATM   15  C4  UNL     1      17.163 -14.674  23.123  1.00  0.00     0.234 C 
BRANCH  15  16
HETATM   16  C5  UNL     1      16.507 -13.733  22.121  1.00  0.00     0.077 A 
HETATM   17  C6  UNL     1      17.097 -13.109  21.050  1.00  0.00     0.037 A 
HETATM   18  C7  UNL     1      16.141 -12.363  20.428  1.00  0.00     0.037 A 
HETATM   19  C8  UNL     1      14.984 -12.549  21.137  1.00  0.00     0.076 A 
HETATM   20  O5  UNL     1      15.255 -13.364  22.123  1.00  0.00    -0.315 OA
BRANCH  19  21
HETATM   21  C9  UNL     1      13.700 -11.892  20.764  1.00  0.00     0.229 C 
BRANCH  21  22
HETATM   22  O4  UNL     1      13.741 -11.618  19.380  1.00  0.00    -0.394 OA
ATOM     23  H4  UNL     1      13.326 -12.341  18.927  1.00  0.00     0.209 HD
ENDBRANCH  21  22
ENDBRANCH  19  21
ENDBRANCH  15  16
ENDBRANCH  14  15
ENDBRANCH   1  14
BRANCH   2  24
HETATM   24  S1  UNL     1      19.529 -15.164  25.631  1.00  0.00    -0.089 SA
BRANCH  24  25
HETATM   25  C11 UNL     1      20.478 -14.159  26.764  1.00  0.00     0.416 C 
HETATM   26  F1  UNL     1      20.601 -12.840  26.388  1.00  0.00    -0.202 F 
HETATM   27  F2  UNL     1      21.661 -14.780  27.072  1.00  0.00    -0.202 F 
ENDBRANCH  24  25
ENDBRANCH   2  24
BRANCH   3  28
HETATM   28  O6  UNL     1      22.056 -17.012  24.893  1.00  0.00    -0.284 OA
BRANCH  28  29
HETATM   29  S2  UNL     1      23.572 -16.933  24.192  1.00  0.00     0.135 S 
HETATM   30  C13 UNL     1      24.788 -17.786  25.185  1.00  0.00     0.168 C 
HETATM   31  O7  UNL     1      23.516 -17.615  22.873  1.00  0.00    -0.222 OA
BRANCH  29  32
HETATM   32  N1  UNL     1      24.085 -15.498  23.983  1.00  0.00    -0.340 N 
ATOM     33  H12 UNL     1      24.890 -15.289  23.392  1.00  0.00     0.167 HD
ATOM     34  H11 UNL     1      23.548 -14.792  24.486  1.00  0.00     0.167 HD
ENDBRANCH  29  32
ENDBRANCH  28  29
ENDBRANCH   3  28
TORSDOF 12
ENDMDL
MODEL 4
REMARK VINA RESULT: -6.979972489      2.967      3.961
REMARK  12 active torsions:
REMARK  status: ('A' for Active; 'I' for Inactive)
REMARK    1  A    between atoms: O1_2  and  C2_3 
REMARK    2  A    between atoms: C2_3  and  C3_5 
REMARK    3  A    between atoms: C3_5  and  O3_6 
REMARK    4  A    between atoms: O3_6  and  C4_7 
REMARK    5  A    between atoms: C4_7  and  C5_8 
REMARK    6  A    between atoms: C8_11  and  C9_12 
REMARK    7  A    between atoms: C9_12  and  O4_13 
REMARK    8  A    between atoms: C10_16  and  S1_17 
REMARK    9  A    between atoms: S1_17  and  C11_18 
REMARK   10  A    between atoms: C12_21  and  O6_22 
REMARK   11  A    between atoms: O6_22  and  S2_23 
REMARK   12  A    between atoms: S2_23  and  N1_25 
ROOT
HETATM    1  C3  UNL     1      14.139 -15.221  19.954  1.00  0.00     0.227 C 
HETATM    2  C10 UNL     1      14.926 -16.524  19.941  1.00  0.00     0.135 C 
HETATM    3  C12 UNL     1      14.134 -17.587  19.256  1.00  0.00     0.175 C 
HETATM    4  C14 UNL     1      12.868 -17.817  20.022  1.00  0.00     0.124 C 
HETATM    5 BR1  UNL     1      11.941 -19.412  19.449  1.00  0.00    -0.086 Br
HETATM    6  C15 UNL     1      12.011 -16.569  19.772  1.00  0.00     0.214 A 
HETATM    7  O8  UNL     1      12.262 -15.948  18.548  1.00  0.00    -0.334 OA
HETATM    8  C16 UNL     1      12.668 -15.371  19.848  1.00  0.00     0.275 A 
HETATM    9  F3  UNL     1      11.975 -14.177  19.991  1.00  0.00    -0.205 F 
ENDROOT
BRANCH   1  10
HETATM   10  C2  UNL     1      14.609 -14.538  18.675  1.00  0.00     0.301 C 
HETATM   11  O2  UNL     1      15.489 -14.995  17.937  1.00  0.00    -0.262 OA
BRANCH  10  12
HETATM   12  O1  UNL     1      14.017 -13.343  18.325  1.00  0.00    -0.324 OA
HETATM   13  C1  UNL     1      14.637 -12.531  17.317  1.00  0.00     0.213 C 
ENDBRANCH  10  12
ENDBRANCH   1  10
BRANCH   1  14
HETATM   14  O3  UNL     1      14.559 -14.412  20.939  1.00  0.00    -0.357 OA
BRANCH  14  15
HETATM   15  C4  UNL     1      14.997 -13.176  20.828  1.00  0.00     0.234 C 
BRANCH  15  16
HETATM   16  C5  UNL     1      13.986 -12.272  21.521  1.00  0.00     0.077 A 
HETATM   17  C6  UNL     1      13.799 -10.925  21.329  1.00  0.00     0.037 A 
HETATM   18  C7  UNL     1      12.792 -10.526  22.155  1.00  0.00     0.037 A 
HETATM   19  C8  UNL     1      12.384 -11.642  22.836  1.00  0.00     0.076 A 
HETATM   20  O5  UNL     1      13.119 -12.642  22.425  1.00  0.00    -0.315 OA
BRANCH  19  21
HETATM   21  C9  UNL     1      11.287 -11.611  23.844  1.00  0.00     0.229 C 
BRANCH  21  22
HETATM   22  O4  UNL     1      10.491 -12.761  23.653  1.00  0.00    -0.394 OA
ATOM     23  H4  UNL     1      10.193 -12.762  22.751  1.00  0.00     0.209 HD
ENDBRANCH  21  22
ENDBRANCH  19  21
ENDBRANCH  15  16
ENDBRANCH  14  15
ENDBRANCH   1  14
BRANCH   2  24
HETATM   24  S1  UNL     1      15.659 -16.980  21.485  1.00  0.00    -0.089 SA
BRANCH  24  25
HETATM   25  C11 UNL     1      17.314 -16.364  21.762  1.00  0.00     0.416 C 
HETATM   26  F1  UNL     1      17.598 -15.185  21.112  1.00  0.00    -0.202 F 
HETATM   27  F2  UNL     1      18.232 -17.364  21.566  1.00  0.00    -0.202 F 
ENDBRANCH  24  25
ENDBRANCH   2  24
BRANCH   3  28
HETATM   28  O6  UNL     1      14.836 -18.729  18.914  1.00  0.00    -0.284 OA
BRANCH  28  29
HETATM   29  S2  UNL     1      15.081 -18.900  17.268  1.00  0.00     0.135 S 
HETATM   30  C13 UNL     1      16.783 -19.304  16.907  1.00  0.00     0.168 C 
HETATM   31  O7  UNL     1      14.242 -20.028  16.784  1.00  0.00    -0.222 OA
BRANCH  29  32
HETATM   32  N1  UNL     1      14.731 -17.643  16.455  1.00  0.00    -0.340 N 
ATOM     33  H12 UNL     1      14.079 -16.938  16.797  1.00  0.00     0.167 HD
ATOM     34  H11 UNL     1      15.209 -17.589  15.555  1.00  0.00     0.167 HD
ENDBRANCH  29  32
ENDBRANCH  28  29
ENDBRANCH   3  28
TORSDOF 12
ENDMDL
MODEL 5
REMARK VINA RESULT: -6.967962374      6.218      8.724
REMARK  12 active torsions:
REMARK  status: ('A' for Active; 'I' for Inactive)
REMARK    1  A    between atoms: O1_2  and  C2_3 
REMARK    2  A    between atoms: C2_3  and  C3_5 
REMARK    3  A    between atoms: C3_5  and  O3_6 
REMARK    4  A    between atoms: O3_6  and  C4_7 
REMARK    5  A    between atoms: C4_7  and  C5_8 
REMARK    6  A    between atoms: C8_11  and  C9_12 
REMARK    7  A    between atoms: C9_12  and  O4_13 
REMARK    8  A    between atoms: C10_16  and  S1_17 
REMARK    9  A    between atoms: S1_17  and  C11_18 
REMARK   10  A    between atoms: C12_21  and  O6_22 
REMARK   11  A    between atoms: O6_22  and  S2_23 
REMARK   12  A    between atoms: S2_23  and  N1_25 
ROOT
HETATM    1  C3  UNL     1      20.199 -16.756  23.820  1.00  0.00     0.227 C 
HETATM    2  C10 UNL     1      21.527 -16.035  24.003  1.00  0.00     0.135 C 
HETATM    3  C12 UNL     1      22.538 -16.972  24.573  1.00  0.00     0.175 C 
HETATM    4  C14 UNL     1      22.069 -17.430  25.919  1.00  0.00     0.124 C 
HETATM    5 BR1  UNL     1      23.453 -18.348  26.907  1.00  0.00    -0.086 Br
HETATM    6  C15 UNL     1      20.887 -18.367  25.639  1.00  0.00     0.214 A 
HETATM    7  O8  UNL     1      20.960 -19.015  24.406  1.00  0.00    -0.334 OA
HETATM    8  C16 UNL     1      19.994 -17.934  24.696  1.00  0.00     0.275 A 
HETATM    9  F3  UNL     1      18.727 -18.489  24.595  1.00  0.00    -0.205 F 
ENDROOT
BRANCH   1  10
HETATM   10  C2  UNL     1      20.300 -17.278  22.392  1.00  0.00     0.301 C 
HETATM   11  O2  UNL     1      20.841 -16.655  21.471  1.00  0.00    -0.262 OA
BRANCH  10  12
HETATM   12  O1  UNL     1      19.755 -18.514  22.114  1.00  0.00    -0.324 OA
HETATM   13  C1  UNL     1      20.235 -19.245  20.977  1.00  0.00     0.213 C 
ENDBRANCH  10  12
ENDBRANCH   1  10
BRANCH   1  14
HETATM   14  O3  UNL     1      19.176 -15.887  23.787  1.00  0.00    -0.357 OA
BRANCH  14  15
HETATM   15  C4  UNL     1      18.005 -16.049  23.210  1.00  0.00     0.234 C 
BRANCH  15  16
HETATM   16  C5  UNL     1      17.714 -14.787  22.408  1.00  0.00     0.077 A 
HETATM   17  C6  UNL     1      18.622 -13.892  21.900  1.00  0.00     0.037 A 
HETATM   18  C7  UNL     1      17.923 -12.916  21.255  1.00  0.00     0.037 A 
HETATM   19  C8  UNL     1      16.598 -13.239  21.385  1.00  0.00     0.076 A 
HETATM   20  O5  UNL     1      16.531 -14.349  22.072  1.00  0.00    -0.315 OA
BRANCH  19  21
HETATM   21  C9  UNL     1      15.509 -12.404  20.806  1.00  0.00     0.229 C 
BRANCH  21  22
HETATM   22  O4  UNL     1      16.099 -11.250  20.246  1.00  0.00    -0.394 OA
ATOM     23  H4  UNL     1      15.712 -11.112  19.390  1.00  0.00     0.209 HD
ENDBRANCH  21  22
ENDBRANCH  19  21
ENDBRANCH  15  16
ENDBRANCH  14  15
ENDBRANCH   1  14
BRANCH   2  24
HETATM   24  S1  UNL     1      21.424 -14.446  24.774  1.00  0.00    -0.089 SA
BRANCH  24  25
HETATM   25  C11 UNL     1      20.838 -14.446  26.463  1.00  0.00     0.416 C 
HETATM   26  F1  UNL     1      19.695 -15.186  26.667  1.00  0.00    -0.202 F 
HETATM   27  F2  UNL     1      20.786 -13.164  26.947  1.00  0.00    -0.202 F 
ENDBRANCH  24  25
ENDBRANCH   2  24
BRANCH   3  28
HETATM   28  O6  UNL     1      23.851 -16.540  24.516  1.00  0.00    -0.284 OA
BRANCH  28  29
HETATM   29  S2  UNL     1      24.787 -17.376  23.410  1.00  0.00     0.135 S 
HETATM   30  C13 UNL     1      25.735 -18.663  24.208  1.00  0.00     0.168 C 
HETATM   31  O7  UNL     1      23.883 -18.031  22.429  1.00  0.00    -0.222 OA
BRANCH  29  32
HETATM   32  N1  UNL     1      25.783 -16.489  22.645  1.00  0.00    -0.340 N 
ATOM     33  H12 UNL     1      26.249 -15.693  23.081  1.00  0.00     0.167 HD
ATOM     34  H11 UNL     1      25.927 -16.773  21.676  1.00  0.00     0.167 HD
ENDBRANCH  29  32
ENDBRANCH  28  29
ENDBRANCH   3  28
TORSDOF 12
ENDMDL
