MODEL 1
REMARK VINA RESULT: -8.852622753      0.000      0.000
REMARK  10 active torsions:
REMARK  status: ('A' for Active; 'I' for Inactive)
REMARK    1  A    between atoms: C2_3  and  C3_4 
REMARK    2  A    between atoms: C3_4  and  N2_5 
REMARK    3  A    between atoms: C4_8  and  O1_9 
REMARK    4  A    between atoms: O1_9  and  C5_10 
REMARK    5  A    between atoms: C5_10  and  C6_11 
REMARK    6  A    between atoms: C12_21  and  O2_22 
REMARK    7  A    between atoms: O2_22  and  C13_23 
REMARK    8  A    between atoms: C21_34  and  C22_35 
REMARK    9  A    between atoms: C22_35  and  O3_36 
REMARK   10  A    between atoms: N5_38  and  C23_39 
ROOT
HETATM    1  N1  UNL     1      20.308 -12.942  19.800  1.00  0.00    -0.197 NA
HETATM    2  C1  UNL     1      20.079 -13.854  20.472  1.00  0.00     0.061 C 
HETATM    3  C2  UNL     1      19.812 -15.000  21.284  1.00  0.00     0.158 C 
ENDROOT
BRANCH   3   4
HETATM    4  C3  UNL     1      18.634 -14.934  22.201  1.00  0.00     0.084 C 
HETATM    5  C19 UNL     1      18.998 -13.831  23.228  1.00  0.00     0.075 C 
HETATM    6  C20 UNL     1      20.194 -14.200  24.038  1.00  0.00     0.197 C 
HETATM    7  F4  UNL     1      20.235 -13.266  25.084  1.00  0.00    -0.247 F 
HETATM    8  C21 UNL     1      20.160 -15.613  24.567  1.00  0.00     0.137 C 
HETATM    9  N5  UNL     1      18.896 -16.164  24.341  1.00  0.00    -0.393 N 
HETATM   10  C26 UNL     1      18.357 -16.135  23.021  1.00  0.00     0.152 C 
BRANCH   4  11
HETATM   11  N2  UNL     1      17.463 -14.384  21.523  1.00  0.00    -0.277 N 
HETATM   12  N3  UNL     1      17.082 -13.117  21.506  1.00  0.00    -0.276 N 
HETATM   13  C4  UNL     1      15.981 -12.898  20.819  1.00  0.00     0.170 A 
ATOM     14  H3  UNL     1      17.595 -12.376  21.982  1.00  0.00     0.189 HD
HETATM   15  C10 UNL     1      15.578 -14.121  20.326  1.00  0.00     0.047 A 
HETATM   16  C11 UNL     1      14.507 -14.492  19.551  1.00  0.00     0.055 A 
HETATM   17  C18 UNL     1      16.523 -15.023  20.784  1.00  0.00     0.066 A 
HETATM   18  C12 UNL     1      14.324 -15.832  19.182  1.00  0.00     0.070 A 
HETATM   19  C16 UNL     1      15.270 -16.708  19.645  1.00  0.00     0.039 A 
HETATM   20  C17 UNL     1      16.356 -16.324  20.432  1.00  0.00     0.035 A 
BRANCH  13  21
HETATM   21  O1  UNL     1      15.283 -11.708  20.578  1.00  0.00    -0.334 OA
BRANCH  21  22
HETATM   22  C5  UNL     1      13.862 -11.798  20.552  1.00  0.00     0.186 C 
BRANCH  22  23
HETATM   23  C6  UNL     1      13.272 -11.633  21.930  1.00  0.00     0.071 C 
HETATM   24  C7  UNL     1      12.163 -10.599  21.931  1.00  0.00     0.241 C 
HETATM   25  N4  UNL     1      11.463 -10.938  23.167  1.00  0.00    -0.072 N 
HETATM   26  C8  UNL     1      11.418 -12.374  23.194  1.00  0.00     0.269 C 
ATOM     27  H42 UNL     1      11.877 -10.524  24.002  1.00  0.00     0.277 HD
ATOM     28  H41 UNL     1      10.549 -10.495  23.257  1.00  0.00     0.277 HD
HETATM   29  C9  UNL     1      12.518 -12.888  22.310  1.00  0.00     0.203 C 
HETATM   30  F1  UNL     1      11.940 -13.488  21.203  1.00  0.00    -0.247 F 
ENDBRANCH  22  23
ENDBRANCH  21  22
ENDBRANCH  13  21
BRANCH  18  31
HETATM   31  O2  UNL     1      13.246 -16.195  18.403  1.00  0.00    -0.340 OA
BRANCH  31  32
HETATM   32  C13 UNL     1      11.971 -16.336  18.943  1.00  0.00     0.206 A 
HETATM   33  C14 UNL     1      11.048 -17.252  18.105  1.00  0.00     0.120 A 
HETATM   34  C15 UNL     1      11.641 -17.717  19.419  1.00  0.00     0.272 A 
HETATM   35  F2  UNL     1      10.749 -17.861  20.479  1.00  0.00    -0.203 F 
HETATM   36  F3  UNL     1      12.621 -18.678  19.381  1.00  0.00    -0.203 F 
ENDBRANCH  31  32
ENDBRANCH  18  31
ENDBRANCH   4  11
BRANCH   8  37
HETATM   37  C22 UNL     1      20.631 -15.711  25.990  1.00  0.00     0.191 C 
BRANCH  37  38
HETATM   38  O3  UNL     1      21.979 -15.582  26.188  1.00  0.00    -0.399 OA
ATOM     39  H3  UNL     1      22.338 -16.042  26.938  1.00  0.00     0.209 HD
ENDBRANCH  37  38
ENDBRANCH   8  37
BRANCH   9  40
HETATM   40  C23 UNL     1      18.428 -17.165  25.202  1.00  0.00     0.127 C 
HETATM   41  C24 UNL     1      17.034 -17.664  24.882  1.00  0.00     0.194 C 
HETATM   42  O4  UNL     1      17.444 -18.865  25.518  1.00  0.00    -0.387 OA
HETATM   43  C25 UNL     1      18.695 -18.598  24.908  1.00  0.00     0.194 C 
ENDBRANCH   9  40
ENDBRANCH   3   4
TORSDOF 10
ENDMDL
MODEL 2
REMARK VINA RESULT: -8.743573252      2.064      2.388
REMARK  10 active torsions:
REMARK  status: ('A' for Active; 'I' for Inactive)
REMARK    1  A    between atoms: C2_3  and  C3_4 
REMARK    2  A    between atoms: C3_4  and  N2_5 
REMARK    3  A    between atoms: C4_8  and  O1_9 
REMARK    4  A    between atoms: O1_9  and  C5_10 
REMARK    5  A    between atoms: C5_10  and  C6_11 
REMARK    6  A    between atoms: C12_21  and  O2_22 
REMARK    7  A    between atoms: O2_22  and  C13_23 
REMARK    8  A    between atoms: C21_34  and  C22_35 
REMARK    9  A    between atoms: C22_35  and  O3_36 
REMARK   10  A    between atoms: N5_38  and  C23_39 
ROOT
HETATM    1  N1  UNL     1      16.680 -12.130  19.640  1.00  0.00    -0.197 NA
HETATM    2  C1  UNL     1      17.404 -12.762  20.285  1.00  0.00     0.061 C 
HETATM    3  C2  UNL     1      18.322 -13.530  21.067  1.00  0.00     0.158 C 
ENDROOT
BRANCH   3   4
HETATM    4  C3  UNL     1      17.797 -14.759  21.733  1.00  0.00     0.084 C 
HETATM    5  C19 UNL     1      17.886 -14.452  23.251  1.00  0.00     0.075 C 
HETATM    6  C20 UNL     1      19.295 -14.252  23.695  1.00  0.00     0.197 C 
HETATM    7  F4  UNL     1      19.248 -14.262  25.096  1.00  0.00    -0.247 F 
HETATM    8  C21 UNL     1      20.252 -15.295  23.172  1.00  0.00     0.137 C 
HETATM    9  N5  UNL     1      19.531 -16.328  22.567  1.00  0.00    -0.393 N 
HETATM   10  C26 UNL     1      18.579 -16.003  21.555  1.00  0.00     0.152 C 
BRANCH   4  11
HETATM   11  N2  UNL     1      16.361 -14.914  21.510  1.00  0.00    -0.277 N 
HETATM   12  N3  UNL     1      15.404 -14.100  21.926  1.00  0.00    -0.276 N 
HETATM   13  C4  UNL     1      14.191 -14.482  21.588  1.00  0.00     0.170 A 
ATOM     14  H3  UNL     1      15.589 -13.253  22.462  1.00  0.00     0.189 HD
HETATM   15  C10 UNL     1      14.335 -15.657  20.879  1.00  0.00     0.047 A 
HETATM   16  C11 UNL     1      13.419 -16.492  20.289  1.00  0.00     0.055 A 
HETATM   17  C18 UNL     1      15.698 -15.895  20.851  1.00  0.00     0.066 A 
HETATM   18  C12 UNL     1      13.839 -17.648  19.616  1.00  0.00     0.070 A 
HETATM   19  C16 UNL     1      15.191 -17.865  19.598  1.00  0.00     0.039 A 
HETATM   20  C17 UNL     1      16.116 -17.012  20.201  1.00  0.00     0.035 A 
BRANCH  13  21
HETATM   21  O1  UNL     1      12.948 -13.890  21.844  1.00  0.00    -0.334 OA
BRANCH  21  22
HETATM   22  C5  UNL     1      12.593 -12.778  21.029  1.00  0.00     0.186 C 
BRANCH  22  23
HETATM   23  C6  UNL     1      11.758 -11.778  21.790  1.00  0.00     0.071 C 
HETATM   24  C7  UNL     1      11.467 -12.266  23.196  1.00  0.00     0.241 C 
HETATM   25  N4  UNL     1      11.093 -11.018  23.856  1.00  0.00    -0.072 N 
HETATM   26  C8  UNL     1      12.025 -10.039  23.367  1.00  0.00     0.269 C 
ATOM     27  H42 UNL     1      10.116 -10.758  23.722  1.00  0.00     0.277 HD
ATOM     28  H41 UNL     1      11.060 -11.084  24.873  1.00  0.00     0.277 HD
HETATM   29  C9  UNL     1      12.577 -10.538  22.062  1.00  0.00     0.203 C 
HETATM   30  F1  UNL     1      13.916 -10.843  22.247  1.00  0.00    -0.247 F 
ENDBRANCH  22  23
ENDBRANCH  21  22
ENDBRANCH  13  21
BRANCH  18  31
HETATM   31  O2  UNL     1      12.912 -18.480  19.026  1.00  0.00    -0.340 OA
BRANCH  31  32
HETATM   32  C13 UNL     1      12.229 -18.110  17.871  1.00  0.00     0.206 A 
HETATM   33  C14 UNL     1      11.105 -19.097  17.478  1.00  0.00     0.120 A 
HETATM   34  C15 UNL     1      10.793 -17.744  18.081  1.00  0.00     0.272 A 
HETATM   35  F2  UNL     1      10.211 -16.810  17.227  1.00  0.00    -0.203 F 
HETATM   36  F3  UNL     1      10.305 -17.705  19.365  1.00  0.00    -0.203 F 
ENDBRANCH  31  32
ENDBRANCH  18  31
ENDBRANCH   4  11
BRANCH   8  37
HETATM   37  C22 UNL     1      21.234 -15.756  24.212  1.00  0.00     0.191 C 
BRANCH  37  38
HETATM   38  O3  UNL     1      22.554 -15.507  23.946  1.00  0.00    -0.399 OA
ATOM     39  H3  UNL     1      22.998 -14.920  24.547  1.00  0.00     0.209 HD
ENDBRANCH  37  38
ENDBRANCH   8  37
BRANCH   9  40
HETATM   40  C23 UNL     1      20.081 -17.615  22.539  1.00  0.00     0.127 C 
HETATM   41  C24 UNL     1      19.130 -18.693  22.061  1.00  0.00     0.194 C 
HETATM   42  O4  UNL     1      20.302 -19.392  21.671  1.00  0.00    -0.387 OA
HETATM   43  C25 UNL     1      20.787 -18.106  21.325  1.00  0.00     0.194 C 
ENDBRANCH   9  40
ENDBRANCH   3   4
TORSDOF 10
ENDMDL
MODEL 3
REMARK VINA RESULT: -8.586343505      2.541      7.413
REMARK  10 active torsions:
REMARK  status: ('A' for Active; 'I' for Inactive)
REMARK    1  A    between atoms: C2_3  and  C3_4 
REMARK    2  A    between atoms: C3_4  and  N2_5 
REMARK    3  A    between atoms: C4_8  and  O1_9 
REMARK    4  A    between atoms: O1_9  and  C5_10 
REMARK    5  A    between atoms: C5_10  and  C6_11 
REMARK    6  A    between atoms: C12_21  and  O2_22 
REMARK    7  A    between atoms: O2_22  and  C13_23 
REMARK    8  A    between atoms: C21_34  and  C22_35 
REMARK    9  A    between atoms: C22_35  and  O3_36 
REMARK   10  A    between atoms: N5_38  and  C23_39 
ROOT
HETATM    1  N1  UNL     1      16.439 -20.610  22.804  1.00  0.00    -0.197 NA
HETATM    2  C1  UNL     1      15.898 -19.590  22.747  1.00  0.00     0.061 C 
HETATM    3  C2  UNL     1      15.212 -18.337  22.701  1.00  0.00     0.158 C 
ENDROOT
BRANCH   3   4
HETATM    4  C3  UNL     1      15.243 -17.582  21.412  1.00  0.00     0.084 C 
HETATM    5  C19 UNL     1      13.777 -17.131  21.185  1.00  0.00     0.075 C 
HETATM    6  C20 UNL     1      12.858 -18.293  21.018  1.00  0.00     0.197 C 
HETATM    7  F4  UNL     1      11.652 -17.748  20.553  1.00  0.00    -0.247 F 
HETATM    8  C21 UNL     1      13.379 -19.351  20.076  1.00  0.00     0.137 C 
HETATM    9  N5  UNL     1      14.515 -18.871  19.419  1.00  0.00    -0.393 N 
HETATM   10  C26 UNL     1      15.592 -18.350  20.195  1.00  0.00     0.152 C 
BRANCH   4  11
HETATM   11  N2  UNL     1      15.962 -16.318  21.553  1.00  0.00    -0.277 N 
HETATM   12  N3  UNL     1      15.470 -15.104  21.367  1.00  0.00    -0.276 N 
HETATM   13  C4  UNL     1      16.342 -14.137  21.558  1.00  0.00     0.170 A 
ATOM     14  H3  UNL     1      14.502 -14.932  21.098  1.00  0.00     0.189 HD
HETATM   15  C10 UNL     1      17.530 -14.746  21.905  1.00  0.00     0.047 A 
HETATM   16  C11 UNL     1      18.768 -14.237  22.214  1.00  0.00     0.055 A 
HETATM   17  C18 UNL     1      17.257 -16.103  21.892  1.00  0.00     0.066 A 
HETATM   18  C12 UNL     1      19.829 -15.094  22.539  1.00  0.00     0.070 A 
HETATM   19  C16 UNL     1      19.537 -16.432  22.521  1.00  0.00     0.039 A 
HETATM   20  C17 UNL     1      18.278 -16.941  22.206  1.00  0.00     0.035 A 
BRANCH  13  21
HETATM   21  O1  UNL     1      16.196 -12.748  21.456  1.00  0.00    -0.334 OA
BRANCH  21  22
HETATM   22  C5  UNL     1      15.080 -12.279  20.706  1.00  0.00     0.186 C 
BRANCH  22  23
HETATM   23  C6  UNL     1      14.024 -11.679  21.601  1.00  0.00     0.071 C 
HETATM   24  C7  UNL     1      13.223 -10.621  20.869  1.00  0.00     0.241 C 
HETATM   25  N4  UNL     1      12.033 -10.535  21.712  1.00  0.00    -0.072 N 
HETATM   26  C8  UNL     1      11.715 -11.893  22.055  1.00  0.00     0.269 C 
ATOM     27  H42 UNL     1      12.144  -9.922  22.519  1.00  0.00     0.277 HD
ATOM     28  H41 UNL     1      11.260 -10.027  21.282  1.00  0.00     0.277 HD
HETATM   29  C9  UNL     1      12.963 -12.715  21.895  1.00  0.00     0.203 C 
HETATM   30  F1  UNL     1      12.781 -13.575  20.825  1.00  0.00    -0.247 F 
ENDBRANCH  22  23
ENDBRANCH  21  22
ENDBRANCH  13  21
BRANCH  18  31
HETATM   31  O2  UNL     1      21.068 -14.574  22.848  1.00  0.00    -0.340 OA
BRANCH  31  32
HETATM   32  C13 UNL     1      21.794 -15.022  23.948  1.00  0.00     0.206 A 
HETATM   33  C14 UNL     1      22.882 -14.027  24.413  1.00  0.00     0.120 A 
HETATM   34  C15 UNL     1      21.601 -14.219  25.196  1.00  0.00     0.272 A 
HETATM   35  F2  UNL     1      21.723 -14.860  26.426  1.00  0.00    -0.203 F 
HETATM   36  F3  UNL     1      20.679 -13.201  25.188  1.00  0.00    -0.203 F 
ENDBRANCH  31  32
ENDBRANCH  18  31
ENDBRANCH   4  11
BRANCH   8  37
HETATM   37  C22 UNL     1      12.316 -19.886  19.160  1.00  0.00     0.191 C 
BRANCH  37  38
HETATM   38  O3  UNL     1      11.459 -20.805  19.704  1.00  0.00    -0.399 OA
ATOM     39  H3  UNL     1      10.727 -21.068  19.158  1.00  0.00     0.209 HD
ENDBRANCH  37  38
ENDBRANCH   8  37
BRANCH   9  40
HETATM   40  C23 UNL     1      14.824 -19.368  18.147  1.00  0.00     0.127 C 
HETATM   41  C24 UNL     1      14.998 -18.303  17.084  1.00  0.00     0.194 C 
HETATM   42  O4  UNL     1      15.828 -19.252  16.433  1.00  0.00    -0.387 OA
HETATM   43  C25 UNL     1      16.240 -19.587  17.747  1.00  0.00     0.194 C 
ENDBRANCH   9  40
ENDBRANCH   3   4
TORSDOF 10
ENDMDL
MODEL 4
REMARK VINA RESULT: -8.506749069      2.791      7.541
REMARK  10 active torsions:
REMARK  status: ('A' for Active; 'I' for Inactive)
REMARK    1  A    between atoms: C2_3  and  C3_4 
REMARK    2  A    between atoms: C3_4  and  N2_5 
REMARK    3  A    between atoms: C4_8  and  O1_9 
REMARK    4  A    between atoms: O1_9  and  C5_10 
REMARK    5  A    between atoms: C5_10  and  C6_11 
REMARK    6  A    between atoms: C12_21  and  O2_22 
REMARK    7  A    between atoms: O2_22  and  C13_23 
REMARK    8  A    between atoms: C21_34  and  C22_35 
REMARK    9  A    between atoms: C22_35  and  O3_36 
REMARK   10  A    between atoms: N5_38  and  C23_39 
ROOT
HETATM    1  N1  UNL     1      14.033 -19.871  21.568  1.00  0.00    -0.197 NA
HETATM    2  C1  UNL     1      13.600 -18.834  21.296  1.00  0.00     0.061 C 
HETATM    3  C2  UNL     1      13.040 -17.558  20.975  1.00  0.00     0.158 C 
ENDROOT
BRANCH   3   4
HETATM    4  C3  UNL     1      13.550 -16.871  19.751  1.00  0.00     0.084 C 
HETATM    5  C19 UNL     1      12.277 -16.372  19.021  1.00  0.00     0.075 C 
HETATM    6  C20 UNL     1      11.406 -17.503  18.587  1.00  0.00     0.197 C 
HETATM    7  F4  UNL     1      10.463 -16.933  17.720  1.00  0.00    -0.247 F 
HETATM    8  C21 UNL     1      12.158 -18.627  17.917  1.00  0.00     0.137 C 
HETATM    9  N5  UNL     1      13.474 -18.227  17.673  1.00  0.00    -0.393 N 
HETATM   10  C26 UNL     1      14.250 -17.712  18.754  1.00  0.00     0.152 C 
BRANCH   4  11
HETATM   11  N2  UNL     1      14.246 -15.632  20.088  1.00  0.00    -0.277 N 
HETATM   12  N3  UNL     1      13.831 -14.399  19.844  1.00  0.00    -0.276 N 
HETATM   13  C4  UNL     1      14.660 -13.463  20.252  1.00  0.00     0.170 A 
ATOM     14  H3  UNL     1      12.946 -14.193  19.381  1.00  0.00     0.189 HD
HETATM   15  C10 UNL     1      15.734 -14.114  20.824  1.00  0.00     0.047 A 
HETATM   16  C11 UNL     1      16.885 -13.648  21.409  1.00  0.00     0.055 A 
HETATM   17  C18 UNL     1      15.442 -15.462  20.704  1.00  0.00     0.066 A 
HETATM   18  C12 UNL     1      17.835 -14.543  21.922  1.00  0.00     0.070 A 
HETATM   19  C16 UNL     1      17.527 -15.871  21.795  1.00  0.00     0.039 A 
HETATM   20  C17 UNL     1      16.355 -16.336  21.199  1.00  0.00     0.035 A 
BRANCH  13  21
HETATM   21  O1  UNL     1      14.566 -12.068  20.171  1.00  0.00    -0.334 OA
BRANCH  21  22
HETATM   22  C5  UNL     1      13.318 -11.491  20.542  1.00  0.00     0.186 C 
BRANCH  22  23
HETATM   23  C6  UNL     1      13.154 -11.443  22.041  1.00  0.00     0.071 C 
HETATM   24  C7  UNL     1      12.456 -10.169  22.474  1.00  0.00     0.241 C 
HETATM   25  N4  UNL     1      12.001 -10.537  23.811  1.00  0.00    -0.072 N 
HETATM   26  C8  UNL     1      11.520 -11.885  23.688  1.00  0.00     0.269 C 
ATOM     27  H42 UNL     1      12.710 -10.418  24.535  1.00  0.00     0.277 HD
ATOM     28  H41 UNL     1      11.319  -9.891  24.207  1.00  0.00     0.277 HD
HETATM   29  C9  UNL     1      12.162 -12.496  22.475  1.00  0.00     0.203 C 
HETATM   30  F1  UNL     1      11.179 -12.695  21.518  1.00  0.00    -0.247 F 
ENDBRANCH  22  23
ENDBRANCH  21  22
ENDBRANCH  13  21
BRANCH  18  31
HETATM   31  O2  UNL     1      18.988 -14.066  22.508  1.00  0.00    -0.340 OA
BRANCH  31  32
HETATM   32  C13 UNL     1      19.718 -14.832  23.414  1.00  0.00     0.206 A 
HETATM   33  C14 UNL     1      20.176 -14.039  24.660  1.00  0.00     0.120 A 
HETATM   34  C15 UNL     1      19.048 -15.047  24.735  1.00  0.00     0.272 A 
HETATM   35  F2  UNL     1      19.319 -16.220  25.435  1.00  0.00    -0.203 F 
HETATM   36  F3  UNL     1      17.771 -14.575  24.910  1.00  0.00    -0.203 F 
ENDBRANCH  31  32
ENDBRANCH  18  31
ENDBRANCH   4  11
BRANCH   8  37
HETATM   37  C22 UNL     1      11.442 -19.164  16.710  1.00  0.00     0.191 C 
BRANCH  37  38
HETATM   38  O3  UNL     1      10.476 -20.103  16.951  1.00  0.00    -0.399 OA
ATOM     39  H3  UNL     1       9.812 -19.865  17.587  1.00  0.00     0.209 HD
ENDBRANCH  37  38
ENDBRANCH   8  37
BRANCH   9  40
HETATM   40  C23 UNL     1      14.170 -18.799  16.601  1.00  0.00     0.127 C 
HETATM   41  C24 UNL     1      15.475 -18.109  16.262  1.00  0.00     0.194 C 
HETATM   42  O4  UNL     1      15.871 -19.367  15.738  1.00  0.00    -0.387 OA
HETATM   43  C25 UNL     1      15.146 -19.896  16.836  1.00  0.00     0.194 C 
ENDBRANCH   9  40
ENDBRANCH   3   4
TORSDOF 10
ENDMDL
MODEL 5
REMARK VINA RESULT: -8.497309225      1.784      2.101
REMARK  10 active torsions:
REMARK  status: ('A' for Active; 'I' for Inactive)
REMARK    1  A    between atoms: C2_3  and  C3_4 
REMARK    2  A    between atoms: C3_4  and  N2_5 
REMARK    3  A    between atoms: C4_8  and  O1_9 
REMARK    4  A    between atoms: O1_9  and  C5_10 
REMARK    5  A    between atoms: C5_10  and  C6_11 
REMARK    6  A    between atoms: C12_21  and  O2_22 
REMARK    7  A    between atoms: O2_22  and  C13_23 
REMARK    8  A    between atoms: C21_34  and  C22_35 
REMARK    9  A    between atoms: C22_35  and  O3_36 
REMARK   10  A    between atoms: N5_38  and  C23_39 
ROOT
HETATM    1  N1  UNL     1      20.406 -13.064  19.524  1.00  0.00    -0.197 NA
HETATM    2  C1  UNL     1      19.768 -13.220  20.476  1.00  0.00     0.061 C 
HETATM    3  C2  UNL     1      18.992 -13.388  21.665  1.00  0.00     0.158 C 
ENDROOT
BRANCH   3   4
HETATM    4  C3  UNL     1      18.377 -14.729  21.901  1.00  0.00     0.084 C 
HETATM    5  C19 UNL     1      18.060 -14.754  23.419  1.00  0.00     0.075 C 
HETATM    6  C20 UNL     1      19.297 -14.661  24.246  1.00  0.00     0.197 C 
HETATM    7  F4  UNL     1      18.893 -14.970  25.553  1.00  0.00    -0.247 F 
HETATM    8  C21 UNL     1      20.407 -15.573  23.786  1.00  0.00     0.137 C 
HETATM    9  N5  UNL     1      19.918 -16.448  22.813  1.00  0.00    -0.393 N 
HETATM   10  C26 UNL     1      19.242 -15.910  21.679  1.00  0.00     0.152 C 
BRANCH   4  11
HETATM   11  N2  UNL     1      17.057 -14.824  21.284  1.00  0.00    -0.277 N 
HETATM   12  N3  UNL     1      16.286 -13.818  20.904  1.00  0.00    -0.276 N 
HETATM   13  C4  UNL     1      15.138 -14.189  20.378  1.00  0.00     0.170 A 
ATOM     14  H3  UNL     1      16.557 -12.841  21.009  1.00  0.00     0.189 HD
HETATM   15  C10 UNL     1      15.127 -15.569  20.402  1.00  0.00     0.047 A 
HETATM   16  C11 UNL     1      14.193 -16.487  19.988  1.00  0.00     0.055 A 
HETATM   17  C18 UNL     1      16.336 -15.929  20.972  1.00  0.00     0.066 A 
HETATM   18  C12 UNL     1      14.434 -17.861  20.130  1.00  0.00     0.070 A 
HETATM   19  C16 UNL     1      15.636 -18.196  20.695  1.00  0.00     0.039 A 
HETATM   20  C17 UNL     1      16.579 -17.257  21.113  1.00  0.00     0.035 A 
BRANCH  13  21
HETATM   21  O1  UNL     1      14.082 -13.424  19.870  1.00  0.00    -0.334 OA
BRANCH  21  22
HETATM   22  C5  UNL     1      13.835 -12.176  20.510  1.00  0.00     0.186 C 
BRANCH  22  23
HETATM   23  C6  UNL     1      12.493 -12.163  21.199  1.00  0.00     0.071 C 
HETATM   24  C7  UNL     1      12.458 -13.153  22.348  1.00  0.00     0.241 C 
HETATM   25  N4  UNL     1      11.320 -12.653  23.115  1.00  0.00    -0.072 N 
HETATM   26  C8  UNL     1      11.455 -11.223  23.102  1.00  0.00     0.269 C 
ATOM     27  H42 UNL     1      10.417 -12.984  22.776  1.00  0.00     0.277 HD
ATOM     28  H41 UNL     1      11.248 -13.052  24.051  1.00  0.00     0.277 HD
HETATM   29  C9  UNL     1      12.309 -10.850  21.924  1.00  0.00     0.203 C 
HETATM   30  F1  UNL     1      13.514 -10.359  22.401  1.00  0.00    -0.247 F 
ENDBRANCH  22  23
ENDBRANCH  21  22
ENDBRANCH  13  21
BRANCH  18  31
HETATM   31  O2  UNL     1      13.491 -18.775  19.711  1.00  0.00    -0.340 OA
BRANCH  31  32
HETATM   32  C13 UNL     1      12.598 -18.484  18.684  1.00  0.00     0.206 A 
HETATM   33  C14 UNL     1      11.395 -19.454  18.623  1.00  0.00     0.120 A 
HETATM   34  C15 UNL     1      11.243 -18.039  19.140  1.00  0.00     0.272 A 
HETATM   35  F2  UNL     1      10.522 -17.163  18.331  1.00  0.00    -0.203 F 
HETATM   36  F3  UNL     1      11.026 -17.862  20.484  1.00  0.00    -0.203 F 
ENDBRANCH  31  32
ENDBRANCH  18  31
ENDBRANCH   4  11
BRANCH   8  37
HETATM   37  C22 UNL     1      21.112 -16.250  24.928  1.00  0.00     0.191 C 
BRANCH  37  38
HETATM   38  O3  UNL     1      22.260 -15.647  25.368  1.00  0.00    -0.399 OA
ATOM     39  H3  UNL     1      22.577 -15.926  26.219  1.00  0.00     0.209 HD
ENDBRANCH  37  38
ENDBRANCH   8  37
BRANCH   9  40
HETATM   40  C23 UNL     1      20.522 -17.703  22.663  1.00  0.00     0.127 C 
HETATM   41  C24 UNL     1      19.551 -18.864  22.620  1.00  0.00     0.194 C 
HETATM   42  O4  UNL     1      20.560 -19.530  21.877  1.00  0.00    -0.387 OA
HETATM   43  C25 UNL     1      20.789 -18.252  21.307  1.00  0.00     0.194 C 
ENDBRANCH   9  40
ENDBRANCH   3   4
TORSDOF 10
ENDMDL
