MODEL 1
REMARK VINA RESULT: -9.069524014      0.000      0.000
REMARK  16 active torsions:
REMARK  status: ('A' for Active; 'I' for Inactive)
REMARK    1  A    between atoms: C2_2  and  C3_3 
REMARK    2  A    between atoms: N2_6  and  C4_7 
REMARK    3  A    between atoms: C4_7  and  C5_8 
REMARK    4  A    between atoms: C12_15  and  C13_16 
REMARK    5  A    between atoms: C13_16  and  C14_17 
REMARK    6  A    between atoms: C14_17  and  C15_18 
REMARK    7  A    between atoms: C15_18  and  N3_19 
REMARK    8  A    between atoms: C15_18  and  C22_32 
REMARK    9  A    between atoms: N3_19  and  C16_21 
REMARK   10  A    between atoms: C16_21  and  C17_22 
REMARK       I    between atoms: C17_22  and  N4_24 
REMARK   11  A    between atoms: N4_24  and  C18_25 
REMARK   12  A    between atoms: C22_32  and  C23_36 
REMARK   13  A    between atoms: C23_36  and  C24_37 
REMARK   14  A    between atoms: C24_37  and  C25_38 
REMARK   15  A    between atoms: C25_38  and  N8_39 
REMARK   16  A    between atoms: N8_39  and  N9_41 
ROOT
HETATM    1  C15 UNL     1     -17.335  93.458  81.969  1.00  0.00     0.122 C 
ENDROOT
BRANCH   1   2
HETATM    2  C14 UNL     1     -16.149  94.202  81.390  1.00  0.00     0.035 C 
BRANCH   2   3
HETATM    3  C13 UNL     1     -16.505  95.555  80.897  1.00  0.00     0.044 C 
BRANCH   3   4
HETATM    4  C12 UNL     1     -15.726  96.101  79.785  1.00  0.00    -0.017 A 
HETATM    5  C3  UNL     1     -16.087  96.366  78.496  1.00  0.00     0.033 A 
HETATM    6  N1  UNL     1     -15.006  96.876  77.819  1.00  0.00    -0.302 N 
HETATM    7  N2  UNL     1     -14.001  96.928  78.666  1.00  0.00    -0.298 N 
ATOM      8  H1  UNL     1     -14.987  97.162  76.840  1.00  0.00     0.186 HD
HETATM    9  C11 UNL     1     -14.365  96.478  79.863  1.00  0.00     0.119 A 
BRANCH   5  10
HETATM   10  C2  UNL     1     -17.380  96.180  77.832  1.00  0.00     0.055 C 
HETATM   11  C1  UNL     1     -17.518  97.066  76.640  1.00  0.00     0.011 C 
ENDBRANCH   5  10
BRANCH   7  12
HETATM   12  C4  UNL     1     -12.664  97.406  78.365  1.00  0.00     0.186 C 
BRANCH  12  13
HETATM   13  C5  UNL     1     -11.664  96.305  78.284  1.00  0.00    -0.038 A 
HETATM   14  C6  UNL     1     -11.437  95.660  77.085  1.00  0.00     0.009 A 
HETATM   15  C7  UNL     1     -10.529  94.634  76.920  1.00  0.00     0.001 A 
HETATM   16  C8  UNL     1      -9.814  94.244  78.034  1.00  0.00     0.000 A 
HETATM   17  C9  UNL     1     -10.032  94.883  79.245  1.00  0.00     0.001 A 
HETATM   18  C10 UNL     1     -10.944  95.903  79.382  1.00  0.00     0.009 A 
ENDBRANCH  12  13
ENDBRANCH   7  12
ENDBRANCH   3   4
ENDBRANCH   2   3
ENDBRANCH   1   2
BRANCH   1  19
HETATM   19  N3  UNL     1     -17.313  93.126  83.316  1.00  0.00    -0.403 N 
ATOM     20  H3  UNL     1     -17.417  92.146  83.579  1.00  0.00     0.154 HD
BRANCH  19  21
HETATM   21  C16 UNL     1     -17.153  94.080  84.329  1.00  0.00     0.234 C 
BRANCH  21  22
HETATM   22  C17 UNL     1     -15.996  93.604  85.214  1.00  0.00     0.311 C 
HETATM   23  O1  UNL     1     -15.496  92.465  84.884  1.00  0.00    -0.255 OA
HETATM   24  N4  UNL     1     -15.532  94.278  86.231  1.00  0.00    -0.334 NA
BRANCH  24  25
HETATM   25  C18 UNL     1     -15.164  94.901  87.167  1.00  0.00     0.256 C 
HETATM   26  N5  UNL     1     -15.826  95.980  87.860  1.00  0.00    -0.349 N 
HETATM   27  C19 UNL     1     -14.859  96.766  88.578  1.00  0.00     0.143 C 
ATOM     28  H5  UNL     1     -16.830  96.158  87.842  1.00  0.00     0.163 HD
HETATM   29  C20 UNL     1     -13.556  95.993  88.515  1.00  0.00     0.146 C 
HETATM   30  N6  UNL     1     -13.914  94.742  87.890  1.00  0.00    -0.344 N 
HETATM   31  C21 UNL     1     -13.125  93.532  87.989  1.00  0.00     0.154 C 
ENDBRANCH  24  25
ENDBRANCH  21  22
ENDBRANCH  19  21
ENDBRANCH   1  19
BRANCH   1  32
HETATM   32  C22 UNL     1     -17.643  92.319  81.076  1.00  0.00     0.002 C 
HETATM   33  N7  UNL     1     -17.202  91.140  81.417  1.00  0.00    -0.404 N 
ATOM     34  H72 UNL     1     -16.674  91.105  82.288  1.00  0.00     0.155 HD
ATOM     35  H71 UNL     1     -17.414  90.355  80.802  1.00  0.00     0.155 HD
BRANCH  32  36
HETATM   36  C23 UNL     1     -18.402  92.370  79.824  1.00  0.00     0.056 C 
BRANCH  36  37
HETATM   37  C24 UNL     1     -19.427  93.494  79.809  1.00  0.00     0.027 C 
BRANCH  37  38
HETATM   38  C25 UNL     1     -20.600  93.011  80.645  1.00  0.00     0.141 C 
BRANCH  38  39
HETATM   39  N8  UNL     1     -20.896  91.626  80.454  1.00  0.00    -0.323 N 
ATOM     40  H8  UNL     1     -20.976  91.247  79.510  1.00  0.00     0.181 HD
BRANCH  39  41
HETATM   41  N9  UNL     1     -21.073  90.802  81.546  1.00  0.00    -0.254 N 
HETATM   42  N10 UNL     1     -20.992  91.314  82.713  1.00  0.00    -0.331 N 
ATOM     43 2H10 UNL     1     -20.800  92.311  82.819  1.00  0.00     0.178 HD
ATOM     44 1H10 UNL     1     -21.124  90.705  83.521  1.00  0.00     0.178 HD
ATOM     45  H9  UNL     1     -21.265  89.808  81.425  1.00  0.00     0.207 HD
ENDBRANCH  39  41
ENDBRANCH  38  39
ENDBRANCH  37  38
ENDBRANCH  36  37
ENDBRANCH  32  36
ENDBRANCH   1  32
TORSDOF 16
ENDMDL
MODEL 2
REMARK VINA RESULT: -9.027946983      2.035      6.808
REMARK  16 active torsions:
REMARK  status: ('A' for Active; 'I' for Inactive)
REMARK    1  A    between atoms: C2_2  and  C3_3 
REMARK    2  A    between atoms: N2_6  and  C4_7 
REMARK    3  A    between atoms: C4_7  and  C5_8 
REMARK    4  A    between atoms: C12_15  and  C13_16 
REMARK    5  A    between atoms: C13_16  and  C14_17 
REMARK    6  A    between atoms: C14_17  and  C15_18 
REMARK    7  A    between atoms: C15_18  and  N3_19 
REMARK    8  A    between atoms: C15_18  and  C22_32 
REMARK    9  A    between atoms: N3_19  and  C16_21 
REMARK   10  A    between atoms: C16_21  and  C17_22 
REMARK       I    between atoms: C17_22  and  N4_24 
REMARK   11  A    between atoms: N4_24  and  C18_25 
REMARK   12  A    between atoms: C22_32  and  C23_36 
REMARK   13  A    between atoms: C23_36  and  C24_37 
REMARK   14  A    between atoms: C24_37  and  C25_38 
REMARK   15  A    between atoms: C25_38  and  N8_39 
REMARK   16  A    between atoms: N8_39  and  N9_41 
ROOT
HETATM    1  C15 UNL     1     -17.343  92.612  82.747  1.00  0.00     0.122 C 
ENDROOT
BRANCH   1   2
HETATM    2  C14 UNL     1     -16.869  93.860  82.031  1.00  0.00     0.035 C 
BRANCH   2   3
HETATM    3  C13 UNL     1     -16.502  93.607  80.617  1.00  0.00     0.044 C 
BRANCH   3   4
HETATM    4  C12 UNL     1     -16.023  94.741  79.825  1.00  0.00    -0.017 A 
HETATM    5  C3  UNL     1     -16.663  95.502  78.890  1.00  0.00     0.033 A 
HETATM    6  N1  UNL     1     -15.799  96.458  78.416  1.00  0.00    -0.302 N 
HETATM    7  N2  UNL     1     -14.653  96.297  79.041  1.00  0.00    -0.298 N 
ATOM      8  H1  UNL     1     -16.008  97.165  77.710  1.00  0.00     0.186 HD
HETATM    9  C11 UNL     1     -14.719  95.283  79.900  1.00  0.00     0.119 A 
BRANCH   5  10
HETATM   10  C2  UNL     1     -18.039  95.410  78.394  1.00  0.00     0.055 C 
HETATM   11  C1  UNL     1     -19.011  96.012  79.353  1.00  0.00     0.011 C 
ENDBRANCH   5  10
BRANCH   7  12
HETATM   12  C4  UNL     1     -13.459  97.098  78.842  1.00  0.00     0.186 C 
BRANCH  12  13
HETATM   13  C5  UNL     1     -12.242  96.270  78.616  1.00  0.00    -0.038 A 
HETATM   14  C6  UNL     1     -12.055  95.625  77.411  1.00  0.00     0.009 A 
HETATM   15  C7  UNL     1     -10.956  94.842  77.117  1.00  0.00     0.001 A 
HETATM   16  C8  UNL     1      -9.999  94.709  78.102  1.00  0.00     0.000 A 
HETATM   17  C9  UNL     1     -10.174  95.352  79.317  1.00  0.00     0.001 A 
HETATM   18  C10 UNL     1     -11.279  96.127  79.584  1.00  0.00     0.009 A 
ENDBRANCH  12  13
ENDBRANCH   7  12
ENDBRANCH   3   4
ENDBRANCH   2   3
ENDBRANCH   1   2
BRANCH   1  19
HETATM   19  N3  UNL     1     -18.706  92.433  82.931  1.00  0.00    -0.403 N 
ATOM     20  H3  UNL     1     -19.022  91.849  83.705  1.00  0.00     0.154 HD
BRANCH  19  21
HETATM   21  C16 UNL     1     -19.667  93.019  82.096  1.00  0.00     0.234 C 
BRANCH  21  22
HETATM   22  C17 UNL     1     -20.899  92.107  82.123  1.00  0.00     0.311 C 
HETATM   23  O1  UNL     1     -21.271  91.736  83.298  1.00  0.00    -0.255 OA
HETATM   24  N4  UNL     1     -21.540  91.719  81.054  1.00  0.00    -0.334 NA
BRANCH  24  25
HETATM   25  C18 UNL     1     -22.073  91.360  80.061  1.00  0.00     0.256 C 
HETATM   26  N5  UNL     1     -21.517  91.193  78.739  1.00  0.00    -0.349 N 
HETATM   27  C19 UNL     1     -22.569  91.238  77.758  1.00  0.00     0.143 C 
ATOM     28  H5  UNL     1     -20.527  91.064  78.532  1.00  0.00     0.163 HD
HETATM   29  C20 UNL     1     -23.871  91.197  78.533  1.00  0.00     0.146 C 
HETATM   30  N6  UNL     1     -23.466  90.977  79.901  1.00  0.00    -0.344 N 
HETATM   31  C21 UNL     1     -24.338  90.455  80.931  1.00  0.00     0.154 C 
ENDBRANCH  24  25
ENDBRANCH  21  22
ENDBRANCH  19  21
ENDBRANCH   1  19
BRANCH   1  32
HETATM   32  C22 UNL     1     -16.547  92.462  83.985  1.00  0.00     0.002 C 
HETATM   33  N7  UNL     1     -16.213  91.257  84.354  1.00  0.00    -0.404 N 
ATOM     34  H72 UNL     1     -16.535  90.506  83.743  1.00  0.00     0.155 HD
ATOM     35  H71 UNL     1     -15.665  91.154  85.207  1.00  0.00     0.155 HD
BRANCH  32  36
HETATM   36  C23 UNL     1     -16.085  93.540  84.863  1.00  0.00     0.056 C 
BRANCH  36  37
HETATM   37  C24 UNL     1     -14.974  93.092  85.802  1.00  0.00     0.027 C 
BRANCH  37  38
HETATM   38  C25 UNL     1     -14.977  94.071  86.962  1.00  0.00     0.141 C 
BRANCH  38  39
HETATM   39  N8  UNL     1     -15.841  95.190  86.754  1.00  0.00    -0.323 N 
ATOM     40  H8  UNL     1     -16.346  95.288  85.872  1.00  0.00     0.181 HD
BRANCH  39  41
HETATM   41  N9  UNL     1     -15.995  96.137  87.745  1.00  0.00    -0.254 N 
HETATM   42  N10 UNL     1     -15.151  96.154  88.705  1.00  0.00    -0.331 N 
ATOM     43 2H10 UNL     1     -14.389  95.477  88.722  1.00  0.00     0.178 HD
ATOM     44 1H10 UNL     1     -15.265  96.855  89.437  1.00  0.00     0.178 HD
ATOM     45  H9  UNL     1     -16.762  96.808  87.713  1.00  0.00     0.207 HD
ENDBRANCH  39  41
ENDBRANCH  38  39
ENDBRANCH  37  38
ENDBRANCH  36  37
ENDBRANCH  32  36
ENDBRANCH   1  32
TORSDOF 16
ENDMDL
MODEL 3
REMARK VINA RESULT: -8.995125347      1.652      2.168
REMARK  16 active torsions:
REMARK  status: ('A' for Active; 'I' for Inactive)
REMARK    1  A    between atoms: C2_2  and  C3_3 
REMARK    2  A    between atoms: N2_6  and  C4_7 
REMARK    3  A    between atoms: C4_7  and  C5_8 
REMARK    4  A    between atoms: C12_15  and  C13_16 
REMARK    5  A    between atoms: C13_16  and  C14_17 
REMARK    6  A    between atoms: C14_17  and  C15_18 
REMARK    7  A    between atoms: C15_18  and  N3_19 
REMARK    8  A    between atoms: C15_18  and  C22_32 
REMARK    9  A    between atoms: N3_19  and  C16_21 
REMARK   10  A    between atoms: C16_21  and  C17_22 
REMARK       I    between atoms: C17_22  and  N4_24 
REMARK   11  A    between atoms: N4_24  and  C18_25 
REMARK   12  A    between atoms: C22_32  and  C23_36 
REMARK   13  A    between atoms: C23_36  and  C24_37 
REMARK   14  A    between atoms: C24_37  and  C25_38 
REMARK   15  A    between atoms: C25_38  and  N8_39 
REMARK   16  A    between atoms: N8_39  and  N9_41 
ROOT
HETATM    1  C15 UNL     1     -17.904  93.146  82.357  1.00  0.00     0.122 C 
ENDROOT
BRANCH   1   2
HETATM    2  C14 UNL     1     -17.425  92.212  81.264  1.00  0.00     0.035 C 
BRANCH   2   3
HETATM    3  C13 UNL     1     -17.600  92.779  79.906  1.00  0.00     0.044 C 
BRANCH   3   4
HETATM    4  C12 UNL     1     -17.022  94.097  79.638  1.00  0.00    -0.017 A 
HETATM    5  C3  UNL     1     -17.496  95.138  78.894  1.00  0.00     0.033 A 
HETATM    6  N1  UNL     1     -16.596  96.174  78.941  1.00  0.00    -0.302 N 
HETATM    7  N2  UNL     1     -15.589  95.787  79.695  1.00  0.00    -0.298 N 
ATOM      8  H1  UNL     1     -16.690  97.078  78.477  1.00  0.00     0.186 HD
HETATM    9  C11 UNL     1     -15.782  94.550  80.145  1.00  0.00     0.119 A 
BRANCH   5  10
HETATM   10  C2  UNL     1     -18.742  95.249  78.131  1.00  0.00     0.055 C 
HETATM   11  C1  UNL     1     -19.878  95.686  78.994  1.00  0.00     0.011 C 
ENDBRANCH   5  10
BRANCH   7  12
HETATM   12  C4  UNL     1     -14.414  96.578  80.010  1.00  0.00     0.186 C 
BRANCH  12  13
HETATM   13  C5  UNL     1     -13.189  96.089  79.320  1.00  0.00    -0.038 A 
HETATM   14  C6  UNL     1     -13.145  96.030  77.942  1.00  0.00     0.009 A 
HETATM   15  C7  UNL     1     -12.051  95.594  77.222  1.00  0.00     0.001 A 
HETATM   16  C8  UNL     1     -10.944  95.196  77.943  1.00  0.00     0.000 A 
HETATM   17  C9  UNL     1     -10.974  95.250  79.328  1.00  0.00     0.001 A 
HETATM   18  C10 UNL     1     -12.078  95.689  80.021  1.00  0.00     0.009 A 
ENDBRANCH  12  13
ENDBRANCH   7  12
ENDBRANCH   3   4
ENDBRANCH   2   3
ENDBRANCH   1   2
BRANCH   1  19
HETATM   19  N3  UNL     1     -17.330  93.040  83.615  1.00  0.00    -0.403 N 
ATOM     20  H3  UNL     1     -17.221  92.113  84.026  1.00  0.00     0.154 HD
BRANCH  19  21
HETATM   21  C16 UNL     1     -16.893  94.153  84.345  1.00  0.00     0.234 C 
BRANCH  21  22
HETATM   22  C17 UNL     1     -15.822  93.654  85.323  1.00  0.00     0.311 C 
HETATM   23  O1  UNL     1     -15.367  92.477  85.071  1.00  0.00    -0.255 OA
HETATM   24  N4  UNL     1     -15.386  94.346  86.340  1.00  0.00    -0.334 NA
BRANCH  24  25
HETATM   25  C18 UNL     1     -15.044  94.989  87.273  1.00  0.00     0.256 C 
HETATM   26  N5  UNL     1     -15.739  96.059  87.945  1.00  0.00    -0.349 N 
HETATM   27  C19 UNL     1     -14.799  96.876  88.665  1.00  0.00     0.143 C 
ATOM     28  H5  UNL     1     -16.747  96.214  87.914  1.00  0.00     0.163 HD
HETATM   29  C20 UNL     1     -13.478  96.134  88.626  1.00  0.00     0.146 C 
HETATM   30  N6  UNL     1     -13.799  94.868  88.012  1.00  0.00    -0.344 N 
HETATM   31  C21 UNL     1     -12.983  93.678  88.134  1.00  0.00     0.154 C 
ENDBRANCH  24  25
ENDBRANCH  21  22
ENDBRANCH  19  21
ENDBRANCH   1  19
BRANCH   1  32
HETATM   32  C22 UNL     1     -19.383  93.119  82.369  1.00  0.00     0.002 C 
HETATM   33  N7  UNL     1     -20.014  94.257  82.293  1.00  0.00    -0.404 N 
ATOM     34  H72 UNL     1     -19.421  95.084  82.229  1.00  0.00     0.155 HD
ATOM     35  H71 UNL     1     -21.034  94.239  82.301  1.00  0.00     0.155 HD
BRANCH  32  36
HETATM   36  C23 UNL     1     -20.235  91.931  82.461  1.00  0.00     0.056 C 
BRANCH  36  37
HETATM   37  C24 UNL     1     -21.436  92.001  81.529  1.00  0.00     0.027 C 
BRANCH  37  38
HETATM   38  C25 UNL     1     -22.631  91.534  82.341  1.00  0.00     0.141 C 
BRANCH  38  39
HETATM   39  N8  UNL     1     -22.765  90.112  82.383  1.00  0.00    -0.323 N 
ATOM     40  H8  UNL     1     -21.933  89.523  82.442  1.00  0.00     0.181 HD
BRANCH  39  41
HETATM   41  N9  UNL     1     -24.017  89.535  82.344  1.00  0.00    -0.254 N 
HETATM   42  N10 UNL     1     -24.828  89.779  83.301  1.00  0.00    -0.331 N 
ATOM     43 2H10 UNL     1     -24.541  90.388  84.067  1.00  0.00     0.178 HD
ATOM     44 1H10 UNL     1     -25.754  89.352  83.272  1.00  0.00     0.178 HD
ATOM     45  H9  UNL     1     -24.289  88.928  81.571  1.00  0.00     0.207 HD
ENDBRANCH  39  41
ENDBRANCH  38  39
ENDBRANCH  37  38
ENDBRANCH  36  37
ENDBRANCH  32  36
ENDBRANCH   1  32
TORSDOF 16
ENDMDL
MODEL 4
REMARK VINA RESULT: -8.848601617      0.527      1.040
REMARK  16 active torsions:
REMARK  status: ('A' for Active; 'I' for Inactive)
REMARK    1  A    between atoms: C2_2  and  C3_3 
REMARK    2  A    between atoms: N2_6  and  C4_7 
REMARK    3  A    between atoms: C4_7  and  C5_8 
REMARK    4  A    between atoms: C12_15  and  C13_16 
REMARK    5  A    between atoms: C13_16  and  C14_17 
REMARK    6  A    between atoms: C14_17  and  C15_18 
REMARK    7  A    between atoms: C15_18  and  N3_19 
REMARK    8  A    between atoms: C15_18  and  C22_32 
REMARK    9  A    between atoms: N3_19  and  C16_21 
REMARK   10  A    between atoms: C16_21  and  C17_22 
REMARK       I    between atoms: C17_22  and  N4_24 
REMARK   11  A    between atoms: N4_24  and  C18_25 
REMARK   12  A    between atoms: C22_32  and  C23_36 
REMARK   13  A    between atoms: C23_36  and  C24_37 
REMARK   14  A    between atoms: C24_37  and  C25_38 
REMARK   15  A    between atoms: C25_38  and  N8_39 
REMARK   16  A    between atoms: N8_39  and  N9_41 
ROOT
HETATM    1  C15 UNL     1     -17.100  93.518  81.996  1.00  0.00     0.122 C 
ENDROOT
BRANCH   1   2
HETATM    2  C14 UNL     1     -15.931  94.158  81.276  1.00  0.00     0.035 C 
BRANCH   2   3
HETATM    3  C13 UNL     1     -16.219  95.541  80.826  1.00  0.00     0.044 C 
BRANCH   3   4
HETATM    4  C12 UNL     1     -15.390  96.095  79.754  1.00  0.00    -0.017 A 
HETATM    5  C3  UNL     1     -15.719  96.474  78.485  1.00  0.00     0.033 A 
HETATM    6  N1  UNL     1     -14.596  96.938  77.846  1.00  0.00    -0.302 N 
HETATM    7  N2  UNL     1     -13.596  96.851  78.696  1.00  0.00    -0.298 N 
ATOM      8  H1  UNL     1     -14.546  97.287  76.889  1.00  0.00     0.186 HD
HETATM    9  C11 UNL     1     -14.004  96.353  79.860  1.00  0.00     0.119 A 
BRANCH   5  10
HETATM   10  C2  UNL     1     -17.018  96.439  77.808  1.00  0.00     0.055 C 
HETATM   11  C1  UNL     1     -17.108  97.475  76.738  1.00  0.00     0.011 C 
ENDBRANCH   5  10
BRANCH   7  12
HETATM   12  C4  UNL     1     -12.222  97.237  78.431  1.00  0.00     0.186 C 
BRANCH  12  13
HETATM   13  C5  UNL     1     -11.320  96.066  78.247  1.00  0.00    -0.038 A 
HETATM   14  C6  UNL     1     -10.585  95.583  79.310  1.00  0.00     0.009 A 
HETATM   15  C7  UNL     1      -9.729  94.503  79.228  1.00  0.00     0.001 A 
HETATM   16  C8  UNL     1      -9.616  93.883  78.001  1.00  0.00     0.000 A 
HETATM   17  C9  UNL     1     -10.350  94.357  76.925  1.00  0.00     0.001 A 
HETATM   18  C10 UNL     1     -11.196  95.436  77.033  1.00  0.00     0.009 A 
ENDBRANCH  12  13
ENDBRANCH   7  12
ENDBRANCH   3   4
ENDBRANCH   2   3
ENDBRANCH   1   2
BRANCH   1  19
HETATM   19  N3  UNL     1     -16.901  93.037  83.282  1.00  0.00    -0.403 N 
ATOM     20  H3  UNL     1     -16.691  92.047  83.405  1.00  0.00     0.154 HD
BRANCH  19  21
HETATM   21  C16 UNL     1     -16.976  93.854  84.418  1.00  0.00     0.234 C 
BRANCH  21  22
HETATM   22  C17 UNL     1     -15.764  93.516  85.293  1.00  0.00     0.311 C 
HETATM   23  O1  UNL     1     -15.146  92.435  84.966  1.00  0.00    -0.255 OA
HETATM   24  N4  UNL     1     -15.366  94.247  86.298  1.00  0.00    -0.334 NA
BRANCH  24  25
HETATM   25  C18 UNL     1     -15.058  94.917  87.224  1.00  0.00     0.256 C 
HETATM   26  N5  UNL     1     -15.801  95.968  87.874  1.00  0.00    -0.349 N 
HETATM   27  C19 UNL     1     -14.902  96.833  88.589  1.00  0.00     0.143 C 
ATOM     28  H5  UNL     1     -16.815  96.082  87.832  1.00  0.00     0.163 HD
HETATM   29  C20 UNL     1     -13.551  96.143  88.573  1.00  0.00     0.146 C 
HETATM   30  N6  UNL     1     -13.816  94.856  87.976  1.00  0.00    -0.344 N 
HETATM   31  C21 UNL     1     -12.954  93.702  88.122  1.00  0.00     0.154 C 
ENDBRANCH  24  25
ENDBRANCH  21  22
ENDBRANCH  19  21
ENDBRANCH   1  19
BRANCH   1  32
HETATM   32  C22 UNL     1     -17.725  92.539  81.080  1.00  0.00     0.002 C 
HETATM   33  N7  UNL     1     -17.397  91.284  81.213  1.00  0.00    -0.404 N 
ATOM     34  H72 UNL     1     -16.726  91.082  81.953  1.00  0.00     0.155 HD
ATOM     35  H71 UNL     1     -17.827  90.609  80.581  1.00  0.00     0.155 HD
BRANCH  32  36
HETATM   36  C23 UNL     1     -18.688  92.829  80.015  1.00  0.00     0.056 C 
BRANCH  36  37
HETATM   37  C24 UNL     1     -20.098  92.376  80.365  1.00  0.00     0.027 C 
BRANCH  37  38
HETATM   38  C25 UNL     1     -20.289  92.683  81.840  1.00  0.00     0.141 C 
BRANCH  38  39
HETATM   39  N8  UNL     1     -20.789  91.573  82.588  1.00  0.00    -0.323 N 
ATOM     40  H8  UNL     1     -20.698  91.560  83.604  1.00  0.00     0.181 HD
BRANCH  39  41
HETATM   41  N9  UNL     1     -21.395  90.519  81.937  1.00  0.00    -0.254 N 
HETATM   42  N10 UNL     1     -22.537  90.124  82.352  1.00  0.00    -0.331 N 
ATOM     43 2H10 UNL     1     -22.977  90.589  83.146  1.00  0.00     0.178 HD
ATOM     44 1H10 UNL     1     -22.985  89.345  81.870  1.00  0.00     0.178 HD
ATOM     45  H9  UNL     1     -20.942  90.065  81.143  1.00  0.00     0.207 HD
ENDBRANCH  39  41
ENDBRANCH  38  39
ENDBRANCH  37  38
ENDBRANCH  36  37
ENDBRANCH  32  36
ENDBRANCH   1  32
TORSDOF 16
ENDMDL
MODEL 5
REMARK VINA RESULT: -8.811510716      0.926      1.497
REMARK  16 active torsions:
REMARK  status: ('A' for Active; 'I' for Inactive)
REMARK    1  A    between atoms: C2_2  and  C3_3 
REMARK    2  A    between atoms: N2_6  and  C4_7 
REMARK    3  A    between atoms: C4_7  and  C5_8 
REMARK    4  A    between atoms: C12_15  and  C13_16 
REMARK    5  A    between atoms: C13_16  and  C14_17 
REMARK    6  A    between atoms: C14_17  and  C15_18 
REMARK    7  A    between atoms: C15_18  and  N3_19 
REMARK    8  A    between atoms: C15_18  and  C22_32 
REMARK    9  A    between atoms: N3_19  and  C16_21 
REMARK   10  A    between atoms: C16_21  and  C17_22 
REMARK       I    between atoms: C17_22  and  N4_24 
REMARK   11  A    between atoms: N4_24  and  C18_25 
REMARK   12  A    between atoms: C22_32  and  C23_36 
REMARK   13  A    between atoms: C23_36  and  C24_37 
REMARK   14  A    between atoms: C24_37  and  C25_38 
REMARK   15  A    between atoms: C25_38  and  N8_39 
REMARK   16  A    between atoms: N8_39  and  N9_41 
ROOT
HETATM    1  C15 UNL     1     -17.264  93.510  81.975  1.00  0.00     0.122 C 
ENDROOT
BRANCH   1   2
HETATM    2  C14 UNL     1     -16.043  94.216  81.422  1.00  0.00     0.035 C 
BRANCH   2   3
HETATM    3  C13 UNL     1     -16.360  95.541  80.836  1.00  0.00     0.044 C 
BRANCH   3   4
HETATM    4  C12 UNL     1     -15.577  95.979  79.680  1.00  0.00    -0.017 A 
HETATM    5  C3  UNL     1     -15.963  96.624  78.541  1.00  0.00     0.033 A 
HETATM    6  N1  UNL     1     -14.865  96.826  77.742  1.00  0.00    -0.302 N 
HETATM    7  N2  UNL     1     -13.824  96.322  78.368  1.00  0.00    -0.298 N 
ATOM      8  H1  UNL     1     -14.858  97.284  76.829  1.00  0.00     0.186 HD
HETATM    9  C11 UNL     1     -14.182  95.798  79.537  1.00  0.00     0.119 A 
BRANCH   5  10
HETATM   10  C2  UNL     1     -17.295  97.075  78.130  1.00  0.00     0.055 C 
HETATM   11  C1  UNL     1     -18.009  96.030  77.339  1.00  0.00     0.011 C 
ENDBRANCH   5  10
BRANCH   7  12
HETATM   12  C4  UNL     1     -12.458  96.321  77.877  1.00  0.00     0.186 C 
BRANCH  12  13
HETATM   13  C5  UNL     1     -11.521  97.046  78.780  1.00  0.00    -0.038 A 
HETATM   14  C6  UNL     1     -10.504  96.364  79.416  1.00  0.00     0.009 A 
HETATM   15  C7  UNL     1      -9.591  96.957  80.265  1.00  0.00     0.001 A 
HETATM   16  C8  UNL     1      -9.721  98.314  80.478  1.00  0.00     0.000 A 
HETATM   17  C9  UNL     1     -10.738  99.011  79.844  1.00  0.00     0.001 A 
HETATM   18  C10 UNL     1     -11.635  98.396  79.003  1.00  0.00     0.009 A 
ENDBRANCH  12  13
ENDBRANCH   7  12
ENDBRANCH   3   4
ENDBRANCH   2   3
ENDBRANCH   1   2
BRANCH   1  19
HETATM   19  N3  UNL     1     -17.276  93.165  83.318  1.00  0.00    -0.403 N 
ATOM     20  H3  UNL     1     -17.392  92.183  83.569  1.00  0.00     0.154 HD
BRANCH  19  21
HETATM   21  C16 UNL     1     -17.134  94.107  84.345  1.00  0.00     0.234 C 
BRANCH  21  22
HETATM   22  C17 UNL     1     -15.998  93.616  85.250  1.00  0.00     0.311 C 
HETATM   23  O1  UNL     1     -15.523  92.460  84.942  1.00  0.00    -0.255 OA
HETATM   24  N4  UNL     1     -15.529  94.293  86.262  1.00  0.00    -0.334 NA
BRANCH  24  25
HETATM   25  C18 UNL     1     -15.155  94.921  87.193  1.00  0.00     0.256 C 
HETATM   26  N5  UNL     1     -15.819  95.995  87.892  1.00  0.00    -0.349 N 
HETATM   27  C19 UNL     1     -14.851  96.791  88.598  1.00  0.00     0.143 C 
ATOM     28  H5  UNL     1     -16.825  96.164  87.886  1.00  0.00     0.163 HD
HETATM   29  C20 UNL     1     -13.542  96.030  88.521  1.00  0.00     0.146 C 
HETATM   30  N6  UNL     1     -13.895  94.775  87.902  1.00  0.00    -0.344 N 
HETATM   31  C21 UNL     1     -13.094  93.572  87.992  1.00  0.00     0.154 C 
ENDBRANCH  24  25
ENDBRANCH  21  22
ENDBRANCH  19  21
ENDBRANCH   1  19
BRANCH   1  32
HETATM   32  C22 UNL     1     -17.600  92.393  81.066  1.00  0.00     0.002 C 
HETATM   33  N7  UNL     1     -17.217  91.194  81.406  1.00  0.00    -0.404 N 
ATOM     34  H72 UNL     1     -16.710  91.129  82.288  1.00  0.00     0.155 HD
ATOM     35  H71 UNL     1     -17.449  90.423  80.779  1.00  0.00     0.155 HD
BRANCH  32  36
HETATM   36  C23 UNL     1     -18.328  92.486  79.798  1.00  0.00     0.056 C 
BRANCH  36  37
HETATM   37  C24 UNL     1     -19.692  93.142  79.955  1.00  0.00     0.027 C 
BRANCH  37  38
HETATM   38  C25 UNL     1     -20.713  92.114  79.500  1.00  0.00     0.141 C 
BRANCH  38  39
HETATM   39  N8  UNL     1     -21.515  91.605  80.567  1.00  0.00    -0.323 N 
ATOM     40  H8  UNL     1     -22.520  91.782  80.579  1.00  0.00     0.181 HD
BRANCH  39  41
HETATM   41  N9  UNL     1     -20.932  90.873  81.581  1.00  0.00    -0.254 N 
HETATM   42  N10 UNL     1     -20.908  91.375  82.755  1.00  0.00    -0.331 N 
ATOM     43 2H10 UNL     1     -21.315  92.296  82.923  1.00  0.00     0.178 HD
ATOM     44 1H10 UNL     1     -20.477  90.834  83.505  1.00  0.00     0.178 HD
ATOM     45  H9  UNL     1     -20.531  89.954  81.398  1.00  0.00     0.207 HD
ENDBRANCH  39  41
ENDBRANCH  38  39
ENDBRANCH  37  38
ENDBRANCH  36  37
ENDBRANCH  32  36
ENDBRANCH   1  32
TORSDOF 16
ENDMDL
