MODEL 1
REMARK VINA RESULT: -7.372130970      0.000      0.000
REMARK  6 active torsions:
REMARK  status: ('A' for Active; 'I' for Inactive)
REMARK    1  A    between atoms: C2_2  and  C3_3 
REMARK    2  A    between atoms: C3_3  and  C4_4 
REMARK       I    between atoms: C4_4  and  N1_6 
REMARK    3  A    between atoms: N1_6  and  C5_8 
REMARK    4  A    between atoms: C5_8  and  C6_9 
REMARK    5  A    between atoms: C6_9  and  C7_10 
REMARK    6  A    between atoms: C15_20  and  C16_21 
ROOT
HETATM    1  C7  UNL     1      23.836  16.607  32.705  1.00  0.00    -0.014 C 
HETATM    2  C8  UNL     1      23.162  17.170  31.434  1.00  0.00     0.020 C 
HETATM    3  C9  UNL     1      24.267  18.214  31.485  1.00  0.00     0.034 C 
HETATM    4  C10 UNL     1      24.092  18.024  32.995  1.00  0.00     0.025 C 
HETATM    5  C11 UNL     1      25.182  18.550  33.755  1.00  0.00    -0.024 C 
HETATM    6  C12 UNL     1      26.023  19.563  33.610  1.00  0.00    -0.025 C 
HETATM    7  C13 UNL     1      26.296  20.662  32.635  1.00  0.00     0.071 C 
HETATM    8  C14 UNL     1      26.338  20.077  31.223  1.00  0.00     0.060 C 
HETATM    9  N2  UNL     1      26.638  18.707  31.353  1.00  0.00    -0.383 N 
ATOM     10  H2  UNL     1      27.542  18.384  31.696  1.00  0.00     0.160 HD
HETATM   11  C15 UNL     1      25.591  17.784  30.973  1.00  0.00     0.127 C 
HETATM   12  C17 UNL     1      26.016  16.438  31.479  1.00  0.00     0.044 C 
HETATM   13  C18 UNL     1      26.485  15.488  30.417  1.00  0.00     0.009 C 
HETATM   14  C19 UNL     1      25.498  14.376  30.337  1.00  0.00     0.008 C 
HETATM   15  C20 UNL     1      24.487  14.551  31.447  1.00  0.00     0.022 C 
HETATM   16  C21 UNL     1      24.427  13.339  32.331  1.00  0.00     0.128 C 
HETATM   17  N3  UNL     1      24.991  13.728  33.582  1.00  0.00    -0.360 N 
ATOM     18  H3  UNL     1      24.989  13.166  34.433  1.00  0.00     0.162 HD
HETATM   19  C22 UNL     1      25.554  15.026  33.451  1.00  0.00     0.228 C 
HETATM   20  O4  UNL     1      26.422  15.451  34.227  1.00  0.00    -0.273 OA
HETATM   21  C23 UNL     1      24.951  15.729  32.292  1.00  0.00     0.061 C 
ENDROOT
BRANCH   1  22
HETATM   22  C6  UNL     1      22.878  15.890  33.621  1.00  0.00     0.031 C 
BRANCH  22  23
HETATM   23  C5  UNL     1      21.509  15.675  33.054  1.00  0.00     0.123 C 
BRANCH  23  24
HETATM   24  N1  UNL     1      20.565  16.633  33.586  1.00  0.00    -0.361 N 
HETATM   25  C4  UNL     1      19.443  16.993  32.827  1.00  0.00     0.217 C 
HETATM   26  O1  UNL     1      19.256  16.494  31.701  1.00  0.00    -0.274 OA
ATOM     27  H1  UNL     1      20.715  17.044  34.508  1.00  0.00     0.162 HD
BRANCH  25  28
HETATM   28  C3  UNL     1      18.475  17.970  33.363  1.00  0.00     0.102 C 
BRANCH  28  29
HETATM   29  C2  UNL     1      19.190  19.126  33.991  1.00  0.00     0.005 C 
HETATM   30  C1  UNL     1      18.425  20.404  33.859  1.00  0.00     0.005 C 
ENDBRANCH  28  29
ENDBRANCH  25  28
ENDBRANCH  23  24
ENDBRANCH  22  23
ENDBRANCH   1  22
BRANCH  11  31
HETATM   31  C16 UNL     1      25.528  17.860  29.471  1.00  0.00     0.203 C 
HETATM   32  O2  UNL     1      24.475  17.606  28.820  1.00  0.00    -0.646 OA
HETATM   33  O3  UNL     1      26.616  18.214  28.686  1.00  0.00    -0.646 OA
ENDBRANCH  11  31
TORSDOF 6
ENDMDL
MODEL 2
REMARK VINA RESULT: -7.188388174      2.206      3.462
REMARK  6 active torsions:
REMARK  status: ('A' for Active; 'I' for Inactive)
REMARK    1  A    between atoms: C2_2  and  C3_3 
REMARK    2  A    between atoms: C3_3  and  C4_4 
REMARK       I    between atoms: C4_4  and  N1_6 
REMARK    3  A    between atoms: N1_6  and  C5_8 
REMARK    4  A    between atoms: C5_8  and  C6_9 
REMARK    5  A    between atoms: C6_9  and  C7_10 
REMARK    6  A    between atoms: C15_20  and  C16_21 
ROOT
HETATM    1  C7  UNL     1      24.221  17.119  32.938  1.00  0.00    -0.014 C 
HETATM    2  C8  UNL     1      23.719  18.404  33.631  1.00  0.00     0.020 C 
HETATM    3  C9  UNL     1      24.956  18.247  34.501  1.00  0.00     0.034 C 
HETATM    4  C10 UNL     1      24.659  16.759  34.293  1.00  0.00     0.025 C 
HETATM    5  C11 UNL     1      25.761  15.915  34.631  1.00  0.00    -0.024 C 
HETATM    6  C12 UNL     1      26.747  15.970  35.515  1.00  0.00    -0.025 C 
HETATM    7  C13 UNL     1      27.236  16.882  36.591  1.00  0.00     0.071 C 
HETATM    8  C14 UNL     1      27.285  18.312  36.049  1.00  0.00     0.060 C 
HETATM    9  N2  UNL     1      27.377  18.218  34.647  1.00  0.00    -0.383 N 
ATOM     10  H2  UNL     1      28.201  17.835  34.185  1.00  0.00     0.160 HD
HETATM   11  C15 UNL     1      26.235  18.695  33.898  1.00  0.00     0.127 C 
HETATM   12  C17 UNL     1      26.429  18.218  32.490  1.00  0.00     0.044 C 
HETATM   13  C18 UNL     1      26.824  19.286  31.514  1.00  0.00     0.009 C 
HETATM   14  C19 UNL     1      25.695  19.469  30.561  1.00  0.00     0.008 C 
HETATM   15  C20 UNL     1      24.650  18.415  30.848  1.00  0.00     0.022 C 
HETATM   16  C21 UNL     1      24.359  17.585  29.632  1.00  0.00     0.128 C 
HETATM   17  N3  UNL     1      24.891  16.288  29.897  1.00  0.00    -0.360 N 
ATOM     18  H3  UNL     1      24.753  15.461  29.315  1.00  0.00     0.162 HD
HETATM   19  C22 UNL     1      25.642  16.333  31.102  1.00  0.00     0.228 C 
HETATM   20  O4  UNL     1      26.510  15.491  31.372  1.00  0.00    -0.273 OA
HETATM   21  C23 UNL     1      25.222  17.498  31.919  1.00  0.00     0.061 C 
ENDROOT
BRANCH   1  22
HETATM   22  C6  UNL     1      23.112  16.290  32.341  1.00  0.00     0.031 C 
BRANCH  22  23
HETATM   23  C5  UNL     1      22.116  15.767  33.330  1.00  0.00     0.123 C 
BRANCH  23  24
HETATM   24  N1  UNL     1      21.001  16.677  33.480  1.00  0.00    -0.361 N 
HETATM   25  C4  UNL     1      19.862  16.511  32.682  1.00  0.00     0.217 C 
HETATM   26  O1  UNL     1      19.805  15.588  31.847  1.00  0.00    -0.274 OA
ATOM     27  H1  UNL     1      21.045  17.433  34.163  1.00  0.00     0.162 HD
BRANCH  25  28
HETATM   28  C3  UNL     1      18.719  17.434  32.829  1.00  0.00     0.102 C 
BRANCH  28  29
HETATM   29  C2  UNL     1      19.096  18.601  33.687  1.00  0.00     0.005 C 
HETATM   30  C1  UNL     1      18.108  19.718  33.590  1.00  0.00     0.005 C 
ENDBRANCH  28  29
ENDBRANCH  25  28
ENDBRANCH  23  24
ENDBRANCH  22  23
ENDBRANCH   1  22
BRANCH  11  31
HETATM   31  C16 UNL     1      26.280  20.194  34.028  1.00  0.00     0.203 C 
HETATM   32  O2  UNL     1      25.242  20.896  34.193  1.00  0.00    -0.646 OA
HETATM   33  O3  UNL     1      27.462  20.922  33.976  1.00  0.00    -0.646 OA
ENDBRANCH  11  31
TORSDOF 6
ENDMDL
MODEL 3
REMARK VINA RESULT: -7.099829180      2.202      4.765
REMARK  6 active torsions:
REMARK  status: ('A' for Active; 'I' for Inactive)
REMARK    1  A    between atoms: C2_2  and  C3_3 
REMARK    2  A    between atoms: C3_3  and  C4_4 
REMARK       I    between atoms: C4_4  and  N1_6 
REMARK    3  A    between atoms: N1_6  and  C5_8 
REMARK    4  A    between atoms: C5_8  and  C6_9 
REMARK    5  A    between atoms: C6_9  and  C7_10 
REMARK    6  A    between atoms: C15_20  and  C16_21 
ROOT
HETATM    1  C7  UNL     1      24.799  15.419  32.919  1.00  0.00    -0.014 C 
HETATM    2  C8  UNL     1      26.182  15.193  33.568  1.00  0.00     0.020 C 
HETATM    3  C9  UNL     1      25.835  13.717  33.455  1.00  0.00     0.034 C 
HETATM    4  C10 UNL     1      24.420  14.243  33.714  1.00  0.00     0.025 C 
HETATM    5  C11 UNL     1      23.402  13.295  33.391  1.00  0.00    -0.024 C 
HETATM    6  C12 UNL     1      23.310  11.973  33.416  1.00  0.00    -0.025 C 
HETATM    7  C13 UNL     1      24.159  10.798  33.775  1.00  0.00     0.071 C 
HETATM    8  C14 UNL     1      25.532  10.956  33.118  1.00  0.00     0.060 C 
HETATM    9  N2  UNL     1      25.365  11.820  32.018  1.00  0.00    -0.383 N 
ATOM     10  H2  UNL     1      24.818  11.552  31.201  1.00  0.00     0.160 HD
HETATM   11  C15 UNL     1      26.015  13.110  32.113  1.00  0.00     0.127 C 
HETATM   12  C17 UNL     1      25.452  13.943  31.001  1.00  0.00     0.044 C 
HETATM   13  C18 UNL     1      26.389  14.169  29.851  1.00  0.00     0.009 C 
HETATM   14  C19 UNL     1      26.738  15.617  29.829  1.00  0.00     0.008 C 
HETATM   15  C20 UNL     1      25.907  16.326  30.874  1.00  0.00     0.022 C 
HETATM   16  C21 UNL     1      25.095  17.435  30.271  1.00  0.00     0.128 C 
HETATM   17  N3  UNL     1      23.735  17.011  30.326  1.00  0.00    -0.360 N 
ATOM     18  H3  UNL     1      22.924  17.589  30.102  1.00  0.00     0.162 HD
HETATM   19  C22 UNL     1      23.690  15.654  30.746  1.00  0.00     0.228 C 
HETATM   20  O4  UNL     1      22.714  14.925  30.521  1.00  0.00    -0.273 OA
HETATM   21  C23 UNL     1      24.945  15.299  31.454  1.00  0.00     0.061 C 
ENDROOT
BRANCH   1  22
HETATM   22  C6  UNL     1      24.165  16.732  33.305  1.00  0.00     0.031 C 
BRANCH  22  23
HETATM   23  C5  UNL     1      22.925  16.610  34.137  1.00  0.00     0.123 C 
BRANCH  23  24
HETATM   24  N1  UNL     1      21.770  17.121  33.432  1.00  0.00    -0.361 N 
HETATM   25  C4  UNL     1      20.686  16.271  33.173  1.00  0.00     0.217 C 
HETATM   26  O1  UNL     1      20.713  15.083  33.546  1.00  0.00    -0.274 OA
ATOM     27  H1  UNL     1      21.745  18.093  33.126  1.00  0.00     0.162 HD
BRANCH  25  28
HETATM   28  C3  UNL     1      19.503  16.785  32.455  1.00  0.00     0.102 C 
BRANCH  28  29
HETATM   29  C2  UNL     1      18.510  17.352  33.420  1.00  0.00     0.005 C 
HETATM   30  C1  UNL     1      18.393  18.838  33.304  1.00  0.00     0.005 C 
ENDBRANCH  28  29
ENDBRANCH  25  28
ENDBRANCH  23  24
ENDBRANCH  22  23
ENDBRANCH   1  22
BRANCH  11  31
HETATM   31  C16 UNL     1      27.483  12.821  31.955  1.00  0.00     0.203 C 
HETATM   32  O2  UNL     1      28.376  13.478  32.562  1.00  0.00    -0.646 OA
HETATM   33  O3  UNL     1      27.971  11.815  31.132  1.00  0.00    -0.646 OA
ENDBRANCH  11  31
TORSDOF 6
ENDMDL
MODEL 4
REMARK VINA RESULT: -7.054444606      1.884      4.356
REMARK  6 active torsions:
REMARK  status: ('A' for Active; 'I' for Inactive)
REMARK    1  A    between atoms: C2_2  and  C3_3 
REMARK    2  A    between atoms: C3_3  and  C4_4 
REMARK       I    between atoms: C4_4  and  N1_6 
REMARK    3  A    between atoms: N1_6  and  C5_8 
REMARK    4  A    between atoms: C5_8  and  C6_9 
REMARK    5  A    between atoms: C6_9  and  C7_10 
REMARK    6  A    between atoms: C15_20  and  C16_21 
ROOT
HETATM    1  C7  UNL     1      25.042  16.876  33.178  1.00  0.00    -0.014 C 
HETATM    2  C8  UNL     1      26.412  16.431  33.736  1.00  0.00     0.020 C 
HETATM    3  C9  UNL     1      25.920  15.025  33.431  1.00  0.00     0.034 C 
HETATM    4  C10 UNL     1      24.569  15.639  33.814  1.00  0.00     0.025 C 
HETATM    5  C11 UNL     1      23.456  14.845  33.400  1.00  0.00    -0.024 C 
HETATM    6  C12 UNL     1      23.236  13.547  33.245  1.00  0.00    -0.025 C 
HETATM    7  C13 UNL     1      23.975  12.260  33.403  1.00  0.00     0.071 C 
HETATM    8  C14 UNL     1      25.340  12.381  32.725  1.00  0.00     0.060 C 
HETATM    9  N2  UNL     1      25.233  13.404  31.763  1.00  0.00    -0.383 N 
ATOM     10  H2  UNL     1      24.643  13.307  30.937  1.00  0.00     0.160 HD
HETATM   11  C15 UNL     1      26.007  14.601  32.012  1.00  0.00     0.127 C 
HETATM   12  C17 UNL     1      25.502  15.633  31.049  1.00  0.00     0.044 C 
HETATM   13  C18 UNL     1      26.428  15.932  29.908  1.00  0.00     0.009 C 
HETATM   14  C19 UNL     1      26.916  17.329  30.074  1.00  0.00     0.008 C 
HETATM   15  C20 UNL     1      26.184  17.957  31.239  1.00  0.00     0.022 C 
HETATM   16  C21 UNL     1      25.471  19.211  30.827  1.00  0.00     0.128 C 
HETATM   17  N3  UNL     1      24.077  18.912  30.874  1.00  0.00    -0.360 N 
ATOM     18  H3  UNL     1      23.321  19.589  30.763  1.00  0.00     0.162 HD
HETATM   19  C22 UNL     1      23.910  17.520  31.101  1.00  0.00     0.228 C 
HETATM   20  O4  UNL     1      22.862  16.924  30.814  1.00  0.00    -0.273 OA
HETATM   21  C23 UNL     1      25.141  16.952  31.705  1.00  0.00     0.061 C 
ENDROOT
BRANCH   1  22
HETATM   22  C6  UNL     1      24.549  18.173  33.766  1.00  0.00     0.031 C 
BRANCH  22  23
HETATM   23  C5  UNL     1      23.501  18.023  34.825  1.00  0.00     0.123 C 
BRANCH  23  24
HETATM   24  N1  UNL     1      22.334  18.823  34.524  1.00  0.00    -0.361 N 
HETATM   25  C4  UNL     1      21.118  18.189  34.234  1.00  0.00     0.217 C 
HETATM   26  O1  UNL     1      21.038  16.946  34.235  1.00  0.00    -0.274 OA
ATOM     27  H1  UNL     1      22.396  19.841  34.522  1.00  0.00     0.162 HD
BRANCH  25  28
HETATM   28  C3  UNL     1      19.922  18.998  33.925  1.00  0.00     0.102 C 
BRANCH  28  29
HETATM   29  C2  UNL     1      18.773  18.114  33.555  1.00  0.00     0.005 C 
HETATM   30  C1  UNL     1      17.697  18.857  32.830  1.00  0.00     0.005 C 
ENDBRANCH  28  29
ENDBRANCH  25  28
ENDBRANCH  23  24
ENDBRANCH  22  23
ENDBRANCH   1  22
BRANCH  11  31
HETATM   31  C16 UNL     1      27.436  14.202  31.760  1.00  0.00     0.203 C 
HETATM   32  O2  UNL     1      28.403  14.683  32.415  1.00  0.00    -0.646 OA
HETATM   33  O3  UNL     1      27.803  13.278  30.791  1.00  0.00    -0.646 OA
ENDBRANCH  11  31
TORSDOF 6
ENDMDL
MODEL 5
REMARK VINA RESULT: -7.021077768      1.748      4.203
REMARK  6 active torsions:
REMARK  status: ('A' for Active; 'I' for Inactive)
REMARK    1  A    between atoms: C2_2  and  C3_3 
REMARK    2  A    between atoms: C3_3  and  C4_4 
REMARK       I    between atoms: C4_4  and  N1_6 
REMARK    3  A    between atoms: N1_6  and  C5_8 
REMARK    4  A    between atoms: C5_8  and  C6_9 
REMARK    5  A    between atoms: C6_9  and  C7_10 
REMARK    6  A    between atoms: C15_20  and  C16_21 
ROOT
HETATM    1  C7  UNL     1      24.251  16.785  32.220  1.00  0.00    -0.014 C 
HETATM    2  C8  UNL     1      24.122  17.311  33.667  1.00  0.00     0.020 C 
HETATM    3  C9  UNL     1      25.175  16.263  33.990  1.00  0.00     0.034 C 
HETATM    4  C10 UNL     1      24.446  15.490  32.886  1.00  0.00     0.025 C 
HETATM    5  C11 UNL     1      25.199  14.384  32.385  1.00  0.00    -0.024 C 
HETATM    6  C12 UNL     1      26.079  13.539  32.902  1.00  0.00    -0.025 C 
HETATM    7  C13 UNL     1      26.742  13.275  34.214  1.00  0.00     0.071 C 
HETATM    8  C14 UNL     1      27.278  14.593  34.776  1.00  0.00     0.060 C 
HETATM    9  N2  UNL     1      27.446  15.468  33.686  1.00  0.00    -0.383 N 
ATOM     10  H2  UNL     1      28.144  15.298  32.962  1.00  0.00     0.160 HD
HETATM   11  C15 UNL     1      26.574  16.621  33.650  1.00  0.00     0.127 C 
HETATM   12  C17 UNL     1      26.721  17.215  32.281  1.00  0.00     0.044 C 
HETATM   13  C18 UNL     1      27.506  18.491  32.231  1.00  0.00     0.009 C 
HETATM   14  C19 UNL     1      26.570  19.584  31.847  1.00  0.00     0.008 C 
HETATM   15  C20 UNL     1      25.228  18.971  31.514  1.00  0.00     0.022 C 
HETATM   16  C21 UNL     1      24.791  19.331  30.124  1.00  0.00     0.128 C 
HETATM   17  N3  UNL     1      24.868  18.131  29.357  1.00  0.00    -0.360 N 
ATOM     18  H3  UNL     1      24.527  18.014  28.403  1.00  0.00     0.162 HD
HETATM   19  C22 UNL     1      25.498  17.124  30.137  1.00  0.00     0.228 C 
HETATM   20  O4  UNL     1      26.035  16.131  29.626  1.00  0.00    -0.273 OA
HETATM   21  C23 UNL     1      25.399  17.460  31.579  1.00  0.00     0.061 C 
ENDROOT
BRANCH   1  22
HETATM   22  C6  UNL     1      22.991  16.949  31.410  1.00  0.00     0.031 C 
BRANCH  22  23
HETATM   23  C5  UNL     1      21.839  16.107  31.865  1.00  0.00     0.123 C 
BRANCH  23  24
HETATM   24  N1  UNL     1      20.763  16.926  32.379  1.00  0.00    -0.361 N 
HETATM   25  C4  UNL     1      19.676  16.315  33.019  1.00  0.00     0.217 C 
HETATM   26  O1  UNL     1      19.633  15.077  33.148  1.00  0.00    -0.274 OA
ATOM     27  H1  UNL     1      20.795  17.940  32.276  1.00  0.00     0.162 HD
BRANCH  25  28
HETATM   28  C3  UNL     1      18.573  17.144  33.547  1.00  0.00     0.102 C 
BRANCH  28  29
HETATM   29  C2  UNL     1      19.061  18.521  33.870  1.00  0.00     0.005 C 
HETATM   30  C1  UNL     1      18.057  19.573  33.525  1.00  0.00     0.005 C 
ENDBRANCH  28  29
ENDBRANCH  25  28
ENDBRANCH  23  24
ENDBRANCH  22  23
ENDBRANCH   1  22
BRANCH  11  31
HETATM   31  C16 UNL     1      27.074  17.524  34.745  1.00  0.00     0.203 C 
HETATM   32  O2  UNL     1      26.307  18.268  35.419  1.00  0.00    -0.646 OA
HETATM   33  O3  UNL     1      28.414  17.612  35.099  1.00  0.00    -0.646 OA
ENDBRANCH  11  31
TORSDOF 6
ENDMDL
