MODEL 1
REMARK VINA RESULT: -6.384157214      0.000      0.000
REMARK  5 active torsions:
REMARK  status: ('A' for Active; 'I' for Inactive)
REMARK    1  A    between atoms: C3_3  and  N1_4 
REMARK    2  A    between atoms: N1_4  and  C4_6 
REMARK    3  A    between atoms: C4_6  and  N2_8 
REMARK    4  A    between atoms: N2_8  and  C5_10 
REMARK    5  A    between atoms: C5_10  and  C6_11 
ROOT
HETATM    1  C1  UNL     1      24.287  17.849  33.599  1.00  0.00     0.015 C 
HETATM    2  C2  UNL     1      24.341  17.703  32.403  1.00  0.00    -0.086 C 
HETATM    3  C3  UNL     1      24.390  17.505  30.944  1.00  0.00     0.095 C 
HETATM    4  C10 UNL     1      24.210  18.801  30.241  1.00  0.00     0.044 C 
HETATM    5  C11 UNL     1      25.534  19.503  30.419  1.00  0.00     0.004 C 
HETATM    6  C12 UNL     1      26.517  18.481  30.896  1.00  0.00     0.004 C 
HETATM    7  C13 UNL     1      25.841  17.153  30.634  1.00  0.00     0.044 C 
ENDROOT
BRANCH   3   8
HETATM    8  N1  UNL     1      23.494  16.461  30.532  1.00  0.00    -0.347 N 
ATOM      9  H1  UNL     1      23.158  16.479  29.569  1.00  0.00     0.163 HD
BRANCH   8  10
HETATM   10  C4  UNL     1      23.047  15.416  31.359  1.00  0.00     0.169 C 
HETATM   11  S1  UNL     1      24.122  14.307  31.854  1.00  0.00    -0.041 SA
BRANCH  10  12
HETATM   12  N2  UNL     1      21.703  15.316  31.773  1.00  0.00    -0.364 N 
ATOM     13  H2  UNL     1      21.080  14.783  31.165  1.00  0.00     0.162 HD
BRANCH  12  14
HETATM   14  C5  UNL     1      21.116  15.877  32.945  1.00  0.00     0.159 C 
BRANCH  14  15
HETATM   15  C6  UNL     1      20.191  17.032  32.637  1.00  0.00     0.177 C 
HETATM   16  C7  UNL     1      18.904  16.804  33.350  1.00  0.00     0.089 C 
HETATM   17  N3  UNL     1      18.357  17.878  34.078  1.00  0.00    -0.398 N 
HETATM   18  C8  UNL     1      19.192  18.962  34.429  1.00  0.00     0.145 C 
ATOM     19  H3  UNL     1      17.373  17.874  34.347  1.00  0.00     0.158 HD
HETATM   20  C9  UNL     1      20.635  18.545  34.329  1.00  0.00     0.188 C 
HETATM   21  O1  UNL     1      20.861  18.181  33.019  1.00  0.00    -0.377 OA
ENDBRANCH  14  15
ENDBRANCH  12  14
ENDBRANCH  10  12
ENDBRANCH   8  10
ENDBRANCH   3   8
TORSDOF 5
ENDMDL
MODEL 2
REMARK VINA RESULT: -6.361471536      1.405      2.169
REMARK  5 active torsions:
REMARK  status: ('A' for Active; 'I' for Inactive)
REMARK    1  A    between atoms: C3_3  and  N1_4 
REMARK    2  A    between atoms: N1_4  and  C4_6 
REMARK    3  A    between atoms: C4_6  and  N2_8 
REMARK    4  A    between atoms: N2_8  and  C5_10 
REMARK    5  A    between atoms: C5_10  and  C6_11 
ROOT
HETATM    1  C1  UNL     1      26.544  16.189  30.258  1.00  0.00     0.015 C 
HETATM    2  C2  UNL     1      25.607  16.837  30.655  1.00  0.00    -0.086 C 
HETATM    3  C3  UNL     1      24.447  17.610  31.133  1.00  0.00     0.095 C 
HETATM    4  C10 UNL     1      24.725  18.178  32.476  1.00  0.00     0.044 C 
HETATM    5  C11 UNL     1      25.664  19.328  32.202  1.00  0.00     0.004 C 
HETATM    6  C12 UNL     1      25.620  19.595  30.730  1.00  0.00     0.004 C 
HETATM    7  C13 UNL     1      24.395  18.849  30.246  1.00  0.00     0.044 C 
ENDROOT
BRANCH   3   8
HETATM    8  N1  UNL     1      23.238  16.841  31.037  1.00  0.00    -0.347 N 
ATOM      9  H1  UNL     1      22.920  16.574  30.105  1.00  0.00     0.163 HD
BRANCH   8  10
HETATM   10  C4  UNL     1      22.460  16.429  32.132  1.00  0.00     0.169 C 
HETATM   11  S1  UNL     1      22.885  15.076  32.918  1.00  0.00    -0.041 SA
BRANCH  10  12
HETATM   12  N2  UNL     1      21.338  17.163  32.567  1.00  0.00    -0.364 N 
ATOM     13  H2  UNL     1      21.493  18.152  32.768  1.00  0.00     0.162 HD
BRANCH  12  14
HETATM   14  C5  UNL     1      20.010  16.680  32.759  1.00  0.00     0.159 C 
BRANCH  14  15
HETATM   15  C6  UNL     1      19.316  17.337  33.930  1.00  0.00     0.177 C 
HETATM   16  C7  UNL     1      20.151  18.482  34.387  1.00  0.00     0.089 C 
HETATM   17  N3  UNL     1      19.508  19.714  34.615  1.00  0.00    -0.398 N 
HETATM   18  C8  UNL     1      18.231  19.933  34.052  1.00  0.00     0.145 C 
ATOM     19  H3  UNL     1      19.957  20.437  35.177  1.00  0.00     0.158 HD
HETATM   20  C9  UNL     1      17.991  18.952  32.937  1.00  0.00     0.188 C 
HETATM   21  O1  UNL     1      18.053  17.690  33.488  1.00  0.00    -0.377 OA
ENDBRANCH  14  15
ENDBRANCH  12  14
ENDBRANCH  10  12
ENDBRANCH   8  10
ENDBRANCH   3   8
TORSDOF 5
ENDMDL
MODEL 3
REMARK VINA RESULT: -6.330016939      1.276      1.537
REMARK  5 active torsions:
REMARK  status: ('A' for Active; 'I' for Inactive)
REMARK    1  A    between atoms: C3_3  and  N1_4 
REMARK    2  A    between atoms: N1_4  and  C4_6 
REMARK    3  A    between atoms: C4_6  and  N2_8 
REMARK    4  A    between atoms: N2_8  and  C5_10 
REMARK    5  A    between atoms: C5_10  and  C6_11 
ROOT
HETATM    1  C1  UNL     1      24.889  18.362  33.613  1.00  0.00     0.015 C 
HETATM    2  C2  UNL     1      24.692  18.104  32.452  1.00  0.00    -0.086 C 
HETATM    3  C3  UNL     1      24.431  17.774  31.040  1.00  0.00     0.095 C 
HETATM    4  C10 UNL     1      24.375  19.012  30.222  1.00  0.00     0.044 C 
HETATM    5  C11 UNL     1      25.819  19.433  30.092  1.00  0.00     0.004 C 
HETATM    6  C12 UNL     1      26.659  18.272  30.525  1.00  0.00     0.004 C 
HETATM    7  C13 UNL     1      25.703  17.099  30.542  1.00  0.00     0.044 C 
ENDROOT
BRANCH   3   8
HETATM    8  N1  UNL     1      23.290  16.910  30.912  1.00  0.00    -0.347 N 
ATOM      9  H1  UNL     1      23.020  16.620  29.972  1.00  0.00     0.163 HD
BRANCH   8  10
HETATM   10  C4  UNL     1      22.520  16.434  31.987  1.00  0.00     0.169 C 
HETATM   11  S1  UNL     1      22.963  15.046  32.700  1.00  0.00    -0.041 SA
BRANCH  10  12
HETATM   12  N2  UNL     1      21.393  17.133  32.463  1.00  0.00    -0.364 N 
ATOM     13  H2  UNL     1      21.537  18.113  32.707  1.00  0.00     0.162 HD
BRANCH  12  14
HETATM   14  C5  UNL     1      20.073  16.624  32.643  1.00  0.00     0.159 C 
BRANCH  14  15
HETATM   15  C6  UNL     1      19.377  17.224  33.844  1.00  0.00     0.177 C 
HETATM   16  C7  UNL     1      20.185  18.379  34.324  1.00  0.00     0.089 C 
HETATM   17  N3  UNL     1      19.511  19.584  34.599  1.00  0.00    -0.398 N 
HETATM   18  C8  UNL     1      18.220  19.783  34.061  1.00  0.00     0.145 C 
ATOM     19  H3  UNL     1      19.947  20.302  35.177  1.00  0.00     0.158 HD
HETATM   20  C9  UNL     1      17.993  18.829  32.919  1.00  0.00     0.188 C 
HETATM   21  O1  UNL     1      18.098  17.554  33.430  1.00  0.00    -0.377 OA
ENDBRANCH  14  15
ENDBRANCH  12  14
ENDBRANCH  10  12
ENDBRANCH   8  10
ENDBRANCH   3   8
TORSDOF 5
ENDMDL
MODEL 4
REMARK VINA RESULT: -6.316371140      1.472      2.334
REMARK  5 active torsions:
REMARK  status: ('A' for Active; 'I' for Inactive)
REMARK    1  A    between atoms: C3_3  and  N1_4 
REMARK    2  A    between atoms: N1_4  and  C4_6 
REMARK    3  A    between atoms: C4_6  and  N2_8 
REMARK    4  A    between atoms: N2_8  and  C5_10 
REMARK    5  A    between atoms: C5_10  and  C6_11 
ROOT
HETATM    1  C1  UNL     1      23.888  17.873  31.066  1.00  0.00     0.015 C 
HETATM    2  C2  UNL     1      24.104  17.571  32.214  1.00  0.00    -0.086 C 
HETATM    3  C3  UNL     1      24.346  17.188  33.616  1.00  0.00     0.095 C 
HETATM    4  C10 UNL     1      25.751  16.745  33.795  1.00  0.00     0.044 C 
HETATM    5  C11 UNL     1      26.547  18.029  33.771  1.00  0.00     0.004 C 
HETATM    6  C12 UNL     1      25.574  19.155  33.928  1.00  0.00     0.004 C 
HETATM    7  C13 UNL     1      24.300  18.492  34.404  1.00  0.00     0.044 C 
ENDROOT
BRANCH   3   8
HETATM    8  N1  UNL     1      23.353  16.258  34.077  1.00  0.00    -0.347 N 
ATOM      9  H1  UNL     1      23.016  16.362  35.035  1.00  0.00     0.163 HD
BRANCH   8  10
HETATM   10  C4  UNL     1      22.811  15.215  33.307  1.00  0.00     0.169 C 
HETATM   11  S1  UNL     1      23.676  13.855  33.129  1.00  0.00    -0.041 SA
BRANCH  10  12
HETATM   12  N2  UNL     1      21.541  15.317  32.703  1.00  0.00    -0.364 N 
ATOM     13  H2  UNL     1      21.497  15.111  31.704  1.00  0.00     0.162 HD
BRANCH  12  14
HETATM   14  C5  UNL     1      20.311  15.674  33.330  1.00  0.00     0.159 C 
BRANCH  14  15
HETATM   15  C6  UNL     1      19.749  16.975  32.807  1.00  0.00     0.177 C 
HETATM   16  C7  UNL     1      18.423  17.202  33.444  1.00  0.00     0.089 C 
HETATM   17  N3  UNL     1      18.162  18.476  33.985  1.00  0.00    -0.398 N 
HETATM   18  C8  UNL     1      19.248  19.339  34.255  1.00  0.00     0.145 C 
ATOM     19  H3  UNL     1      17.205  18.771  34.178  1.00  0.00     0.158 HD
HETATM   20  C9  UNL     1      20.524  18.545  34.318  1.00  0.00     0.188 C 
HETATM   21  O1  UNL     1      20.692  17.949  33.087  1.00  0.00    -0.377 OA
ENDBRANCH  14  15
ENDBRANCH  12  14
ENDBRANCH  10  12
ENDBRANCH   8  10
ENDBRANCH   3   8
TORSDOF 5
ENDMDL
MODEL 5
REMARK VINA RESULT: -6.302018660      1.168      1.371
REMARK  5 active torsions:
REMARK  status: ('A' for Active; 'I' for Inactive)
REMARK    1  A    between atoms: C3_3  and  N1_4 
REMARK    2  A    between atoms: N1_4  and  C4_6 
REMARK    3  A    between atoms: C4_6  and  N2_8 
REMARK    4  A    between atoms: N2_8  and  C5_10 
REMARK    5  A    between atoms: C5_10  and  C6_11 
ROOT
HETATM    1  C1  UNL     1      25.568  19.262  33.761  1.00  0.00     0.015 C 
HETATM    2  C2  UNL     1      25.018  18.358  33.183  1.00  0.00    -0.086 C 
HETATM    3  C3  UNL     1      24.336  17.244  32.500  1.00  0.00     0.095 C 
HETATM    4  C10 UNL     1      23.585  17.744  31.321  1.00  0.00     0.044 C 
HETATM    5  C11 UNL     1      24.655  18.019  30.293  1.00  0.00     0.004 C 
HETATM    6  C12 UNL     1      25.910  17.359  30.771  1.00  0.00     0.004 C 
HETATM    7  C13 UNL     1      25.450  16.419  31.865  1.00  0.00     0.044 C 
ENDROOT
BRANCH   3   8
HETATM    8  N1  UNL     1      23.564  16.464  33.426  1.00  0.00    -0.347 N 
ATOM      9  H1  UNL     1      23.523  16.783  34.394  1.00  0.00     0.163 HD
BRANCH   8  10
HETATM   10  C4  UNL     1      22.861  15.292  33.097  1.00  0.00     0.169 C 
HETATM   11  S1  UNL     1      23.598  13.863  33.309  1.00  0.00    -0.041 SA
BRANCH  10  12
HETATM   12  N2  UNL     1      21.541  15.328  32.604  1.00  0.00    -0.364 N 
ATOM     13  H2  UNL     1      21.415  15.059  31.628  1.00  0.00     0.162 HD
BRANCH  12  14
HETATM   14  C5  UNL     1      20.363  15.700  33.316  1.00  0.00     0.159 C 
BRANCH  14  15
HETATM   15  C6  UNL     1      19.764  16.994  32.814  1.00  0.00     0.177 C 
HETATM   16  C7  UNL     1      18.438  17.180  33.465  1.00  0.00     0.089 C 
HETATM   17  N3  UNL     1      18.152  18.441  34.024  1.00  0.00    -0.398 N 
HETATM   18  C8  UNL     1      19.218  19.326  34.296  1.00  0.00     0.145 C 
ATOM     19  H3  UNL     1      17.190  18.710  34.229  1.00  0.00     0.158 HD
HETATM   20  C9  UNL     1      20.514  18.563  34.339  1.00  0.00     0.188 C 
HETATM   21  O1  UNL     1      20.686  17.987  33.098  1.00  0.00    -0.377 OA
ENDBRANCH  14  15
ENDBRANCH  12  14
ENDBRANCH  10  12
ENDBRANCH   8  10
ENDBRANCH   3   8
TORSDOF 5
ENDMDL
