MODEL 1
REMARK VINA RESULT: -8.964975515      0.000      0.000
REMARK  3 active torsions:
REMARK  status: ('A' for Active; 'I' for Inactive)
REMARK    1  A    between atoms: C5_8  and  S2_9 
REMARK    2  A    between atoms: S2_9  and  C6_10 
REMARK    3  A    between atoms: C6_10  and  C7_11 
ROOT
HETATM    1  S2  UNL     1      31.722  12.976  -7.991  1.00  0.00    -0.111 SA
ENDROOT
BRANCH   1   2
HETATM    2  C5  UNL     1      31.497  14.673  -8.424  1.00  0.00     0.087 A 
HETATM    3  C1  UNL     1      30.359  15.041  -9.120  1.00  0.00     0.045 A 
HETATM    4  S1  UNL     1      29.024  13.867  -9.471  1.00  0.00    -0.050 SA
HETATM    5  C2  UNL     1      30.237  16.354  -9.503  1.00  0.00     0.023 A 
HETATM    6  C3  UNL     1      31.224  17.270  -9.193  1.00  0.00     0.018 A 
HETATM    7  C4  UNL     1      32.344  16.859  -8.491  1.00  0.00     0.089 A 
HETATM    8  N1  UNL     1      32.470  15.595  -8.121  1.00  0.00    -0.359 N 
ATOM      9  H1  UNL     1      33.301  15.302  -7.606  1.00  0.00     0.166 HD
ENDBRANCH   1   2
BRANCH   1  10
HETATM   10  C6  UNL     1      33.068  12.602  -6.897  1.00  0.00     0.085 C 
BRANCH  10  11
HETATM   11  C7  UNL     1      32.799  12.391  -5.449  1.00  0.00    -0.005 C 
HETATM   12  C8  UNL     1      32.371  11.013  -5.157  1.00  0.00     0.005 C 
HETATM   13  C9  UNL     1      33.133  10.368  -4.003  1.00  0.00     0.000 C 
HETATM   14  C10 UNL     1      34.504   9.963  -4.495  1.00  0.00     0.000 C 
HETATM   15  C11 UNL     1      35.471  11.006  -3.971  1.00  0.00     0.000 C 
HETATM   16  C12 UNL     1      35.245  12.243  -4.852  1.00  0.00     0.000 C 
HETATM   17  C13 UNL     1      33.934  12.895  -4.578  1.00  0.00     0.005 C 
ENDBRANCH  10  11
ENDBRANCH   1  10
TORSDOF 3
ENDMDL
MODEL 2
REMARK VINA RESULT: -8.178836285      1.609      2.153
REMARK  3 active torsions:
REMARK  status: ('A' for Active; 'I' for Inactive)
REMARK    1  A    between atoms: C5_8  and  S2_9 
REMARK    2  A    between atoms: S2_9  and  C6_10 
REMARK    3  A    between atoms: C6_10  and  C7_11 
ROOT
HETATM    1  S2  UNL     1      32.397  13.826  -7.567  1.00  0.00    -0.111 SA
ENDROOT
BRANCH   1   2
HETATM    2  C5  UNL     1      31.041  14.059  -8.673  1.00  0.00     0.087 A 
HETATM    3  C1  UNL     1      30.795  15.325  -9.174  1.00  0.00     0.045 A 
HETATM    4  S1  UNL     1      31.906  16.720  -8.851  1.00  0.00    -0.050 SA
HETATM    5  C2  UNL     1      29.696  15.495  -9.981  1.00  0.00     0.023 A 
HETATM    6  C3  UNL     1      28.872  14.426 -10.278  1.00  0.00     0.018 A 
HETATM    7  C4  UNL     1      29.158  13.176  -9.758  1.00  0.00     0.089 A 
HETATM    8  N1  UNL     1      30.213  13.004  -8.979  1.00  0.00    -0.359 N 
ATOM      9  H1  UNL     1      30.414  12.079  -8.599  1.00  0.00     0.166 HD
ENDBRANCH   1   2
BRANCH   1  10
HETATM   10  C6  UNL     1      32.506  12.251  -6.757  1.00  0.00     0.085 C 
BRANCH  10  11
HETATM   11  C7  UNL     1      32.491  12.189  -5.270  1.00  0.00    -0.005 C 
HETATM   12  C8  UNL     1      32.231  10.829  -4.771  1.00  0.00     0.005 C 
HETATM   13  C9  UNL     1      33.219  10.370  -3.703  1.00  0.00     0.000 C 
HETATM   14  C10 UNL     1      34.522  10.001  -4.375  1.00  0.00     0.000 C 
HETATM   15  C11 UNL     1      35.471  11.158  -4.130  1.00  0.00     0.000 C 
HETATM   16  C12 UNL     1      35.005  12.269  -5.081  1.00  0.00     0.000 C 
HETATM   17  C13 UNL     1      33.705  12.862  -4.658  1.00  0.00     0.005 C 
ENDBRANCH  10  11
ENDBRANCH   1  10
TORSDOF 3
ENDMDL
MODEL 3
REMARK VINA RESULT: -7.694988555      0.776      1.637
REMARK  3 active torsions:
REMARK  status: ('A' for Active; 'I' for Inactive)
REMARK    1  A    between atoms: C5_8  and  S2_9 
REMARK    2  A    between atoms: S2_9  and  C6_10 
REMARK    3  A    between atoms: C6_10  and  C7_11 
ROOT
HETATM    1  S2  UNL     1      31.734  13.011  -8.019  1.00  0.00    -0.111 SA
ENDROOT
BRANCH   1   2
HETATM    2  C5  UNL     1      31.496  14.708  -8.445  1.00  0.00     0.087 A 
HETATM    3  C1  UNL     1      30.361  15.069  -9.148  1.00  0.00     0.045 A 
HETATM    4  S1  UNL     1      29.038  13.885  -9.514  1.00  0.00    -0.050 SA
HETATM    5  C2  UNL     1      30.230  16.384  -9.525  1.00  0.00     0.023 A 
HETATM    6  C3  UNL     1      31.206  17.307  -9.203  1.00  0.00     0.018 A 
HETATM    7  C4  UNL     1      32.325  16.902  -8.496  1.00  0.00     0.089 A 
HETATM    8  N1  UNL     1      32.460  15.638  -8.131  1.00  0.00    -0.359 N 
ATOM      9  H1  UNL     1      33.289  15.349  -7.611  1.00  0.00     0.166 HD
ENDBRANCH   1   2
BRANCH   1  10
HETATM   10  C6  UNL     1      32.419  12.678  -6.416  1.00  0.00     0.085 C 
BRANCH  10  11
HETATM   11  C7  UNL     1      33.789  12.108  -6.309  1.00  0.00    -0.005 C 
HETATM   12  C8  UNL     1      34.673  12.937  -5.473  1.00  0.00     0.005 C 
HETATM   13  C9  UNL     1      35.429  12.145  -4.410  1.00  0.00     0.000 C 
HETATM   14  C10 UNL     1      34.477  11.816  -3.283  1.00  0.00     0.000 C 
HETATM   15  C11 UNL     1      34.089  10.361  -3.462  1.00  0.00     0.000 C 
HETATM   16  C12 UNL     1      33.100  10.350  -4.636  1.00  0.00     0.000 C 
HETATM   17  C13 UNL     1      33.768  10.638  -5.936  1.00  0.00     0.005 C 
ENDBRANCH  10  11
ENDBRANCH   1  10
TORSDOF 3
ENDMDL
MODEL 4
REMARK VINA RESULT: -7.302773621      2.205      6.913
REMARK  3 active torsions:
REMARK  status: ('A' for Active; 'I' for Inactive)
REMARK    1  A    between atoms: C5_8  and  S2_9 
REMARK    2  A    between atoms: S2_9  and  C6_10 
REMARK    3  A    between atoms: C6_10  and  C7_11 
ROOT
HETATM    1  S2  UNL     1      33.283  13.303  -7.141  1.00  0.00    -0.111 SA
ENDROOT
BRANCH   1   2
HETATM    2  C5  UNL     1      33.008  12.143  -5.838  1.00  0.00     0.087 A 
HETATM    3  C1  UNL     1      34.020  11.910  -4.924  1.00  0.00     0.045 A 
HETATM    4  S1  UNL     1      35.561  12.864  -4.931  1.00  0.00    -0.050 SA
HETATM    5  C2  UNL     1      33.807  10.956  -3.959  1.00  0.00     0.023 A 
HETATM    6  C3  UNL     1      32.614  10.261  -3.911  1.00  0.00     0.018 A 
HETATM    7  C4  UNL     1      31.628  10.528  -4.844  1.00  0.00     0.089 A 
HETATM    8  N1  UNL     1      31.825  11.443  -5.778  1.00  0.00    -0.359 N 
ATOM      9  H1  UNL     1      31.092  11.632  -6.462  1.00  0.00     0.166 HD
ENDBRANCH   1   2
BRANCH   1  10
HETATM   10  C6  UNL     1      32.025  13.417  -8.387  1.00  0.00     0.085 C 
BRANCH  10  11
HETATM   11  C7  UNL     1      30.862  14.321  -8.174  1.00  0.00    -0.005 C 
HETATM   12  C8  UNL     1      30.938  15.533  -9.005  1.00  0.00     0.005 C 
HETATM   13  C9  UNL     1      29.653  15.832  -9.771  1.00  0.00     0.000 C 
HETATM   14  C10 UNL     1      29.561  14.889 -10.948  1.00  0.00     0.000 C 
HETATM   15  C11 UNL     1      28.560  13.817 -10.560  1.00  0.00     0.000 C 
HETATM   16  C12 UNL     1      29.307  12.910  -9.571  1.00  0.00     0.000 C 
HETATM   17  C13 UNL     1      29.541  13.580  -8.261  1.00  0.00     0.005 C 
ENDBRANCH  10  11
ENDBRANCH   1  10
TORSDOF 3
ENDMDL
MODEL 5
REMARK VINA RESULT: -7.231978005      1.837      2.716
REMARK  3 active torsions:
REMARK  status: ('A' for Active; 'I' for Inactive)
REMARK    1  A    between atoms: C5_8  and  S2_9 
REMARK    2  A    between atoms: S2_9  and  C6_10 
REMARK    3  A    between atoms: C6_10  and  C7_11 
ROOT
HETATM    1  S2  UNL     1      32.195  13.803  -7.579  1.00  0.00    -0.111 SA
ENDROOT
BRANCH   1   2
HETATM    2  C5  UNL     1      30.881  14.017  -8.739  1.00  0.00     0.087 A 
HETATM    3  C1  UNL     1      30.660  15.272  -9.277  1.00  0.00     0.045 A 
HETATM    4  S1  UNL     1      31.767  16.669  -8.947  1.00  0.00    -0.050 SA
HETATM    5  C2  UNL     1      29.592  15.428 -10.127  1.00  0.00     0.023 A 
HETATM    6  C3  UNL     1      28.774  14.357 -10.430  1.00  0.00     0.018 A 
HETATM    7  C4  UNL     1      29.034  13.118  -9.870  1.00  0.00     0.089 A 
HETATM    8  N1  UNL     1      30.059  12.959  -9.050  1.00  0.00    -0.359 N 
ATOM      9  H1  UNL     1      30.241  12.042  -8.642  1.00  0.00     0.166 HD
ENDBRANCH   1   2
BRANCH   1  10
HETATM   10  C6  UNL     1      31.919  12.647  -6.262  1.00  0.00     0.085 C 
BRANCH  10  11
HETATM   11  C7  UNL     1      32.590  11.319  -6.300  1.00  0.00    -0.005 C 
HETATM   12  C8  UNL     1      34.057  11.436  -6.282  1.00  0.00     0.005 C 
HETATM   13  C9  UNL     1      34.729  10.540  -5.245  1.00  0.00     0.000 C 
HETATM   14  C10 UNL     1      34.546  11.159  -3.879  1.00  0.00     0.000 C 
HETATM   15  C11 UNL     1      33.442  10.372  -3.198  1.00  0.00     0.000 C 
HETATM   16  C12 UNL     1      32.142  10.845  -3.864  1.00  0.00     0.000 C 
HETATM   17  C13 UNL     1      32.022  10.363  -5.268  1.00  0.00     0.005 C 
ENDBRANCH  10  11
ENDBRANCH   1  10
TORSDOF 3
ENDMDL
