MODEL 1
REMARK VINA RESULT: -7.605597592      0.000      0.000
REMARK  5 active torsions:
REMARK  status: ('A' for Active; 'I' for Inactive)
REMARK    1  A    between atoms: C2_2  and  C3_3 
REMARK    2  A    between atoms: C3_3  and  C4_4 
REMARK    3  A    between atoms: C7_8  and  O2_9 
REMARK    4  A    between atoms: N1_11  and  C8_12 
REMARK    5  A    between atoms: C14_18  and  O3_19 
ROOT
HETATM    1  C4  UNL     1      34.229  12.479  -4.715  1.00  0.00     0.169 A 
HETATM    2  O1  UNL     1      34.724  13.604  -5.371  1.00  0.00    -0.336 OA
HETATM    3  C5  UNL     1      33.651  13.678  -6.236  1.00  0.00     0.133 A 
HETATM    4  C6  UNL     1      33.102  12.572  -5.638  1.00  0.00     0.060 A 
HETATM    5  C7  UNL     1      31.912  12.333  -6.305  1.00  0.00     0.156 A 
HETATM    6  N1  UNL     1      31.724  13.240  -7.271  1.00  0.00    -0.301 N 
HETATM    7  C14 UNL     1      32.790  14.076  -7.240  1.00  0.00     0.179 A 
ENDROOT
BRANCH   6   8
HETATM    8  C8  UNL     1      30.643  13.368  -8.191  1.00  0.00     0.094 C 
HETATM    9  C9  UNL     1      30.884  12.583  -9.456  1.00  0.00     0.026 C 
HETATM   10  C10 UNL     1      29.729  12.620 -10.384  1.00  0.00     0.002 C 
HETATM   11  C11 UNL     1      28.974  13.878 -10.474  1.00  0.00     0.000 C 
HETATM   12  C12 UNL     1      29.099  14.829  -9.330  1.00  0.00     0.002 C 
HETATM   13  C13 UNL     1      30.451  14.813  -8.664  1.00  0.00     0.026 C 
ENDBRANCH   6   8
BRANCH   5  14
HETATM   14  O2  UNL     1      31.039  11.295  -6.009  1.00  0.00    -0.345 OA
ATOM     15  H2  UNL     1      31.301  10.462  -5.633  1.00  0.00     0.219 HD
ENDBRANCH   5  14
BRANCH   7  16
HETATM   16  O3  UNL     1      33.040  15.178  -8.056  1.00  0.00    -0.344 OA
ATOM     17  H3  UNL     1      33.793  15.229  -8.632  1.00  0.00     0.219 HD
ENDBRANCH   7  16
BRANCH   1  18
HETATM   18  C3  UNL     1      35.108  11.279  -4.980  1.00  0.00     0.037 C 
BRANCH  18  19
HETATM   19  C2  UNL     1      34.348  10.049  -4.537  1.00  0.00    -0.002 C 
HETATM   20  C1  UNL     1      33.449  10.346  -3.361  1.00  0.00     0.005 C 
ENDBRANCH  18  19
ENDBRANCH   1  18
TORSDOF 5
ENDMDL
MODEL 2
REMARK VINA RESULT: -6.621017990      1.236      6.129
REMARK  5 active torsions:
REMARK  status: ('A' for Active; 'I' for Inactive)
REMARK    1  A    between atoms: C2_2  and  C3_3 
REMARK    2  A    between atoms: C3_3  and  C4_4 
REMARK    3  A    between atoms: C7_8  and  O2_9 
REMARK    4  A    between atoms: N1_11  and  C8_12 
REMARK    5  A    between atoms: C14_18  and  O3_19 
ROOT
HETATM    1  C4  UNL     1      30.225  14.387  -8.532  1.00  0.00     0.169 A 
HETATM    2  O1  UNL     1      29.472  13.490  -7.778  1.00  0.00    -0.336 OA
HETATM    3  C5  UNL     1      30.578  12.960  -7.145  1.00  0.00     0.133 A 
HETATM    4  C6  UNL     1      31.383  13.815  -7.853  1.00  0.00     0.060 A 
HETATM    5  C7  UNL     1      32.678  13.545  -7.441  1.00  0.00     0.156 A 
HETATM    6  N1  UNL     1      32.684  12.571  -6.524  1.00  0.00    -0.301 N 
HETATM    7  C14 UNL     1      31.395  12.201  -6.331  1.00  0.00     0.179 A 
ENDROOT
BRANCH   6   8
HETATM    8  C8  UNL     1      33.788  11.986  -5.837  1.00  0.00     0.094 C 
HETATM    9  C9  UNL     1      33.404  10.702  -5.146  1.00  0.00     0.026 C 
HETATM   10  C10 UNL     1      34.558  10.023  -4.510  1.00  0.00     0.002 C 
HETATM   11  C11 UNL     1      35.583  10.875  -3.888  1.00  0.00     0.000 C 
HETATM   12  C12 UNL     1      35.652  12.295  -4.339  1.00  0.00     0.002 C 
HETATM   13  C13 UNL     1      34.316  12.885  -4.715  1.00  0.00     0.026 C 
ENDBRANCH   6   8
BRANCH   5  14
HETATM   14  O2  UNL     1      33.807  14.197  -7.917  1.00  0.00    -0.345 OA
ATOM     15  H2  UNL     1      34.664  14.157  -7.509  1.00  0.00     0.219 HD
ENDBRANCH   5  14
BRANCH   7  16
HETATM   16  O3  UNL     1      30.903  11.223  -5.470  1.00  0.00    -0.344 OA
ATOM     17  H3  UNL     1      30.528  10.407  -5.779  1.00  0.00     0.219 HD
ENDBRANCH   7  16
BRANCH   1  18
HETATM   18  C3  UNL     1      30.167  14.029 -10.000  1.00  0.00     0.037 C 
BRANCH  18  19
HETATM   19  C2  UNL     1      28.766  13.544 -10.296  1.00  0.00    -0.002 C 
HETATM   20  C1  UNL     1      28.772  12.143 -10.860  1.00  0.00     0.005 C 
ENDBRANCH  18  19
ENDBRANCH   1  18
TORSDOF 5
ENDMDL
MODEL 3
REMARK VINA RESULT: -6.432627443      4.311      6.676
REMARK  5 active torsions:
REMARK  status: ('A' for Active; 'I' for Inactive)
REMARK    1  A    between atoms: C2_2  and  C3_3 
REMARK    2  A    between atoms: C3_3  and  C4_4 
REMARK    3  A    between atoms: C7_8  and  O2_9 
REMARK    4  A    between atoms: N1_11  and  C8_12 
REMARK    5  A    between atoms: C14_18  and  O3_19 
ROOT
HETATM    1  C4  UNL     1      29.996  13.610  -9.984  1.00  0.00     0.169 A 
HETATM    2  O1  UNL     1      30.907  12.638 -10.391  1.00  0.00    -0.336 OA
HETATM    3  C5  UNL     1      29.921  11.737 -10.738  1.00  0.00     0.133 A 
HETATM    4  C6  UNL     1      28.967  12.645 -10.356  1.00  0.00     0.060 A 
HETATM    5  C7  UNL     1      27.746  12.030 -10.585  1.00  0.00     0.156 A 
HETATM    6  N1  UNL     1      27.926  10.801 -11.083  1.00  0.00    -0.301 N 
HETATM    7  C14 UNL     1      29.263  10.607 -11.182  1.00  0.00     0.179 A 
ENDROOT
BRANCH   6   8
HETATM    8  C8  UNL     1      26.953   9.829 -11.459  1.00  0.00     0.094 C 
HETATM    9  C9  UNL     1      26.024  10.349 -12.528  1.00  0.00     0.026 C 
HETATM   10  C10 UNL     1      25.068   9.322 -13.007  1.00  0.00     0.002 C 
HETATM   11  C11 UNL     1      24.535   8.379 -12.012  1.00  0.00     0.000 C 
HETATM   12  C12 UNL     1      25.317   8.204 -10.754  1.00  0.00     0.002 C 
HETATM   13  C13 UNL     1      26.030   9.452 -10.296  1.00  0.00     0.026 C 
ENDBRANCH   6   8
BRANCH   5  14
HETATM   14  O2  UNL     1      26.513  12.613 -10.330  1.00  0.00    -0.345 OA
ATOM     15  H2  UNL     1      25.738  12.136 -10.055  1.00  0.00     0.219 HD
ENDBRANCH   5  14
BRANCH   7  16
HETATM   16  O3  UNL     1      29.933   9.477 -11.648  1.00  0.00    -0.344 OA
ATOM     17  H3  UNL     1      30.376   9.453 -12.488  1.00  0.00     0.219 HD
ENDBRANCH   7  16
BRANCH   1  18
HETATM   18  C3  UNL     1      30.084  13.831  -8.492  1.00  0.00     0.037 C 
BRANCH  18  19
HETATM   19  C2  UNL     1      31.373  14.570  -8.214  1.00  0.00    -0.002 C 
HETATM   20  C1  UNL     1      31.413  15.901  -8.925  1.00  0.00     0.005 C 
ENDBRANCH  18  19
ENDBRANCH   1  18
TORSDOF 5
ENDMDL
MODEL 4
REMARK VINA RESULT: -6.427346974      2.394      3.823
REMARK  5 active torsions:
REMARK  status: ('A' for Active; 'I' for Inactive)
REMARK    1  A    between atoms: C2_2  and  C3_3 
REMARK    2  A    between atoms: C3_3  and  C4_4 
REMARK    3  A    between atoms: C7_8  and  O2_9 
REMARK    4  A    between atoms: N1_11  and  C8_12 
REMARK    5  A    between atoms: C14_18  and  O3_19 
ROOT
HETATM    1  C4  UNL     1      31.647  13.248  -7.332  1.00  0.00     0.169 A 
HETATM    2  O1  UNL     1      31.642  14.639  -7.415  1.00  0.00    -0.336 OA
HETATM    3  C5  UNL     1      30.939  14.651  -8.603  1.00  0.00     0.133 A 
HETATM    4  C6  UNL     1      30.905  13.280  -8.589  1.00  0.00     0.060 A 
HETATM    5  C7  UNL     1      30.216  12.907  -9.731  1.00  0.00     0.156 A 
HETATM    6  N1  UNL     1      29.840  13.986 -10.426  1.00  0.00    -0.301 N 
HETATM    7  C14 UNL     1      30.279  15.070  -9.742  1.00  0.00     0.179 A 
ENDROOT
BRANCH   6   8
HETATM    8  C8  UNL     1      29.116  14.063 -11.652  1.00  0.00     0.094 C 
HETATM    9  C9  UNL     1      27.647  13.782 -11.456  1.00  0.00     0.026 C 
HETATM   10  C10 UNL     1      26.858  13.955 -12.699  1.00  0.00     0.002 C 
HETATM   11  C11 UNL     1      27.488  13.542 -13.962  1.00  0.00     0.000 C 
HETATM   12  C12 UNL     1      28.977  13.444 -13.979  1.00  0.00     0.002 C 
HETATM   13  C13 UNL     1      29.578  13.010 -12.665  1.00  0.00     0.026 C 
ENDBRANCH   6   8
BRANCH   5  14
HETATM   14  O2  UNL     1      29.957  11.594 -10.099  1.00  0.00    -0.345 OA
ATOM     15  H2  UNL     1      29.150  11.130  -9.906  1.00  0.00     0.219 HD
ENDBRANCH   5  14
BRANCH   7  16
HETATM   16  O3  UNL     1      30.125  16.415 -10.073  1.00  0.00    -0.344 OA
ATOM     17  H3  UNL     1      29.793  16.701 -10.915  1.00  0.00     0.219 HD
ENDBRANCH   7  16
BRANCH   1  18
HETATM   18  C3  UNL     1      33.050  12.711  -7.492  1.00  0.00     0.037 C 
BRANCH  18  19
HETATM   19  C2  UNL     1      33.417  12.003  -6.207  1.00  0.00    -0.002 C 
HETATM   20  C1  UNL     1      32.197  11.454  -5.508  1.00  0.00     0.005 C 
ENDBRANCH  18  19
ENDBRANCH   1  18
TORSDOF 5
ENDMDL
MODEL 5
REMARK VINA RESULT: -6.359463179      0.689      1.290
REMARK  5 active torsions:
REMARK  status: ('A' for Active; 'I' for Inactive)
REMARK    1  A    between atoms: C2_2  and  C3_3 
REMARK    2  A    between atoms: C3_3  and  C4_4 
REMARK    3  A    between atoms: C7_8  and  O2_9 
REMARK    4  A    between atoms: N1_11  and  C8_12 
REMARK    5  A    between atoms: C14_18  and  O3_19 
ROOT
HETATM    1  C4  UNL     1      33.803  12.470  -5.085  1.00  0.00     0.169 A 
HETATM    2  O1  UNL     1      34.304  13.718  -5.450  1.00  0.00    -0.336 OA
HETATM    3  C5  UNL     1      33.405  13.872  -6.486  1.00  0.00     0.133 A 
HETATM    4  C6  UNL     1      32.860  12.650  -6.185  1.00  0.00     0.060 A 
HETATM    5  C7  UNL     1      31.838  12.455  -7.100  1.00  0.00     0.156 A 
HETATM    6  N1  UNL     1      31.748  13.499  -7.931  1.00  0.00    -0.301 N 
HETATM    7  C14 UNL     1      32.708  14.381  -7.564  1.00  0.00     0.179 A 
ENDROOT
BRANCH   6   8
HETATM    8  C8  UNL     1      30.845  13.715  -9.013  1.00  0.00     0.094 C 
HETATM    9  C9  UNL     1      29.446  14.008  -8.529  1.00  0.00     0.026 C 
HETATM   10  C10 UNL     1      28.513  14.335  -9.633  1.00  0.00     0.002 C 
HETATM   11  C11 UNL     1      28.678  13.602 -10.897  1.00  0.00     0.000 C 
HETATM   12  C12 UNL     1      30.006  12.969 -11.148  1.00  0.00     0.002 C 
HETATM   13  C13 UNL     1      30.695  12.475  -9.900  1.00  0.00     0.026 C 
ENDBRANCH   6   8
BRANCH   5  14
HETATM   14  O2  UNL     1      31.025  11.331  -7.143  1.00  0.00    -0.345 OA
ATOM     15  H2  UNL     1      30.496  11.021  -6.417  1.00  0.00     0.219 HD
ENDBRANCH   5  14
BRANCH   7  16
HETATM   16  O3  UNL     1      33.002  15.618  -8.136  1.00  0.00    -0.344 OA
ATOM     17  H3  UNL     1      32.453  16.021  -8.798  1.00  0.00     0.219 HD
ENDBRANCH   7  16
BRANCH   1  18
HETATM   18  C3  UNL     1      34.822  11.387  -5.355  1.00  0.00     0.037 C 
BRANCH  18  19
HETATM   19  C2  UNL     1      34.304  10.108  -4.737  1.00  0.00    -0.002 C 
HETATM   20  C1  UNL     1      33.505  10.381  -3.485  1.00  0.00     0.005 C 
ENDBRANCH  18  19
ENDBRANCH   1  18
TORSDOF 5
ENDMDL
