MODEL 1
REMARK VINA RESULT: -9.111102923      0.000      0.000
REMARK  16 active torsions:
REMARK  status: ('A' for Active; 'I' for Inactive)
REMARK    1  A    between atoms: C2_2  and  O1_3 
REMARK    2  A    between atoms: C2_2  and  C3_5 
REMARK       I    between atoms: C3_5  and  N1_7 
REMARK    3  A    between atoms: N1_7  and  C4_9 
REMARK    4  A    between atoms: C4_9  and  C5_10 
REMARK    5  A    between atoms: C6_12  and  N2_13 
REMARK    6  A    between atoms: C7_14  and  N3_15 
REMARK    7  A    between atoms: N4_18  and  C8_19 
REMARK    8  A    between atoms: C8_19  and  C9_20 
REMARK    9  A    between atoms: C9_20  and  O4_21 
REMARK   10  A    between atoms: C9_20  and  C10_23 
REMARK   11  A    between atoms: C10_23  and  O5_24 
REMARK   12  A    between atoms: C12_27  and  N5_28 
REMARK   13  A    between atoms: C13_33  and  C14_34 
REMARK       I    between atoms: C14_34  and  N7_36 
REMARK   14  A    between atoms: N8_38  and  C15_40 
REMARK   15  A    between atoms: C16_45  and  N11_46 
REMARK   16  A    between atoms: N12_49  and  N13_50 
ROOT
HETATM    1  N2  UNL     1      -7.165  36.712 -45.587  1.00  0.00    -0.114 N 
HETATM    2  C7  UNL     1      -6.390  36.490 -46.682  1.00  0.00     0.690 A 
HETATM    3  N4  UNL     1      -6.062  37.678 -47.214  1.00  0.00    -0.148 N 
HETATM    4  C11 UNL     1      -6.624  38.648 -46.462  1.00  0.00     0.144 A 
HETATM    5  C12 UNL     1      -6.635  40.025 -46.519  1.00  0.00     0.132 A 
HETATM    6  N6  UNL     1      -7.310  40.722 -45.592  1.00  0.00    -0.322 N 
ATOM      7  H6  UNL     1      -7.303  41.739 -45.655  1.00  0.00     0.169 HD
HETATM    8  C13 UNL     1      -7.999  40.146 -44.575  1.00  0.00     0.179 A 
HETATM    9  N14 UNL     1      -7.987  38.804 -44.522  1.00  0.00    -0.321 N 
ATOM     10  H14 UNL     1      -8.494  38.337 -43.770  1.00  0.00     0.169 HD
HETATM   11  C17 UNL     1      -7.329  38.053 -45.423  1.00  0.00     0.162 A 
ENDROOT
BRANCH   8  12
HETATM   12  C14 UNL     1      -8.716  40.958 -43.594  1.00  0.00     0.304 C 
HETATM   13  O6  UNL     1      -8.080  41.850 -42.982  1.00  0.00    -0.263 OA
HETATM   14  N7  UNL     1     -10.080  40.779 -43.314  1.00  0.00    -0.249 N 
HETATM   15  N8  UNL     1     -10.485  39.637 -42.976  1.00  0.00    -0.126 N 
ATOM     16  H7  UNL     1     -10.731  41.561 -43.385  1.00  0.00     0.191 HD
ATOM     17  H8  UNL     1      -9.829  38.859 -42.907  1.00  0.00     0.206 HD
BRANCH  15  18
HETATM   18  C15 UNL     1     -11.863  39.439 -42.689  1.00  0.00     0.748 A 
HETATM   19  N9  UNL     1     -12.425  39.929 -41.558  1.00  0.00    -0.114 N 
HETATM   20  N10 UNL     1     -13.696  39.567 -41.612  1.00  0.00    -0.116 N 
ATOM     21  H9  UNL     1     -11.965  40.463 -40.821  1.00  0.00     0.206 HD
HETATM   22  C16 UNL     1     -13.959  38.871 -42.726  1.00  0.00     0.727 A 
ATOM     23  H10 UNL     1     -14.388  39.789 -40.897  1.00  0.00     0.206 HD
HETATM   24  N12 UNL     1     -12.790  38.790 -43.414  1.00  0.00     0.087 N 
BRANCH  22  25
HETATM   25  N11 UNL     1     -15.078  38.357 -43.122  1.00  0.00    -0.231 N 
ATOM     26 2H11 UNL     1     -15.953  38.410 -42.600  1.00  0.00     0.174 HD
ATOM     27 1H11 UNL     1     -15.280  37.836 -43.975  1.00  0.00     0.174 HD
ENDBRANCH  22  25
BRANCH  24  28
HETATM   28  N13 UNL     1     -12.563  38.161 -44.638  1.00  0.00    -0.309 N 
ATOM     29 2H13 UNL     1     -12.034  38.517 -45.435  1.00  0.00     0.178 HD
ATOM     30 1H13 UNL     1     -12.907  37.237 -44.899  1.00  0.00     0.178 HD
ENDBRANCH  24  28
ENDBRANCH  15  18
ENDBRANCH   8  12
BRANCH   5  31
HETATM   31  N5  UNL     1      -5.982  40.582 -47.481  1.00  0.00    -0.383 N 
ATOM     32  H52 UNL     1      -4.979  40.454 -47.619  1.00  0.00     0.157 HD
ATOM     33  H51 UNL     1      -6.509  41.173 -48.123  1.00  0.00     0.157 HD
ENDBRANCH   5  31
BRANCH   1  34
HETATM   34  C6  UNL     1      -7.726  35.694 -44.731  1.00  0.00     0.405 C 
HETATM   35  O3  UNL     1      -6.759  34.827 -44.223  1.00  0.00    -0.326 OA
HETATM   36  C5  UNL     1      -7.448  33.682 -43.829  1.00  0.00     0.243 C 
HETATM   37  C18 UNL     1      -8.586  33.629 -44.759  1.00  0.00     0.293 C 
HETATM   38  O7  UNL     1      -8.654  34.852 -45.414  1.00  0.00    -0.268 OA
HETATM   39  O8  UNL     1      -9.400  32.690 -44.984  1.00  0.00    -0.262 OA
BRANCH  36  40
HETATM   40  C4  UNL     1      -7.942  33.901 -42.422  1.00  0.00     0.165 C 
BRANCH  40  41
HETATM   41  N1  UNL     1      -8.555  32.700 -41.883  1.00  0.00    -0.356 N 
HETATM   42  C3  UNL     1      -9.885  32.649 -41.434  1.00  0.00     0.246 C 
HETATM   43  O2  UNL     1     -10.585  33.687 -41.500  1.00  0.00    -0.271 OA
ATOM     44  H1  UNL     1      -7.992  31.852 -41.827  1.00  0.00     0.162 HD
BRANCH  42  45
HETATM   45  C2  UNL     1     -10.456  31.402 -40.894  1.00  0.00     0.205 C 
HETATM   46  C1  UNL     1     -10.498  30.376 -42.018  1.00  0.00     0.049 C 
BRANCH  45  47
HETATM   47  O1  UNL     1      -9.733  30.878 -39.851  1.00  0.00    -0.387 OA
ATOM     48  H1  UNL     1      -8.905  30.557 -40.187  1.00  0.00     0.210 HD
ENDBRANCH  45  47
ENDBRANCH  42  45
ENDBRANCH  40  41
ENDBRANCH  36  40
ENDBRANCH   1  34
BRANCH   3  49
HETATM   49  C8  UNL     1      -5.258  37.927 -48.374  1.00  0.00     0.150 C 
BRANCH  49  50
HETATM   50  C9  UNL     1      -3.955  37.863 -48.360  1.00  0.00     0.083 C 
BRANCH  50  51
HETATM   51  O4  UNL     1      -3.312  36.746 -47.896  1.00  0.00    -0.361 OA
ATOM     52  H4  UNL     1      -2.914  36.737 -47.033  1.00  0.00     0.217 HD
ENDBRANCH  50  51
BRANCH  50  53
HETATM   53  C10 UNL     1      -3.160  39.003 -48.850  1.00  0.00     0.229 C 
BRANCH  53  54
HETATM   54  O5  UNL     1      -2.945  39.874 -47.785  1.00  0.00    -0.394 OA
ATOM     55  H5  UNL     1      -3.136  40.757 -48.080  1.00  0.00     0.209 HD
ENDBRANCH  53  54
ENDBRANCH  50  53
ENDBRANCH  49  50
ENDBRANCH   3  49
BRANCH   2  56
HETATM   56  N3  UNL     1      -6.003  35.361 -47.177  1.00  0.00    -0.234 N 
ATOM     57  H32 UNL     1      -6.620  34.739 -47.699  1.00  0.00     0.174 HD
ATOM     58  H31 UNL     1      -5.080  34.931 -47.131  1.00  0.00     0.174 HD
ENDBRANCH   2  56
TORSDOF 16
ENDMDL
MODEL 2
REMARK VINA RESULT: -9.100662254      2.451      6.027
REMARK  16 active torsions:
REMARK  status: ('A' for Active; 'I' for Inactive)
REMARK    1  A    between atoms: C2_2  and  O1_3 
REMARK    2  A    between atoms: C2_2  and  C3_5 
REMARK       I    between atoms: C3_5  and  N1_7 
REMARK    3  A    between atoms: N1_7  and  C4_9 
REMARK    4  A    between atoms: C4_9  and  C5_10 
REMARK    5  A    between atoms: C6_12  and  N2_13 
REMARK    6  A    between atoms: C7_14  and  N3_15 
REMARK    7  A    between atoms: N4_18  and  C8_19 
REMARK    8  A    between atoms: C8_19  and  C9_20 
REMARK    9  A    between atoms: C9_20  and  O4_21 
REMARK   10  A    between atoms: C9_20  and  C10_23 
REMARK   11  A    between atoms: C10_23  and  O5_24 
REMARK   12  A    between atoms: C12_27  and  N5_28 
REMARK   13  A    between atoms: C13_33  and  C14_34 
REMARK       I    between atoms: C14_34  and  N7_36 
REMARK   14  A    between atoms: N8_38  and  C15_40 
REMARK   15  A    between atoms: C16_45  and  N11_46 
REMARK   16  A    between atoms: N12_49  and  N13_50 
ROOT
HETATM    1  N2  UNL     1      -7.835  38.416 -45.812  1.00  0.00    -0.114 N 
HETATM    2  C7  UNL     1      -6.892  39.353 -46.098  1.00  0.00     0.690 A 
HETATM    3  N4  UNL     1      -5.741  38.720 -46.379  1.00  0.00    -0.148 N 
HETATM    4  C11 UNL     1      -5.953  37.392 -46.272  1.00  0.00     0.144 A 
HETATM    5  C12 UNL     1      -5.163  36.275 -46.438  1.00  0.00     0.132 A 
HETATM    6  N6  UNL     1      -5.690  35.055 -46.252  1.00  0.00    -0.322 N 
ATOM      7  H6  UNL     1      -5.085  34.244 -46.382  1.00  0.00     0.169 HD
HETATM    8  C13 UNL     1      -6.984  34.842 -45.902  1.00  0.00     0.179 A 
HETATM    9  N14 UNL     1      -7.751  35.932 -45.740  1.00  0.00    -0.321 N 
ATOM     10  H14 UNL     1      -8.729  35.810 -45.477  1.00  0.00     0.169 HD
HETATM   11  C17 UNL     1      -7.278  37.179 -45.913  1.00  0.00     0.162 A 
ENDROOT
BRANCH   8  12
HETATM   12  C14 UNL     1      -7.501  33.488 -45.713  1.00  0.00     0.304 C 
HETATM   13  O6  UNL     1      -7.410  32.678 -46.667  1.00  0.00    -0.263 OA
HETATM   14  N7  UNL     1      -8.092  33.065 -44.512  1.00  0.00    -0.249 N 
HETATM   15  N8  UNL     1      -9.055  33.724 -44.044  1.00  0.00    -0.126 N 
ATOM     16  H7  UNL     1      -7.745  32.237 -44.027  1.00  0.00     0.191 HD
ATOM     17  H8  UNL     1      -9.398  34.551 -44.533  1.00  0.00     0.206 HD
BRANCH  15  18
HETATM   18  C15 UNL     1      -9.664  33.308 -42.829  1.00  0.00     0.748 A 
HETATM   19  N9  UNL     1      -8.926  32.824 -41.801  1.00  0.00    -0.114 N 
HETATM   20  N10 UNL     1      -9.797  32.539 -40.847  1.00  0.00    -0.116 N 
ATOM     21  H9  UNL     1      -7.914  32.705 -41.769  1.00  0.00     0.206 HD
HETATM   22  C16 UNL     1     -11.050  32.821 -41.229  1.00  0.00     0.727 A 
ATOM     23  H10 UNL     1      -9.548  32.153 -39.936  1.00  0.00     0.206 HD
HETATM   24  N12 UNL     1     -10.965  33.312 -42.492  1.00  0.00     0.087 N 
BRANCH  22  25
HETATM   25  N11 UNL     1     -12.155  32.678 -40.571  1.00  0.00    -0.231 N 
ATOM     26 2H11 UNL     1     -12.334  31.932 -39.899  1.00  0.00     0.174 HD
ATOM     27 1H11 UNL     1     -12.999  33.249 -40.603  1.00  0.00     0.174 HD
ENDBRANCH  22  25
BRANCH  24  28
HETATM   28  N13 UNL     1     -12.009  33.746 -43.311  1.00  0.00    -0.309 N 
ATOM     29 2H13 UNL     1     -12.044  34.590 -43.884  1.00  0.00     0.178 HD
ATOM     30 1H13 UNL     1     -12.896  33.259 -43.443  1.00  0.00     0.178 HD
ENDBRANCH  24  28
ENDBRANCH  15  18
ENDBRANCH   8  12
BRANCH   5  31
HETATM   31  N5  UNL     1      -3.933  36.466 -46.772  1.00  0.00    -0.383 N 
ATOM     32  H52 UNL     1      -3.151  36.007 -46.305  1.00  0.00     0.157 HD
ATOM     33  H51 UNL     1      -3.753  37.110 -47.543  1.00  0.00     0.157 HD
ENDBRANCH   5  31
BRANCH   1  34
HETATM   34  C6  UNL     1      -9.209  38.685 -45.459  1.00  0.00     0.405 C 
HETATM   35  O3  UNL     1      -9.893  39.382 -46.454  1.00  0.00    -0.326 OA
HETATM   36  C5  UNL     1     -10.994  39.958 -45.823  1.00  0.00     0.243 C 
HETATM   37  C18 UNL     1     -10.519  40.192 -44.451  1.00  0.00     0.293 C 
HETATM   38  O7  UNL     1      -9.328  39.498 -44.292  1.00  0.00    -0.268 OA
HETATM   39  O8  UNL     1     -11.035  40.881 -43.527  1.00  0.00    -0.262 OA
BRANCH  36  40
HETATM   40  C4  UNL     1     -12.107  38.942 -45.817  1.00  0.00     0.165 C 
BRANCH  40  41
HETATM   41  N1  UNL     1     -12.903  39.035 -44.606  1.00  0.00    -0.356 N 
HETATM   42  C3  UNL     1     -13.169  37.936 -43.773  1.00  0.00     0.246 C 
HETATM   43  O2  UNL     1     -12.698  36.816 -44.083  1.00  0.00    -0.271 OA
ATOM     44  H1  UNL     1     -13.288  39.943 -44.348  1.00  0.00     0.162 HD
BRANCH  42  45
HETATM   45  C2  UNL     1     -13.985  38.088 -42.554  1.00  0.00     0.205 C 
HETATM   46  C1  UNL     1     -13.497  39.322 -41.809  1.00  0.00     0.049 C 
BRANCH  45  47
HETATM   47  O1  UNL     1     -15.326  38.234 -42.811  1.00  0.00    -0.387 OA
ATOM     48  H1  UNL     1     -15.611  37.511 -43.357  1.00  0.00     0.210 HD
ENDBRANCH  45  47
ENDBRANCH  42  45
ENDBRANCH  40  41
ENDBRANCH  36  40
ENDBRANCH   1  34
BRANCH   3  49
HETATM   49  C8  UNL     1      -4.483  39.306 -46.735  1.00  0.00     0.150 C 
BRANCH  49  50
HETATM   50  C9  UNL     1      -4.283  39.919 -47.870  1.00  0.00     0.083 C 
BRANCH  50  51
HETATM   51  O4  UNL     1      -4.784  41.177 -48.085  1.00  0.00    -0.361 OA
ATOM     52  H4  UNL     1      -4.612  41.881 -47.471  1.00  0.00     0.217 HD
ENDBRANCH  50  51
BRANCH  50  53
HETATM   53  C10 UNL     1      -3.509  39.258 -48.935  1.00  0.00     0.229 C 
BRANCH  53  54
HETATM   54  O5  UNL     1      -2.464  38.556 -48.341  1.00  0.00    -0.394 OA
ATOM     55  H5  UNL     1      -1.650  38.850 -48.730  1.00  0.00     0.209 HD
ENDBRANCH  53  54
ENDBRANCH  50  53
ENDBRANCH  49  50
ENDBRANCH   3  49
BRANCH   2  56
HETATM   56  N3  UNL     1      -7.015  40.639 -46.114  1.00  0.00    -0.234 N 
ATOM     57  H32 UNL     1      -7.910  41.113 -46.236  1.00  0.00     0.174 HD
ATOM     58  H31 UNL     1      -6.289  41.347 -46.015  1.00  0.00     0.174 HD
ENDBRANCH   2  56
TORSDOF 16
ENDMDL
MODEL 3
REMARK VINA RESULT: -8.876455588      2.023      2.525
REMARK  16 active torsions:
REMARK  status: ('A' for Active; 'I' for Inactive)
REMARK    1  A    between atoms: C2_2  and  O1_3 
REMARK    2  A    between atoms: C2_2  and  C3_5 
REMARK       I    between atoms: C3_5  and  N1_7 
REMARK    3  A    between atoms: N1_7  and  C4_9 
REMARK    4  A    between atoms: C4_9  and  C5_10 
REMARK    5  A    between atoms: C6_12  and  N2_13 
REMARK    6  A    between atoms: C7_14  and  N3_15 
REMARK    7  A    between atoms: N4_18  and  C8_19 
REMARK    8  A    between atoms: C8_19  and  C9_20 
REMARK    9  A    between atoms: C9_20  and  O4_21 
REMARK   10  A    between atoms: C9_20  and  C10_23 
REMARK   11  A    between atoms: C10_23  and  O5_24 
REMARK   12  A    between atoms: C12_27  and  N5_28 
REMARK   13  A    between atoms: C13_33  and  C14_34 
REMARK       I    between atoms: C14_34  and  N7_36 
REMARK   14  A    between atoms: N8_38  and  C15_40 
REMARK   15  A    between atoms: C16_45  and  N11_46 
REMARK   16  A    between atoms: N12_49  and  N13_50 
ROOT
HETATM    1  N2  UNL     1      -7.460  36.620 -45.586  1.00  0.00    -0.114 N 
HETATM    2  C7  UNL     1      -6.157  36.848 -45.902  1.00  0.00     0.690 A 
HETATM    3  N4  UNL     1      -6.044  38.115 -46.334  1.00  0.00    -0.148 N 
HETATM    4  C11 UNL     1      -7.266  38.686 -46.292  1.00  0.00     0.144 A 
HETATM    5  C12 UNL     1      -7.755  39.935 -46.606  1.00  0.00     0.132 A 
HETATM    6  N6  UNL     1      -9.062  40.196 -46.448  1.00  0.00    -0.322 N 
ATOM      7  H6  UNL     1      -9.400  41.128 -46.687  1.00  0.00     0.169 HD
HETATM    8  C13 UNL     1      -9.957  39.287 -45.986  1.00  0.00     0.179 A 
HETATM    9  N14 UNL     1      -9.478  38.071 -45.680  1.00  0.00    -0.321 N 
ATOM     10  H14 UNL     1     -10.123  37.362 -45.329  1.00  0.00     0.169 HD
HETATM   11  C17 UNL     1      -8.179  37.752 -45.819  1.00  0.00     0.162 A 
ENDROOT
BRANCH   8  12
HETATM   12  C14 UNL     1     -11.370  39.630 -45.834  1.00  0.00     0.304 C 
HETATM   13  O6  UNL     1     -11.733  40.796 -46.119  1.00  0.00    -0.263 OA
HETATM   14  N7  UNL     1     -12.328  38.708 -45.383  1.00  0.00    -0.249 N 
HETATM   15  N8  UNL     1     -12.136  38.120 -44.288  1.00  0.00    -0.126 N 
ATOM     16  H7  UNL     1     -13.164  38.517 -45.935  1.00  0.00     0.191 HD
ATOM     17  H8  UNL     1     -11.298  38.314 -43.740  1.00  0.00     0.206 HD
BRANCH  15  18
HETATM   18  C15 UNL     1     -13.096  37.183 -43.818  1.00  0.00     0.748 A 
HETATM   19  N9  UNL     1     -12.836  35.854 -43.805  1.00  0.00    -0.114 N 
HETATM   20  N10 UNL     1     -13.927  35.287 -43.316  1.00  0.00    -0.116 N 
ATOM     21  H9  UNL     1     -11.981  35.388 -44.108  1.00  0.00     0.206 HD
HETATM   22  C16 UNL     1     -14.862  36.200 -43.022  1.00  0.00     0.727 A 
ATOM     23  H10 UNL     1     -14.042  34.283 -43.180  1.00  0.00     0.206 HD
HETATM   24  N12 UNL     1     -14.333  37.409 -43.341  1.00  0.00     0.087 N 
BRANCH  22  25
HETATM   25  N11 UNL     1     -16.046  36.026 -42.530  1.00  0.00    -0.231 N 
ATOM     26 2H11 UNL     1     -16.520  35.124 -42.472  1.00  0.00     0.174 HD
ATOM     27 1H11 UNL     1     -16.685  36.716 -42.134  1.00  0.00     0.174 HD
ENDBRANCH  22  25
BRANCH  24  28
HETATM   28  N13 UNL     1     -14.931  38.664 -43.212  1.00  0.00    -0.309 N 
ATOM     29 2H13 UNL     1     -14.603  39.553 -43.590  1.00  0.00     0.178 HD
ATOM     30 1H13 UNL     1     -15.797  38.855 -42.708  1.00  0.00     0.178 HD
ENDBRANCH  24  28
ENDBRANCH  15  18
ENDBRANCH   8  12
BRANCH   5  31
HETATM   31  N5  UNL     1      -6.912  40.807 -47.045  1.00  0.00    -0.383 N 
ATOM     32  H52 UNL     1      -6.150  41.179 -46.478  1.00  0.00     0.157 HD
ATOM     33  H51 UNL     1      -7.028  41.126 -48.008  1.00  0.00     0.157 HD
ENDBRANCH   5  31
BRANCH   1  34
HETATM   34  C6  UNL     1      -8.000  35.380 -45.082  1.00  0.00     0.405 C 
HETATM   35  O3  UNL     1      -7.238  34.844 -44.044  1.00  0.00    -0.326 OA
HETATM   36  C5  UNL     1      -7.579  33.495 -43.982  1.00  0.00     0.243 C 
HETATM   37  C18 UNL     1      -7.922  33.163 -45.373  1.00  0.00     0.293 C 
HETATM   38  O7  UNL     1      -8.042  34.355 -46.075  1.00  0.00    -0.268 OA
HETATM   39  O8  UNL     1      -8.093  32.034 -45.913  1.00  0.00    -0.262 OA
BRANCH  36  40
HETATM   40  C4  UNL     1      -8.799  33.367 -43.106  1.00  0.00     0.165 C 
BRANCH  40  41
HETATM   41  N1  UNL     1      -9.882  32.692 -43.800  1.00  0.00    -0.356 N 
HETATM   42  C3  UNL     1     -11.229  32.798 -43.416  1.00  0.00     0.246 C 
HETATM   43  O2  UNL     1     -11.519  33.511 -42.426  1.00  0.00    -0.271 OA
ATOM     44  H1  UNL     1      -9.653  32.112 -44.607  1.00  0.00     0.162 HD
BRANCH  42  45
HETATM   45  C2  UNL     1     -12.287  32.090 -44.158  1.00  0.00     0.205 C 
HETATM   46  C1  UNL     1     -13.121  31.303 -43.157  1.00  0.00     0.049 C 
BRANCH  45  47
HETATM   47  O1  UNL     1     -13.120  32.930 -44.856  1.00  0.00    -0.387 OA
ATOM     48  H1  UNL     1     -13.503  33.551 -44.247  1.00  0.00     0.210 HD
ENDBRANCH  45  47
ENDBRANCH  42  45
ENDBRANCH  40  41
ENDBRANCH  36  40
ENDBRANCH   1  34
BRANCH   3  49
HETATM   49  C8  UNL     1      -4.858  38.788 -46.773  1.00  0.00     0.150 C 
BRANCH  49  50
HETATM   50  C9  UNL     1      -4.207  38.446 -47.851  1.00  0.00     0.083 C 
BRANCH  50  51
HETATM   51  O4  UNL     1      -3.268  37.449 -47.817  1.00  0.00    -0.361 OA
ATOM     52  H4  UNL     1      -2.440  37.544 -48.273  1.00  0.00     0.217 HD
ENDBRANCH  50  51
BRANCH  50  53
HETATM   53  C10 UNL     1      -4.483  39.135 -49.124  1.00  0.00     0.229 C 
BRANCH  53  54
HETATM   54  O5  UNL     1      -4.587  40.499 -48.866  1.00  0.00    -0.394 OA
ATOM     55  H5  UNL     1      -4.222  40.970 -49.606  1.00  0.00     0.209 HD
ENDBRANCH  53  54
ENDBRANCH  50  53
ENDBRANCH  49  50
ENDBRANCH   3  49
BRANCH   2  56
HETATM   56  N3  UNL     1      -5.157  36.034 -45.824  1.00  0.00    -0.234 N 
ATOM     57  H32 UNL     1      -4.661  35.680 -46.642  1.00  0.00     0.174 HD
ATOM     58  H31 UNL     1      -4.726  35.636 -44.991  1.00  0.00     0.174 HD
ENDBRANCH   2  56
TORSDOF 16
ENDMDL
MODEL 4
REMARK VINA RESULT: -8.867489356      2.478      6.437
REMARK  16 active torsions:
REMARK  status: ('A' for Active; 'I' for Inactive)
REMARK    1  A    between atoms: C2_2  and  O1_3 
REMARK    2  A    between atoms: C2_2  and  C3_5 
REMARK       I    between atoms: C3_5  and  N1_7 
REMARK    3  A    between atoms: N1_7  and  C4_9 
REMARK    4  A    between atoms: C4_9  and  C5_10 
REMARK    5  A    between atoms: C6_12  and  N2_13 
REMARK    6  A    between atoms: C7_14  and  N3_15 
REMARK    7  A    between atoms: N4_18  and  C8_19 
REMARK    8  A    between atoms: C8_19  and  C9_20 
REMARK    9  A    between atoms: C9_20  and  O4_21 
REMARK   10  A    between atoms: C9_20  and  C10_23 
REMARK   11  A    between atoms: C10_23  and  O5_24 
REMARK   12  A    between atoms: C12_27  and  N5_28 
REMARK   13  A    between atoms: C13_33  and  C14_34 
REMARK       I    between atoms: C14_34  and  N7_36 
REMARK   14  A    between atoms: N8_38  and  C15_40 
REMARK   15  A    between atoms: C16_45  and  N11_46 
REMARK   16  A    between atoms: N12_49  and  N13_50 
ROOT
HETATM    1  N2  UNL     1      -7.429  38.911 -45.331  1.00  0.00    -0.114 N 
HETATM    2  C7  UNL     1      -6.904  39.399 -46.487  1.00  0.00     0.690 A 
HETATM    3  N4  UNL     1      -6.233  38.407 -47.096  1.00  0.00    -0.148 N 
HETATM    4  C11 UNL     1      -6.332  37.299 -46.332  1.00  0.00     0.144 A 
HETATM    5  C12 UNL     1      -5.860  36.009 -46.441  1.00  0.00     0.132 A 
HETATM    6  N6  UNL     1      -6.141  35.115 -45.482  1.00  0.00    -0.322 N 
ATOM      7  H6  UNL     1      -5.781  34.167 -45.586  1.00  0.00     0.169 HD
HETATM    8  C13 UNL     1      -6.880  35.404 -44.381  1.00  0.00     0.179 A 
HETATM    9  N14 UNL     1      -7.339  36.661 -44.276  1.00  0.00    -0.321 N 
ATOM     10  H14 UNL     1      -7.899  36.914 -43.462  1.00  0.00     0.169 HD
HETATM   11  C17 UNL     1      -7.089  37.600 -45.206  1.00  0.00     0.162 A 
ENDROOT
BRANCH   8  12
HETATM   12  C14 UNL     1      -7.155  34.386 -43.368  1.00  0.00     0.304 C 
HETATM   13  O6  UNL     1      -6.333  34.243 -42.431  1.00  0.00    -0.263 OA
HETATM   14  N7  UNL     1      -8.296  33.570 -43.406  1.00  0.00    -0.249 N 
HETATM   15  N8  UNL     1      -8.529  32.900 -44.444  1.00  0.00    -0.126 N 
ATOM     16  H7  UNL     1      -8.927  33.523 -42.605  1.00  0.00     0.191 HD
ATOM     17  H8  UNL     1      -7.896  32.952 -45.242  1.00  0.00     0.206 HD
BRANCH  15  18
HETATM   18  C15 UNL     1      -9.681  32.069 -44.498  1.00  0.00     0.748 A 
HETATM   19  N9  UNL     1     -10.727  32.260 -43.658  1.00  0.00    -0.114 N 
HETATM   20  N10 UNL     1     -11.609  31.327 -43.978  1.00  0.00    -0.116 N 
ATOM     21  H9  UNL     1     -10.816  32.972 -42.934  1.00  0.00     0.206 HD
HETATM   22  C16 UNL     1     -11.164  30.558 -44.980  1.00  0.00     0.727 A 
ATOM     23  H10 UNL     1     -12.513  31.209 -43.520  1.00  0.00     0.206 HD
HETATM   24  N12 UNL     1      -9.935  31.030 -45.312  1.00  0.00     0.087 N 
BRANCH  22  25
HETATM   25  N11 UNL     1     -11.743  29.555 -45.557  1.00  0.00    -0.231 N 
ATOM     26 2H11 UNL     1     -11.907  29.482 -46.561  1.00  0.00     0.174 HD
ATOM     27 1H11 UNL     1     -12.121  28.704 -45.139  1.00  0.00     0.174 HD
ENDBRANCH  22  25
BRANCH  24  28
HETATM   28  N13 UNL     1      -9.076  30.553 -46.303  1.00  0.00    -0.309 N 
ATOM     29 2H13 UNL     1      -8.726  29.602 -46.420  1.00  0.00     0.178 HD
ATOM     30 1H13 UNL     1      -8.679  31.112 -47.058  1.00  0.00     0.178 HD
ENDBRANCH  24  28
ENDBRANCH  15  18
ENDBRANCH   8  12
BRANCH   5  31
HETATM   31  N5  UNL     1      -5.157  35.724 -47.485  1.00  0.00    -0.383 N 
ATOM     32  H52 UNL     1      -4.821  36.431 -48.140  1.00  0.00     0.157 HD
ATOM     33  H51 UNL     1      -4.936  34.741 -47.645  1.00  0.00     0.157 HD
ENDBRANCH   5  31
BRANCH   1  34
HETATM   34  C6  UNL     1      -8.223  39.660 -44.385  1.00  0.00     0.405 C 
HETATM   35  O3  UNL     1      -9.422  40.116 -44.931  1.00  0.00    -0.326 OA
HETATM   36  C5  UNL     1      -9.837  41.161 -44.110  1.00  0.00     0.243 C 
HETATM   37  C18 UNL     1      -8.576  41.729 -43.612  1.00  0.00     0.293 C 
HETATM   38  O7  UNL     1      -7.559  40.835 -43.920  1.00  0.00    -0.268 OA
HETATM   39  O8  UNL     1      -8.366  42.818 -43.007  1.00  0.00    -0.262 OA
BRANCH  36  40
HETATM   40  C4  UNL     1     -10.622  40.567 -42.968  1.00  0.00     0.165 C 
BRANCH  40  41
HETATM   41  N1  UNL     1     -11.735  39.768 -43.450  1.00  0.00    -0.356 N 
HETATM   42  C3  UNL     1     -12.820  39.390 -42.641  1.00  0.00     0.246 C 
HETATM   43  O2  UNL     1     -12.836  39.760 -41.443  1.00  0.00    -0.271 OA
ATOM     44  H1  UNL     1     -11.729  39.465 -44.424  1.00  0.00     0.162 HD
BRANCH  42  45
HETATM   45  C2  UNL     1     -13.923  38.576 -43.183  1.00  0.00     0.205 C 
HETATM   46  C1  UNL     1     -13.427  37.145 -43.329  1.00  0.00     0.049 C 
BRANCH  45  47
HETATM   47  O1  UNL     1     -15.041  38.573 -42.384  1.00  0.00    -0.387 OA
ATOM     48  H1  UNL     1     -15.799  38.385 -42.926  1.00  0.00     0.210 HD
ENDBRANCH  45  47
ENDBRANCH  42  45
ENDBRANCH  40  41
ENDBRANCH  36  40
ENDBRANCH   1  34
BRANCH   3  49
HETATM   49  C8  UNL     1      -5.521  38.465 -48.338  1.00  0.00     0.150 C 
BRANCH  49  50
HETATM   50  C9  UNL     1      -4.296  38.906 -48.433  1.00  0.00     0.083 C 
BRANCH  50  51
HETATM   51  O4  UNL     1      -3.268  38.260 -47.798  1.00  0.00    -0.361 OA
ATOM     52  H4  UNL     1      -2.527  38.746 -47.454  1.00  0.00     0.217 HD
ENDBRANCH  50  51
BRANCH  50  53
HETATM   53  C10 UNL     1      -4.010  40.110 -49.232  1.00  0.00     0.229 C 
BRANCH  53  54
HETATM   54  O5  UNL     1      -4.570  41.207 -48.582  1.00  0.00    -0.394 OA
ATOM     55  H5  UNL     1      -5.312  41.508 -49.093  1.00  0.00     0.209 HD
ENDBRANCH  53  54
ENDBRANCH  50  53
ENDBRANCH  49  50
ENDBRANCH   3  49
BRANCH   2  56
HETATM   56  N3  UNL     1      -6.996  40.593 -46.971  1.00  0.00    -0.234 N 
ATOM     57  H32 UNL     1      -7.739  40.883 -47.606  1.00  0.00     0.174 HD
ATOM     58  H31 UNL     1      -6.383  41.391 -46.811  1.00  0.00     0.174 HD
ENDBRANCH   2  56
TORSDOF 16
ENDMDL
MODEL 5
REMARK VINA RESULT: -8.808908339      1.671      2.010
REMARK  16 active torsions:
REMARK  status: ('A' for Active; 'I' for Inactive)
REMARK    1  A    between atoms: C2_2  and  O1_3 
REMARK    2  A    between atoms: C2_2  and  C3_5 
REMARK       I    between atoms: C3_5  and  N1_7 
REMARK    3  A    between atoms: N1_7  and  C4_9 
REMARK    4  A    between atoms: C4_9  and  C5_10 
REMARK    5  A    between atoms: C6_12  and  N2_13 
REMARK    6  A    between atoms: C7_14  and  N3_15 
REMARK    7  A    between atoms: N4_18  and  C8_19 
REMARK    8  A    between atoms: C8_19  and  C9_20 
REMARK    9  A    between atoms: C9_20  and  O4_21 
REMARK   10  A    between atoms: C9_20  and  C10_23 
REMARK   11  A    between atoms: C10_23  and  O5_24 
REMARK   12  A    between atoms: C12_27  and  N5_28 
REMARK   13  A    between atoms: C13_33  and  C14_34 
REMARK       I    between atoms: C14_34  and  N7_36 
REMARK   14  A    between atoms: N8_38  and  C15_40 
REMARK   15  A    between atoms: C16_45  and  N11_46 
REMARK   16  A    between atoms: N12_49  and  N13_50 
ROOT
HETATM    1  N2  UNL     1      -7.521  36.475 -45.528  1.00  0.00    -0.114 N 
HETATM    2  C7  UNL     1      -6.222  36.589 -45.913  1.00  0.00     0.690 A 
HETATM    3  N4  UNL     1      -6.035  37.826 -46.402  1.00  0.00    -0.148 N 
HETATM    4  C11 UNL     1      -7.206  38.492 -46.327  1.00  0.00     0.144 A 
HETATM    5  C12 UNL     1      -7.614  39.763 -46.669  1.00  0.00     0.132 A 
HETATM    6  N6  UNL     1      -8.888  40.130 -46.461  1.00  0.00    -0.322 N 
ATOM      7  H6  UNL     1      -9.166  41.075 -46.723  1.00  0.00     0.169 HD
HETATM    8  C13 UNL     1      -9.826  39.311 -45.921  1.00  0.00     0.179 A 
HETATM    9  N14 UNL     1      -9.425  38.073 -45.588  1.00  0.00    -0.321 N 
ATOM     10  H14 UNL     1     -10.104  37.431 -45.178  1.00  0.00     0.169 HD
HETATM   11  C17 UNL     1      -8.162  37.649 -45.774  1.00  0.00     0.162 A 
ENDROOT
BRANCH   8  12
HETATM   12  C14 UNL     1     -11.199  39.768 -45.717  1.00  0.00     0.304 C 
HETATM   13  O6  UNL     1     -11.461  40.976 -45.928  1.00  0.00    -0.263 OA
HETATM   14  N7  UNL     1     -12.228  38.909 -45.298  1.00  0.00    -0.249 N 
HETATM   15  N8  UNL     1     -12.070  38.244 -44.243  1.00  0.00    -0.126 N 
ATOM     16  H7  UNL     1     -13.088  38.826 -45.841  1.00  0.00     0.191 HD
ATOM     17  H8  UNL     1     -11.208  38.330 -43.704  1.00  0.00     0.206 HD
BRANCH  15  18
HETATM   18  C15 UNL     1     -13.102  37.370 -43.805  1.00  0.00     0.748 A 
HETATM   19  N9  UNL     1     -12.928  36.026 -43.788  1.00  0.00    -0.114 N 
HETATM   20  N10 UNL     1     -14.067  35.530 -43.334  1.00  0.00    -0.116 N 
ATOM     21  H9  UNL     1     -12.095  35.508 -44.067  1.00  0.00     0.206 HD
HETATM   22  C16 UNL     1     -14.949  36.501 -43.065  1.00  0.00     0.727 A 
ATOM     23  H10 UNL     1     -14.250  34.535 -43.205  1.00  0.00     0.206 HD
HETATM   24  N12 UNL     1     -14.335  37.674 -43.364  1.00  0.00     0.087 N 
BRANCH  22  25
HETATM   25  N11 UNL     1     -16.156  36.402 -42.609  1.00  0.00    -0.231 N 
ATOM     26 2H11 UNL     1     -16.715  35.549 -42.634  1.00  0.00     0.174 HD
ATOM     27 1H11 UNL     1     -16.737  37.116 -42.169  1.00  0.00     0.174 HD
ENDBRANCH  22  25
BRANCH  24  28
HETATM   28  N13 UNL     1     -14.855  38.964 -43.249  1.00  0.00    -0.309 N 
ATOM     29 2H13 UNL     1     -14.662  39.771 -43.843  1.00  0.00     0.178 HD
ATOM     30 1H13 UNL     1     -15.514  39.272 -42.533  1.00  0.00     0.178 HD
ENDBRANCH  24  28
ENDBRANCH  15  18
ENDBRANCH   8  12
BRANCH   5  31
HETATM   31  N5  UNL     1      -6.730  40.549 -47.183  1.00  0.00    -0.383 N 
ATOM     32  H52 UNL     1      -5.734  40.331 -47.197  1.00  0.00     0.157 HD
ATOM     33  H51 UNL     1      -7.063  41.424 -47.589  1.00  0.00     0.157 HD
ENDBRANCH   5  31
BRANCH   1  34
HETATM   34  C6  UNL     1      -8.127  35.300 -44.949  1.00  0.00     0.405 C 
HETATM   35  O3  UNL     1      -7.385  34.777 -43.891  1.00  0.00    -0.326 OA
HETATM   36  C5  UNL     1      -7.806  33.457 -43.749  1.00  0.00     0.243 C 
HETATM   37  C18 UNL     1      -8.188  33.070 -45.115  1.00  0.00     0.293 C 
HETATM   38  O7  UNL     1      -8.246  34.226 -45.882  1.00  0.00    -0.268 OA
HETATM   39  O8  UNL     1      -8.434  31.925 -45.589  1.00  0.00    -0.262 OA
BRANCH  36  40
HETATM   40  C4  UNL     1      -9.019  33.454 -42.854  1.00  0.00     0.165 C 
BRANCH  40  41
HETATM   41  N1  UNL     1      -9.281  32.128 -42.322  1.00  0.00    -0.356 N 
HETATM   42  C3  UNL     1     -10.119  31.892 -41.219  1.00  0.00     0.246 C 
HETATM   43  O2  UNL     1     -10.672  32.870 -40.662  1.00  0.00    -0.271 OA
ATOM     44  H1  UNL     1      -8.835  31.329 -42.771  1.00  0.00     0.162 HD
BRANCH  42  45
HETATM   45  C2  UNL     1     -10.348  30.524 -40.720  1.00  0.00     0.205 C 
HETATM   46  C1  UNL     1     -10.607  29.621 -41.917  1.00  0.00     0.049 C 
BRANCH  45  47
HETATM   47  O1  UNL     1      -9.286  30.017 -40.011  1.00  0.00    -0.387 OA
ATOM     48  H1  UNL     1      -9.622  29.556 -39.252  1.00  0.00     0.210 HD
ENDBRANCH  45  47
ENDBRANCH  42  45
ENDBRANCH  40  41
ENDBRANCH  36  40
ENDBRANCH   1  34
BRANCH   3  49
HETATM   49  C8  UNL     1      -4.824  38.388 -46.923  1.00  0.00     0.150 C 
BRANCH  49  50
HETATM   50  C9  UNL     1      -4.282  37.990 -48.042  1.00  0.00     0.083 C 
BRANCH  50  51
HETATM   51  O4  UNL     1      -3.489  36.873 -48.079  1.00  0.00    -0.361 OA
ATOM     52  H4  UNL     1      -3.752  36.075 -47.636  1.00  0.00     0.217 HD
ENDBRANCH  50  51
BRANCH  50  53
HETATM   53  C10 UNL     1      -4.525  38.746 -49.283  1.00  0.00     0.229 C 
BRANCH  53  54
HETATM   54  O5  UNL     1      -4.458  40.104 -48.986  1.00  0.00    -0.394 OA
ATOM     55  H5  UNL     1      -3.586  40.413 -49.200  1.00  0.00     0.209 HD
ENDBRANCH  53  54
ENDBRANCH  50  53
ENDBRANCH  49  50
ENDBRANCH   3  49
BRANCH   2  56
HETATM   56  N3  UNL     1      -5.284  35.704 -45.849  1.00  0.00    -0.234 N 
ATOM     57  H32 UNL     1      -5.171  34.959 -46.537  1.00  0.00     0.174 HD
ATOM     58  H31 UNL     1      -4.550  35.606 -45.149  1.00  0.00     0.174 HD
ENDBRANCH   2  56
TORSDOF 16
ENDMDL
