MODEL 1
REMARK VINA RESULT: -9.275117705      0.000      0.000
REMARK  16 active torsions:
REMARK  status: ('A' for Active; 'I' for Inactive)
REMARK    1  A    between atoms: C2_2  and  N2_7 
REMARK    2  A    between atoms: N1_3  and  O1_5 
REMARK    3  A    between atoms: N2_7  and  N8_43 
REMARK    4  A    between atoms: N3_8  and  O2_10 
REMARK    5  A    between atoms: O2_10  and  C3_11 
REMARK    6  A    between atoms: C4_14  and  C5_15 
REMARK    7  A    between atoms: N6_19  and  C7_21 
REMARK    8  A    between atoms: C7_21  and  N7_22 
REMARK    9  A    between atoms: C7_21  and  O3_26 
REMARK   10  A    between atoms: C9_29  and  C10_30 
REMARK   11  A    between atoms: C10_30  and  O4_31 
REMARK   12  A    between atoms: C10_30  and  O5_33 
REMARK   13  A    between atoms: C12_39  and  C13_40 
REMARK   14  A    between atoms: N8_43  and  N9_45 
REMARK   15  A    between atoms: N9_45  and  O11_46 
REMARK   16  A    between atoms: N9_45  and  C14_48 
ROOT
HETATM    1  C3  UNL     1      -5.827  38.323 -45.968  1.00  0.00     0.197 A 
HETATM    2  N4  UNL     1      -6.940  38.842 -45.313  1.00  0.00    -0.311 N 
ATOM      3  H4  UNL     1      -7.376  38.265 -44.593  1.00  0.00     0.170 HD
HETATM    4  C4  UNL     1      -7.474  40.023 -45.556  1.00  0.00     0.205 A 
HETATM    5  O7  UNL     1      -6.903  40.753 -46.482  1.00  0.00    -0.253 OA
HETATM    6  C11 UNL     1      -5.858  40.355 -47.149  1.00  0.00     0.311 A 
HETATM    7  O8  UNL     1      -5.340  41.105 -48.044  1.00  0.00    -0.258 OA
HETATM    8  C12 UNL     1      -5.241  39.114 -46.944  1.00  0.00     0.169 A 
ENDROOT
BRANCH   1   9
HETATM    9  O2  UNL     1      -5.398  37.125 -45.626  1.00  0.00    -0.201 OA
BRANCH   9  10
HETATM   10  N3  UNL     1      -5.606  35.946 -45.268  1.00  0.00    -0.176 N 
HETATM   11  N2  UNL     1      -6.276  34.985 -45.722  1.00  0.00    -0.150 N 
ATOM     12  H3  UNL     1      -5.116  35.708 -44.405  1.00  0.00     0.218 HD
BRANCH  11  13
HETATM   13  C2  UNL     1      -7.016  35.144 -46.912  1.00  0.00     0.140 C 
HETATM   14  C1  UNL     1      -6.524  34.618 -48.220  1.00  0.00     0.095 C 
HETATM   15  N1  UNL     1      -8.149  35.766 -46.841  1.00  0.00    -0.254 N 
ATOM     16  H1  UNL     1      -8.699  35.891 -47.691  1.00  0.00     0.195 HD
BRANCH  15  17
HETATM   17  O1  UNL     1      -8.632  36.261 -45.659  1.00  0.00    -0.288 OA
ATOM     18  H1  UNL     1      -8.444  37.147 -45.371  1.00  0.00     0.244 HD
ENDBRANCH  15  17
ENDBRANCH  11  13
BRANCH  11  19
HETATM   19  N8  UNL     1      -6.282  33.773 -45.047  1.00  0.00    -0.207 N 
ATOM     20  H8  UNL     1      -6.246  32.912 -45.592  1.00  0.00     0.207 HD
BRANCH  19  21
HETATM   21  N9  UNL     1      -6.335  33.679 -43.655  1.00  0.00    -0.018 NA
BRANCH  21  22
HETATM   22  O11 UNL     1      -5.605  32.628 -43.197  1.00  0.00    -0.286 OA
ATOM     23  H11 UNL     1      -5.216  32.135 -43.911  1.00  0.00     0.239 HD
ENDBRANCH  21  22
BRANCH  21  24
HETATM   24  C14 UNL     1      -7.695  33.499 -43.289  1.00  0.00     0.223 A 
HETATM   25  N10 UNL     1      -8.709  33.444 -44.169  1.00  0.00    -0.270 N 
HETATM   26  N11 UNL     1      -9.816  33.273 -43.504  1.00  0.00    -0.271 N 
ATOM     27  H10 UNL     1      -8.627  33.521 -45.183  1.00  0.00     0.189 HD
HETATM   28  C15 UNL     1      -9.546  33.215 -42.191  1.00  0.00     0.209 A 
ATOM     29  H11 UNL     1     -10.745  33.196 -43.918  1.00  0.00     0.189 HD
HETATM   30  N12 UNL     1     -10.415  33.041 -41.091  1.00  0.00    -0.062 NA
HETATM   31  N13 UNL     1      -8.213  33.358 -42.078  1.00  0.00    -0.301 N 
ATOM     32  H13 UNL     1      -7.688  33.357 -41.203  1.00  0.00     0.171 HD
ENDBRANCH  21  24
ENDBRANCH  19  21
ENDBRANCH  11  19
ENDBRANCH   9  10
ENDBRANCH   1   9
BRANCH   8  33
HETATM   33  C13 UNL     1      -4.082  38.743 -47.726  1.00  0.00     0.220 C 
HETATM   34  O9  UNL     1      -2.945  39.223 -47.723  1.00  0.00    -0.644 OA
HETATM   35  O10 UNL     1      -4.249  37.678 -48.637  1.00  0.00    -0.644 OA
ENDBRANCH   8  33
BRANCH   4  36
HETATM   36  C5  UNL     1      -8.649  40.539 -44.845  1.00  0.00     0.202 A 
HETATM   37  N5  UNL     1      -9.634  39.725 -44.431  1.00  0.00    -0.319 N 
HETATM   38  C6  UNL     1     -10.717  40.133 -43.785  1.00  0.00     0.108 A 
ATOM     39  H5  UNL     1      -9.542  38.729 -44.626  1.00  0.00     0.169 HD
HETATM   40  N6  UNL     1     -11.662  39.355 -43.388  1.00  0.00    -0.328 N 
HETATM   41  C8  UNL     1     -10.839  41.482 -43.521  1.00  0.00     0.086 A 
ATOM     42  H6  UNL     1     -11.570  38.359 -43.584  1.00  0.00     0.165 HD
HETATM   43  C9  UNL     1      -9.810  42.317 -43.956  1.00  0.00     0.113 A 
HETATM   44  O6  UNL     1      -8.759  41.812 -44.599  1.00  0.00    -0.289 OA
BRANCH  40  45
HETATM   45  C7  UNL     1     -12.830  39.789 -42.692  1.00  0.00     0.425 C 
BRANCH  45  46
HETATM   46  N7  UNL     1     -12.952  39.087 -41.444  1.00  0.00    -0.035 N 
ATOM     47  H73 UNL     1     -13.857  39.249 -41.002  1.00  0.00     0.279 HD
ATOM     48  H72 UNL     1     -13.030  38.079 -41.579  1.00  0.00     0.279 HD
ATOM     49  H71 UNL     1     -12.177  39.330 -40.828  1.00  0.00     0.279 HD
ENDBRANCH  45  46
BRANCH  45  50
HETATM   50  O3  UNL     1     -13.946  39.443 -43.476  1.00  0.00    -0.355 OA
ATOM     51  H3  UNL     1     -14.641  40.058 -43.274  1.00  0.00     0.213 HD
ENDBRANCH  45  50
ENDBRANCH  40  45
BRANCH  43  52
HETATM   52  C10 UNL     1      -9.946  43.755 -43.673  1.00  0.00     0.312 C 
BRANCH  52  53
HETATM   53  O4  UNL     1      -8.871  44.487 -44.165  1.00  0.00    -0.365 OA
ATOM     54  H4  UNL     1      -9.087  45.405 -44.278  1.00  0.00     0.213 HD
ENDBRANCH  52  53
BRANCH  52  55
HETATM   55  O5  UNL     1     -11.099  44.302 -44.220  1.00  0.00    -0.365 OA
ATOM     56  H5  UNL     1     -11.830  43.695 -44.214  1.00  0.00     0.213 HD
ENDBRANCH  52  55
ENDBRANCH  43  52
ENDBRANCH   4  36
TORSDOF 16
ENDMDL
MODEL 2
REMARK VINA RESULT: -9.203041783      2.739      7.636
REMARK  16 active torsions:
REMARK  status: ('A' for Active; 'I' for Inactive)
REMARK    1  A    between atoms: C2_2  and  N2_7 
REMARK    2  A    between atoms: N1_3  and  O1_5 
REMARK    3  A    between atoms: N2_7  and  N8_43 
REMARK    4  A    between atoms: N3_8  and  O2_10 
REMARK    5  A    between atoms: O2_10  and  C3_11 
REMARK    6  A    between atoms: C4_14  and  C5_15 
REMARK    7  A    between atoms: N6_19  and  C7_21 
REMARK    8  A    between atoms: C7_21  and  N7_22 
REMARK    9  A    between atoms: C7_21  and  O3_26 
REMARK   10  A    between atoms: C9_29  and  C10_30 
REMARK   11  A    between atoms: C10_30  and  O4_31 
REMARK   12  A    between atoms: C10_30  and  O5_33 
REMARK   13  A    between atoms: C12_39  and  C13_40 
REMARK   14  A    between atoms: N8_43  and  N9_45 
REMARK   15  A    between atoms: N9_45  and  O11_46 
REMARK   16  A    between atoms: N9_45  and  C14_48 
ROOT
HETATM    1  C3  UNL     1      -6.873  36.059 -44.976  1.00  0.00     0.197 A 
HETATM    2  N4  UNL     1      -7.734  35.149 -44.370  1.00  0.00    -0.311 N 
ATOM      3  H4  UNL     1      -8.098  35.386 -43.446  1.00  0.00     0.170 HD
HETATM    4  C4  UNL     1      -8.114  34.004 -44.901  1.00  0.00     0.205 A 
HETATM    5  O7  UNL     1      -7.640  33.714 -46.087  1.00  0.00    -0.253 OA
HETATM    6  C11 UNL     1      -6.829  34.501 -46.735  1.00  0.00     0.311 A 
HETATM    7  O8  UNL     1      -6.395  34.171 -47.889  1.00  0.00    -0.258 OA
HETATM    8  C12 UNL     1      -6.385  35.730 -46.231  1.00  0.00     0.169 A 
ENDROOT
BRANCH   1   9
HETATM    9  O2  UNL     1      -6.576  37.169 -44.331  1.00  0.00    -0.201 OA
BRANCH   9  10
HETATM   10  N3  UNL     1      -6.904  38.251 -43.797  1.00  0.00    -0.176 N 
HETATM   11  N2  UNL     1      -7.179  39.402 -44.220  1.00  0.00    -0.150 N 
ATOM     12  H3  UNL     1      -6.962  38.183 -42.781  1.00  0.00     0.218 HD
BRANCH  11  13
HETATM   13  C2  UNL     1      -7.146  39.668 -45.605  1.00  0.00     0.140 C 
HETATM   14  C1  UNL     1      -6.039  40.454 -46.226  1.00  0.00     0.095 C 
HETATM   15  N1  UNL     1      -8.111  39.208 -46.334  1.00  0.00    -0.254 N 
ATOM     16  H1  UNL     1      -8.103  39.391 -47.338  1.00  0.00     0.195 HD
BRANCH  15  17
HETATM   17  O1  UNL     1      -9.142  38.484 -45.798  1.00  0.00    -0.288 OA
ATOM     18  H1  UNL     1     -10.025  38.531 -46.147  1.00  0.00     0.244 HD
ENDBRANCH  15  17
ENDBRANCH  11  13
BRANCH  11  19
HETATM   19  N8  UNL     1      -7.513  40.402 -43.319  1.00  0.00    -0.207 N 
ATOM     20  H8  UNL     1      -7.026  40.433 -42.423  1.00  0.00     0.207 HD
BRANCH  19  21
HETATM   21  N9  UNL     1      -8.486  41.368 -43.583  1.00  0.00    -0.018 NA
BRANCH  21  22
HETATM   22  O11 UNL     1      -8.245  42.519 -42.902  1.00  0.00    -0.286 OA
ATOM     23  H11 UNL     1      -8.015  43.231 -43.489  1.00  0.00     0.239 HD
ENDBRANCH  21  22
BRANCH  21  24
HETATM   24  C14 UNL     1      -9.739  40.837 -43.175  1.00  0.00     0.223 A 
HETATM   25  N10 UNL     1     -10.166  40.810 -41.901  1.00  0.00    -0.270 N 
HETATM   26  N11 UNL     1     -11.345  40.259 -41.879  1.00  0.00    -0.271 N 
ATOM     27  H10 UNL     1      -9.655  41.161 -41.091  1.00  0.00     0.189 HD
HETATM   28  C15 UNL     1     -11.706  39.920 -43.126  1.00  0.00     0.209 A 
ATOM     29  H11 UNL     1     -11.909  40.109 -41.042  1.00  0.00     0.189 HD
HETATM   30  N12 UNL     1     -12.886  39.302 -43.595  1.00  0.00    -0.062 NA
HETATM   31  N13 UNL     1     -10.687  40.290 -43.923  1.00  0.00    -0.301 N 
ATOM     32  H13 UNL     1     -10.650  40.170 -44.935  1.00  0.00     0.171 HD
ENDBRANCH  21  24
ENDBRANCH  19  21
ENDBRANCH  11  19
ENDBRANCH   9  10
ENDBRANCH   1   9
BRANCH   8  33
HETATM   33  C13 UNL     1      -5.484  36.549 -47.011  1.00  0.00     0.220 C 
HETATM   34  O9  UNL     1      -4.254  36.636 -46.957  1.00  0.00    -0.644 OA
HETATM   35  O10 UNL     1      -6.073  37.384 -47.986  1.00  0.00    -0.644 OA
ENDBRANCH   8  33
BRANCH   4  36
HETATM   36  C5  UNL     1      -9.024  33.067 -44.233  1.00  0.00     0.202 A 
HETATM   37  N5  UNL     1      -8.934  32.816 -42.916  1.00  0.00    -0.319 N 
HETATM   38  C6  UNL     1      -9.727  31.982 -42.259  1.00  0.00     0.108 A 
ATOM     39  H5  UNL     1      -8.207  33.298 -42.388  1.00  0.00     0.169 HD
HETATM   40  N6  UNL     1      -9.641  31.739 -40.999  1.00  0.00    -0.328 N 
HETATM   41  C8  UNL     1     -10.710  31.330 -42.976  1.00  0.00     0.086 A 
ATOM     42  H6  UNL     1      -8.913  32.220 -40.472  1.00  0.00     0.165 HD
HETATM   43  C9  UNL     1     -10.795  31.600 -44.342  1.00  0.00     0.113 A 
HETATM   44  O6  UNL     1      -9.950  32.456 -44.913  1.00  0.00    -0.289 OA
BRANCH  40  45
HETATM   45  C7  UNL     1     -10.493  30.842 -40.286  1.00  0.00     0.425 C 
BRANCH  45  46
HETATM   46  N7  UNL     1     -10.858  31.410 -39.018  1.00  0.00    -0.035 N 
ATOM     47  H73 UNL     1     -10.253  31.082 -38.265  1.00  0.00     0.279 HD
ATOM     48  H72 UNL     1     -10.636  32.404 -38.966  1.00  0.00     0.279 HD
ATOM     49  H71 UNL     1     -11.842  31.229 -38.823  1.00  0.00     0.279 HD
ENDBRANCH  45  46
BRANCH  45  50
HETATM   50  O3  UNL     1      -9.756  29.673 -40.024  1.00  0.00    -0.355 OA
ATOM     51  H3  UNL     1     -10.375  28.982 -39.822  1.00  0.00     0.213 HD
ENDBRANCH  45  50
ENDBRANCH  40  45
BRANCH  43  52
HETATM   52  C10 UNL     1     -11.845  30.901 -45.101  1.00  0.00     0.312 C 
BRANCH  52  53
HETATM   53  O4  UNL     1     -12.965  30.638 -44.319  1.00  0.00    -0.365 OA
ATOM     54  H4  UNL     1     -13.773  30.751 -44.806  1.00  0.00     0.213 HD
ENDBRANCH  52  53
BRANCH  52  55
HETATM   55  O5  UNL     1     -12.277  31.624 -46.206  1.00  0.00    -0.365 OA
ATOM     56  H5  UNL     1     -13.222  31.622 -46.298  1.00  0.00     0.213 HD
ENDBRANCH  52  55
ENDBRANCH  43  52
ENDBRANCH   4  36
TORSDOF 16
ENDMDL
MODEL 3
REMARK VINA RESULT: -9.097411155      2.703      7.757
REMARK  16 active torsions:
REMARK  status: ('A' for Active; 'I' for Inactive)
REMARK    1  A    between atoms: C2_2  and  N2_7 
REMARK    2  A    between atoms: N1_3  and  O1_5 
REMARK    3  A    between atoms: N2_7  and  N8_43 
REMARK    4  A    between atoms: N3_8  and  O2_10 
REMARK    5  A    between atoms: O2_10  and  C3_11 
REMARK    6  A    between atoms: C4_14  and  C5_15 
REMARK    7  A    between atoms: N6_19  and  C7_21 
REMARK    8  A    between atoms: C7_21  and  N7_22 
REMARK    9  A    between atoms: C7_21  and  O3_26 
REMARK   10  A    between atoms: C9_29  and  C10_30 
REMARK   11  A    between atoms: C10_30  and  O4_31 
REMARK   12  A    between atoms: C10_30  and  O5_33 
REMARK   13  A    between atoms: C12_39  and  C13_40 
REMARK   14  A    between atoms: N8_43  and  N9_45 
REMARK   15  A    between atoms: N9_45  and  O11_46 
REMARK   16  A    between atoms: N9_45  and  C14_48 
ROOT
HETATM    1  C3  UNL     1      -6.829  36.154 -45.062  1.00  0.00     0.197 A 
HETATM    2  N4  UNL     1      -7.639  35.196 -44.457  1.00  0.00    -0.311 N 
ATOM      3  H4  UNL     1      -7.977  35.390 -43.514  1.00  0.00     0.170 HD
HETATM    4  C4  UNL     1      -8.001  34.057 -45.014  1.00  0.00     0.205 A 
HETATM    5  O7  UNL     1      -7.561  33.822 -46.225  1.00  0.00    -0.253 OA
HETATM    6  C11 UNL     1      -6.798  34.657 -46.872  1.00  0.00     0.311 A 
HETATM    7  O8  UNL     1      -6.395  34.379 -48.052  1.00  0.00    -0.258 OA
HETATM    8  C12 UNL     1      -6.376  35.882 -46.343  1.00  0.00     0.169 A 
ENDROOT
BRANCH   1   9
HETATM    9  O2  UNL     1      -6.545  37.250 -44.389  1.00  0.00    -0.201 OA
BRANCH   9  10
HETATM   10  N3  UNL     1      -6.886  38.312 -43.824  1.00  0.00    -0.176 N 
HETATM   11  N2  UNL     1      -7.309  39.429 -44.214  1.00  0.00    -0.150 N 
ATOM     12  H3  UNL     1      -6.800  38.259 -42.809  1.00  0.00     0.218 HD
BRANCH  11  13
HETATM   13  C2  UNL     1      -7.484  39.671 -45.593  1.00  0.00     0.140 C 
HETATM   14  C1  UNL     1      -8.759  39.334 -46.293  1.00  0.00     0.095 C 
HETATM   15  N1  UNL     1      -6.500  40.201 -46.245  1.00  0.00    -0.254 N 
ATOM     16  H1  UNL     1      -6.608  40.384 -47.243  1.00  0.00     0.195 HD
BRANCH  15  17
HETATM   17  O1  UNL     1      -5.316  40.523 -45.635  1.00  0.00    -0.288 OA
ATOM     18  H1  UNL     1      -4.581  39.922 -45.615  1.00  0.00     0.244 HD
ENDBRANCH  15  17
ENDBRANCH  11  13
BRANCH  11  19
HETATM   19  N8  UNL     1      -7.600  40.416 -43.284  1.00  0.00    -0.207 N 
ATOM     20  H8  UNL     1      -7.040  40.462 -42.432  1.00  0.00     0.207 HD
BRANCH  19  21
HETATM   21  N9  UNL     1      -8.623  41.349 -43.461  1.00  0.00    -0.018 NA
BRANCH  21  22
HETATM   22  O11 UNL     1      -8.339  42.525 -42.842  1.00  0.00    -0.286 OA
ATOM     23  H11 UNL     1      -8.672  43.268 -43.334  1.00  0.00     0.239 HD
ENDBRANCH  21  22
BRANCH  21  24
HETATM   24  C14 UNL     1      -9.806  40.798 -42.900  1.00  0.00     0.223 A 
HETATM   25  N10 UNL     1      -9.947  40.482 -41.601  1.00  0.00    -0.270 N 
HETATM   26  N11 UNL     1     -11.144  40.003 -41.427  1.00  0.00    -0.271 N 
ATOM     27  H10 UNL     1      -9.237  40.598 -40.878  1.00  0.00     0.189 HD
HETATM   28  C15 UNL     1     -11.802  39.998 -42.597  1.00  0.00     0.209 A 
ATOM     29  H11 UNL     1     -11.526  39.681 -40.537  1.00  0.00     0.189 HD
HETATM   30  N12 UNL     1     -13.114  39.574 -42.901  1.00  0.00    -0.062 NA
HETATM   31  N13 UNL     1     -10.946  40.500 -43.506  1.00  0.00    -0.301 N 
ATOM     32  H13 UNL     1     -11.143  40.629 -44.499  1.00  0.00     0.171 HD
ENDBRANCH  21  24
ENDBRANCH  19  21
ENDBRANCH  11  19
ENDBRANCH   9  10
ENDBRANCH   1   9
BRANCH   8  33
HETATM   33  C13 UNL     1      -5.528  36.756 -47.125  1.00  0.00     0.220 C 
HETATM   34  O9  UNL     1      -4.297  36.832 -47.161  1.00  0.00    -0.644 OA
HETATM   35  O10 UNL     1      -6.182  37.668 -47.982  1.00  0.00    -0.644 OA
ENDBRANCH   8  33
BRANCH   4  36
HETATM   36  C5  UNL     1      -8.857  33.070 -44.347  1.00  0.00     0.202 A 
HETATM   37  N5  UNL     1      -8.809  32.879 -43.019  1.00  0.00    -0.319 N 
HETATM   38  C6  UNL     1      -9.557  32.004 -42.363  1.00  0.00     0.108 A 
ATOM     39  H5  UNL     1      -8.154  33.444 -42.480  1.00  0.00     0.169 HD
HETATM   40  N6  UNL     1      -9.512  31.819 -41.090  1.00  0.00    -0.328 N 
HETATM   41  C8  UNL     1     -10.444  31.239 -43.094  1.00  0.00     0.086 A 
ATOM     42  H6  UNL     1      -8.856  32.384 -40.552  1.00  0.00     0.165 HD
HETATM   43  C9  UNL     1     -10.486  31.447 -44.472  1.00  0.00     0.113 A 
HETATM   44  O6  UNL     1      -9.692  32.352 -45.042  1.00  0.00    -0.289 OA
BRANCH  40  45
HETATM   45  C7  UNL     1     -10.315  30.878 -40.378  1.00  0.00     0.425 C 
BRANCH  45  46
HETATM   46  N7  UNL     1     -10.743  31.439 -39.127  1.00  0.00    -0.035 N 
ATOM     47  H73 UNL     1      -9.963  31.830 -38.598  1.00  0.00     0.279 HD
ATOM     48  H72 UNL     1     -11.279  32.298 -39.257  1.00  0.00     0.279 HD
ATOM     49  H71 UNL     1     -11.260  30.745 -38.589  1.00  0.00     0.279 HD
ENDBRANCH  45  46
BRANCH  45  50
HETATM   50  O3  UNL     1      -9.507  29.765 -40.083  1.00  0.00    -0.355 OA
ATOM     51  H3  UNL     1      -9.706  29.088 -40.718  1.00  0.00     0.213 HD
ENDBRANCH  45  50
ENDBRANCH  40  45
BRANCH  43  52
HETATM   52  C10 UNL     1     -11.433  30.628 -45.247  1.00  0.00     0.312 C 
BRANCH  52  53
HETATM   53  O4  UNL     1     -11.482  31.012 -46.583  1.00  0.00    -0.365 OA
ATOM     54  H4  UNL     1     -10.957  30.445 -47.135  1.00  0.00     0.213 HD
ENDBRANCH  52  53
BRANCH  52  55
HETATM   55  O5  UNL     1     -11.118  29.276 -45.220  1.00  0.00    -0.365 OA
ATOM     56  H5  UNL     1     -11.132  28.914 -44.341  1.00  0.00     0.213 HD
ENDBRANCH  52  55
ENDBRANCH  43  52
ENDBRANCH   4  36
TORSDOF 16
ENDMDL
MODEL 4
REMARK VINA RESULT: -9.094688284      3.023      7.300
REMARK  16 active torsions:
REMARK  status: ('A' for Active; 'I' for Inactive)
REMARK    1  A    between atoms: C2_2  and  N2_7 
REMARK    2  A    between atoms: N1_3  and  O1_5 
REMARK    3  A    between atoms: N2_7  and  N8_43 
REMARK    4  A    between atoms: N3_8  and  O2_10 
REMARK    5  A    between atoms: O2_10  and  C3_11 
REMARK    6  A    between atoms: C4_14  and  C5_15 
REMARK    7  A    between atoms: N6_19  and  C7_21 
REMARK    8  A    between atoms: C7_21  and  N7_22 
REMARK    9  A    between atoms: C7_21  and  O3_26 
REMARK   10  A    between atoms: C9_29  and  C10_30 
REMARK   11  A    between atoms: C10_30  and  O4_31 
REMARK   12  A    between atoms: C10_30  and  O5_33 
REMARK   13  A    between atoms: C12_39  and  C13_40 
REMARK   14  A    between atoms: N8_43  and  N9_45 
REMARK   15  A    between atoms: N9_45  and  O11_46 
REMARK   16  A    between atoms: N9_45  and  C14_48 
ROOT
HETATM    1  C3  UNL     1      -5.522  39.160 -46.954  1.00  0.00     0.197 A 
HETATM    2  N4  UNL     1      -5.965  37.872 -46.668  1.00  0.00    -0.311 N 
ATOM      3  H4  UNL     1      -6.752  37.775 -46.025  1.00  0.00     0.170 HD
HETATM    4  C4  UNL     1      -5.443  36.768 -47.166  1.00  0.00     0.205 A 
HETATM    5  O7  UNL     1      -4.435  36.908 -47.990  1.00  0.00    -0.253 OA
HETATM    6  C11 UNL     1      -3.950  38.071 -48.320  1.00  0.00     0.311 A 
HETATM    7  O8  UNL     1      -2.964  38.153 -49.128  1.00  0.00    -0.258 OA
HETATM    8  C12 UNL     1      -4.454  39.282 -47.829  1.00  0.00     0.169 A 
ENDROOT
BRANCH   1   9
HETATM    9  O2  UNL     1      -6.136  40.177 -46.385  1.00  0.00    -0.201 OA
BRANCH   9  10
HETATM   10  N3  UNL     1      -6.893  40.654 -45.512  1.00  0.00    -0.176 N 
HETATM   11  N2  UNL     1      -8.136  40.802 -45.399  1.00  0.00    -0.150 N 
ATOM     12  H3  UNL     1      -6.382  41.004 -44.701  1.00  0.00     0.218 HD
BRANCH  11  13
HETATM   13  C2  UNL     1      -8.992  40.371 -46.434  1.00  0.00     0.140 C 
HETATM   14  C1  UNL     1      -9.485  41.309 -47.486  1.00  0.00     0.095 C 
HETATM   15  N1  UNL     1      -9.343  39.125 -46.450  1.00  0.00    -0.254 N 
ATOM     16  H1  UNL     1      -9.962  38.795 -47.192  1.00  0.00     0.195 HD
BRANCH  15  17
HETATM   17  O1  UNL     1      -8.910  38.237 -45.503  1.00  0.00    -0.288 OA
ATOM     18  H1  UNL     1      -9.395  37.447 -45.295  1.00  0.00     0.244 HD
ENDBRANCH  15  17
ENDBRANCH  11  13
BRANCH  11  19
HETATM   19  N8  UNL     1      -8.656  41.390 -44.255  1.00  0.00    -0.207 N 
ATOM     20  H8  UNL     1      -9.059  42.324 -44.328  1.00  0.00     0.207 HD
BRANCH  19  21
HETATM   21  N9  UNL     1      -8.652  40.761 -43.008  1.00  0.00    -0.018 NA
BRANCH  21  22
HETATM   22  O11 UNL     1      -7.881  39.642 -43.015  1.00  0.00    -0.286 OA
ATOM     23  H11 UNL     1      -8.206  38.997 -43.634  1.00  0.00     0.239 HD
ENDBRANCH  21  22
BRANCH  21  24
HETATM   24  C14 UNL     1      -9.993  40.404 -42.705  1.00  0.00     0.223 A 
HETATM   25  N10 UNL     1     -10.520  40.439 -41.470  1.00  0.00    -0.270 N 
HETATM   26  N11 UNL     1     -11.761  40.052 -41.546  1.00  0.00    -0.271 N 
ATOM     27  H10 UNL     1     -10.033  40.720 -40.619  1.00  0.00     0.189 HD
HETATM   28  C15 UNL     1     -12.064  39.761 -42.821  1.00  0.00     0.209 A 
ATOM     29  H11 UNL     1     -12.405  39.982 -40.758  1.00  0.00     0.189 HD
HETATM   30  N12 UNL     1     -13.275  39.307 -43.387  1.00  0.00    -0.062 NA
HETATM   31  N13 UNL     1     -10.944  39.989 -43.531  1.00  0.00    -0.301 N 
ATOM     32  H13 UNL     1     -10.843  39.862 -44.538  1.00  0.00     0.171 HD
ENDBRANCH  21  24
ENDBRANCH  19  21
ENDBRANCH  11  19
ENDBRANCH   9  10
ENDBRANCH   1   9
BRANCH   8  33
HETATM   33  C13 UNL     1      -3.860  40.535 -48.243  1.00  0.00     0.220 C 
HETATM   34  O9  UNL     1      -4.216  41.320 -49.125  1.00  0.00    -0.644 OA
HETATM   35  O10 UNL     1      -2.698  40.941 -47.551  1.00  0.00    -0.644 OA
ENDBRANCH   8  33
BRANCH   4  36
HETATM   36  C5  UNL     1      -5.936  35.425 -46.842  1.00  0.00     0.202 A 
HETATM   37  N5  UNL     1      -6.257  34.542 -47.802  1.00  0.00    -0.319 N 
HETATM   38  C6  UNL     1      -6.706  33.318 -47.570  1.00  0.00     0.108 A 
ATOM     39  H5  UNL     1      -6.149  34.834 -48.773  1.00  0.00     0.169 HD
HETATM   40  N6  UNL     1      -7.016  32.471 -48.488  1.00  0.00    -0.328 N 
HETATM   41  C8  UNL     1      -6.853  32.924 -46.255  1.00  0.00     0.086 A 
ATOM     42  H6  UNL     1      -6.908  32.764 -49.458  1.00  0.00     0.165 HD
HETATM   43  C9  UNL     1      -6.516  33.849 -45.267  1.00  0.00     0.113 A 
HETATM   44  O6  UNL     1      -6.072  35.060 -45.600  1.00  0.00    -0.289 OA
BRANCH  40  45
HETATM   45  C7  UNL     1      -7.499  31.150 -48.244  1.00  0.00     0.425 C 
BRANCH  45  46
HETATM   46  N7  UNL     1      -6.803  30.207 -49.074  1.00  0.00    -0.035 N 
ATOM     47  H73 UNL     1      -7.433  29.726 -49.716  1.00  0.00     0.279 HD
ATOM     48  H72 UNL     1      -6.212  30.670 -49.764  1.00  0.00     0.279 HD
ATOM     49  H71 UNL     1      -6.274  29.554 -48.496  1.00  0.00     0.279 HD
ENDBRANCH  45  46
BRANCH  45  50
HETATM   50  O3  UNL     1      -8.855  31.117 -48.620  1.00  0.00    -0.355 OA
ATOM     51  H3  UNL     1      -8.959  30.423 -49.259  1.00  0.00     0.213 HD
ENDBRANCH  45  50
ENDBRANCH  40  45
BRANCH  43  52
HETATM   52  C10 UNL     1      -6.674  33.424 -43.866  1.00  0.00     0.312 C 
BRANCH  52  53
HETATM   53  O4  UNL     1      -5.588  32.678 -43.422  1.00  0.00    -0.365 OA
ATOM     54  H4  UNL     1      -5.228  33.021 -42.612  1.00  0.00     0.213 HD
ENDBRANCH  52  53
BRANCH  52  55
HETATM   55  O5  UNL     1      -6.819  34.496 -42.995  1.00  0.00    -0.365 OA
ATOM     56  H5  UNL     1      -6.183  34.484 -42.290  1.00  0.00     0.213 HD
ENDBRANCH  52  55
ENDBRANCH  43  52
ENDBRANCH   4  36
TORSDOF 16
ENDMDL
MODEL 5
REMARK VINA RESULT: -9.066553634      3.462      6.849
REMARK  16 active torsions:
REMARK  status: ('A' for Active; 'I' for Inactive)
REMARK    1  A    between atoms: C2_2  and  N2_7 
REMARK    2  A    between atoms: N1_3  and  O1_5 
REMARK    3  A    between atoms: N2_7  and  N8_43 
REMARK    4  A    between atoms: N3_8  and  O2_10 
REMARK    5  A    between atoms: O2_10  and  C3_11 
REMARK    6  A    between atoms: C4_14  and  C5_15 
REMARK    7  A    between atoms: N6_19  and  C7_21 
REMARK    8  A    between atoms: C7_21  and  N7_22 
REMARK    9  A    between atoms: C7_21  and  O3_26 
REMARK   10  A    between atoms: C9_29  and  C10_30 
REMARK   11  A    between atoms: C10_30  and  O4_31 
REMARK   12  A    between atoms: C10_30  and  O5_33 
REMARK   13  A    between atoms: C12_39  and  C13_40 
REMARK   14  A    between atoms: N8_43  and  N9_45 
REMARK   15  A    between atoms: N9_45  and  O11_46 
REMARK   16  A    between atoms: N9_45  and  C14_48 
ROOT
HETATM    1  C3  UNL     1      -9.563  38.757 -45.945  1.00  0.00     0.197 A 
HETATM    2  N4  UNL     1     -10.607  38.045 -45.362  1.00  0.00    -0.311 N 
ATOM      3  H4  UNL     1     -10.606  37.031 -45.469  1.00  0.00     0.170 HD
HETATM    4  C4  UNL     1     -11.599  38.586 -44.681  1.00  0.00     0.205 A 
HETATM    5  O7  UNL     1     -11.587  39.889 -44.551  1.00  0.00    -0.253 OA
HETATM    6  C11 UNL     1     -10.653  40.641 -45.061  1.00  0.00     0.311 A 
HETATM    7  O8  UNL     1     -10.690  41.909 -44.906  1.00  0.00    -0.258 OA
HETATM    8  C12 UNL     1      -9.573  40.135 -45.794  1.00  0.00     0.169 A 
ENDROOT
BRANCH   1   9
HETATM    9  O2  UNL     1      -8.635  38.088 -46.600  1.00  0.00    -0.201 OA
BRANCH   9  10
HETATM   10  N3  UNL     1      -7.471  37.968 -47.038  1.00  0.00    -0.176 N 
HETATM   11  N2  UNL     1      -6.421  37.410 -46.630  1.00  0.00    -0.150 N 
ATOM     12  H3  UNL     1      -7.342  38.432 -47.938  1.00  0.00     0.218 HD
BRANCH  11  13
HETATM   13  C2  UNL     1      -6.424  36.723 -45.398  1.00  0.00     0.140 C 
HETATM   14  C1  UNL     1      -6.655  35.250 -45.321  1.00  0.00     0.095 C 
HETATM   15  N1  UNL     1      -6.219  37.411 -44.320  1.00  0.00    -0.254 N 
ATOM     16  H1  UNL     1      -6.218  36.931 -43.420  1.00  0.00     0.195 HD
BRANCH  15  17
HETATM   17  O1  UNL     1      -6.005  38.763 -44.352  1.00  0.00    -0.288 OA
ATOM     18  H1  UNL     1      -6.337  39.341 -43.676  1.00  0.00     0.244 HD
ENDBRANCH  15  17
ENDBRANCH  11  13
BRANCH  11  19
HETATM   19  N8  UNL     1      -5.267  37.477 -47.395  1.00  0.00    -0.207 N 
ATOM     20  H8  UNL     1      -5.214  36.918 -48.247  1.00  0.00     0.207 HD
BRANCH  19  21
HETATM   21  N9  UNL     1      -4.172  38.274 -47.053  1.00  0.00    -0.018 NA
BRANCH  21  22
HETATM   22  O11 UNL     1      -4.566  39.455 -46.508  1.00  0.00    -0.286 OA
ATOM     23  H11 UNL     1      -3.919  40.137 -46.649  1.00  0.00     0.239 HD
ENDBRANCH  21  22
BRANCH  21  24
HETATM   24  C14 UNL     1      -3.439  38.527 -48.242  1.00  0.00     0.223 A 
HETATM   25  N10 UNL     1      -3.828  39.388 -49.197  1.00  0.00    -0.270 N 
HETATM   26  N11 UNL     1      -2.933  39.379 -50.142  1.00  0.00    -0.271 N 
ATOM     27  H10 UNL     1      -4.678  39.952 -49.184  1.00  0.00     0.189 HD
HETATM   28  C15 UNL     1      -1.952  38.520 -49.824  1.00  0.00     0.209 A 
ATOM     29  H11 UNL     1      -2.970  39.939 -50.994  1.00  0.00     0.189 HD
HETATM   30  N12 UNL     1      -0.779  38.176 -50.532  1.00  0.00    -0.062 NA
HETATM   31  N13 UNL     1      -2.287  37.997 -48.631  1.00  0.00    -0.301 N 
ATOM     32  H13 UNL     1      -1.745  37.307 -48.111  1.00  0.00     0.171 HD
ENDBRANCH  21  24
ENDBRANCH  19  21
ENDBRANCH  11  19
ENDBRANCH   9  10
ENDBRANCH   1   9
BRANCH   8  33
HETATM   33  C13 UNL     1      -8.574  41.035 -46.329  1.00  0.00     0.220 C 
HETATM   34  O9  UNL     1      -8.698  41.948 -47.150  1.00  0.00    -0.644 OA
HETATM   35  O10 UNL     1      -7.254  40.864 -45.859  1.00  0.00    -0.644 OA
ENDBRANCH   8  33
BRANCH   4  36
HETATM   36  C5  UNL     1     -12.684  37.805 -44.079  1.00  0.00     0.202 A 
HETATM   37  N5  UNL     1     -13.850  38.373 -43.729  1.00  0.00    -0.319 N 
HETATM   38  C6  UNL     1     -14.865  37.718 -43.183  1.00  0.00     0.108 A 
ATOM     39  H5  UNL     1     -13.961  39.373 -43.895  1.00  0.00     0.169 HD
HETATM   40  N6  UNL     1     -15.982  38.261 -42.846  1.00  0.00    -0.328 N 
HETATM   41  C8  UNL     1     -14.712  36.365 -42.960  1.00  0.00     0.086 A 
ATOM     42  H6  UNL     1     -16.092  39.261 -43.011  1.00  0.00     0.165 HD
HETATM   43  C9  UNL     1     -13.497  35.786 -43.327  1.00  0.00     0.113 A 
HETATM   44  O6  UNL     1     -12.535  36.529 -43.871  1.00  0.00    -0.289 OA
BRANCH  40  45
HETATM   45  C7  UNL     1     -17.078  37.561 -42.257  1.00  0.00     0.425 C 
BRANCH  45  46
HETATM   46  N7  UNL     1     -18.145  37.423 -43.209  1.00  0.00    -0.035 N 
ATOM     47  H73 UNL     1     -18.783  38.218 -43.185  1.00  0.00     0.279 HD
ATOM     48  H72 UNL     1     -17.816  37.525 -44.169  1.00  0.00     0.279 HD
ATOM     49  H71 UNL     1     -18.632  36.539 -43.065  1.00  0.00     0.279 HD
ENDBRANCH  45  46
BRANCH  45  50
HETATM   50  O3  UNL     1     -17.564  38.346 -41.196  1.00  0.00    -0.355 OA
ATOM     51  H3  UNL     1     -17.429  37.858 -40.392  1.00  0.00     0.213 HD
ENDBRANCH  45  50
ENDBRANCH  40  45
BRANCH  43  52
HETATM   52  C10 UNL     1     -13.340  34.343 -43.087  1.00  0.00     0.312 C 
BRANCH  52  53
HETATM   53  O4  UNL     1     -13.167  33.633 -44.270  1.00  0.00    -0.365 OA
ATOM     54  H4  UNL     1     -13.025  34.209 -45.012  1.00  0.00     0.213 HD
ENDBRANCH  52  53
BRANCH  52  55
HETATM   55  O5  UNL     1     -12.255  34.052 -42.271  1.00  0.00    -0.365 OA
ATOM     56  H5  UNL     1     -11.542  33.637 -42.744  1.00  0.00     0.213 HD
ENDBRANCH  52  55
ENDBRANCH  43  52
ENDBRANCH   4  36
TORSDOF 16
ENDMDL
