MODEL 1
REMARK VINA RESULT: -9.359886548      0.000      0.000
REMARK  16 active torsions:
REMARK  status: ('A' for Active; 'I' for Inactive)
REMARK    1  A    between atoms: O1_2  and  C2_3 
REMARK    2  A    between atoms: C2_3  and  C3_5 
REMARK    3  A    between atoms: C3_5  and  C4_6 
REMARK    4  A    between atoms: C6_13  and  N4_14 
REMARK    5  A    between atoms: N4_14  and  C7_15 
REMARK    6  A    between atoms: N4_14  and  C16_34 
REMARK    7  A    between atoms: C7_15  and  C8_16 
REMARK    8  A    between atoms: C8_16  and  N5_17 
REMARK    9  A    between atoms: C8_16  and  C9_21 
REMARK   10  A    between atoms: C9_21  and  C10_22 
REMARK   11  A    between atoms: C11_24  and  C12_25 
REMARK   12  A    between atoms: C12_25  and  O4_26 
REMARK   13  A    between atoms: C15_31  and  O6_32 
REMARK   14  A    between atoms: N9_41  and  C17_42 
REMARK   15  A    between atoms: C18_45  and  N11_46 
REMARK   16  A    between atoms: C19_51  and  N13_52 
ROOT
HETATM    1  N4  UNL     1      -7.106  35.846 -45.515  1.00  0.00    -0.165 N 
ENDROOT
BRANCH   1   2
HETATM    2  C6  UNL     1      -7.600  35.033 -44.395  1.00  0.00     0.410 C 
HETATM    3  N3  UNL     1      -6.479  34.215 -43.998  1.00  0.00    -0.320 N 
HETATM    4  C5  UNL     1      -6.515  32.999 -43.650  1.00  0.00     0.188 C 
ATOM      5  H3  UNL     1      -5.563  34.664 -43.997  1.00  0.00     0.166 HD
HETATM    6  N1  UNL     1      -7.794  32.344 -43.642  1.00  0.00    -0.336 N 
HETATM    7  N2  UNL     1      -5.333  32.273 -43.274  1.00  0.00    -0.064 NA
HETATM    8  C4  UNL     1      -8.938  33.221 -43.723  1.00  0.00     0.300 C 
ATOM      9  H1  UNL     1      -7.887  31.330 -43.582  1.00  0.00     0.164 HD
HETATM   10  N15 UNL     1      -8.767  34.288 -44.698  1.00  0.00    -0.015 N 
ATOM     11 2H15 UNL     1      -8.759  33.935 -45.655  1.00  0.00     0.284 HD
ATOM     12 1H15 UNL     1      -9.594  34.881 -44.767  1.00  0.00     0.284 HD
BRANCH   8  13
HETATM   13  C3  UNL     1      -9.291  33.800 -42.371  1.00  0.00     0.165 C 
BRANCH  13  14
HETATM   14  C2  UNL     1     -10.000  32.806 -41.532  1.00  0.00     0.262 C 
HETATM   15  O2  UNL     1     -11.119  33.076 -41.033  1.00  0.00    -0.265 OA
BRANCH  14  16
HETATM   16  O1  UNL     1      -9.376  31.587 -41.330  1.00  0.00    -0.326 OA
HETATM   17  C1  UNL     1     -10.046  30.539 -40.665  1.00  0.00     0.213 C 
ENDBRANCH  14  16
ENDBRANCH  13  14
ENDBRANCH   8  13
ENDBRANCH   1   2
BRANCH   1  18
HETATM   18  C7  UNL     1      -7.585  35.467 -46.812  1.00  0.00     0.178 C 
BRANCH  18  19
HETATM   19  C8  UNL     1      -6.557  35.267 -47.868  1.00  0.00     0.208 C 
BRANCH  19  20
HETATM   20  N5  UNL     1      -6.828  34.057 -48.600  1.00  0.00    -0.073 N 
ATOM     21  H53 UNL     1      -6.159  33.319 -48.380  1.00  0.00     0.274 HD
ATOM     22  H52 UNL     1      -7.676  33.593 -48.272  1.00  0.00     0.274 HD
ATOM     23  H51 UNL     1      -6.864  34.252 -49.600  1.00  0.00     0.274 HD
ENDBRANCH  19  20
BRANCH  19  24
HETATM   24  C9  UNL     1      -6.729  36.407 -48.859  1.00  0.00     0.102 C 
BRANCH  24  25
HETATM   25  C10 UNL     1      -5.775  37.504 -48.680  1.00  0.00     0.092 A 
HETATM   26  O3  UNL     1      -4.500  37.314 -48.881  1.00  0.00    -0.314 OA
HETATM   27  C11 UNL     1      -3.580  38.229 -48.748  1.00  0.00     0.080 A 
HETATM   28  C13 UNL     1      -3.974  39.493 -48.366  1.00  0.00     0.092 A 
HETATM   29  C14 UNL     1      -5.291  39.759 -48.139  1.00  0.00     0.209 A 
HETATM   30  O5  UNL     1      -5.689  40.908 -47.787  1.00  0.00    -0.285 OA
HETATM   31  C15 UNL     1      -6.218  38.744 -48.299  1.00  0.00     0.146 A 
BRANCH  27  32
HETATM   32  C12 UNL     1      -2.132  37.948 -48.995  1.00  0.00     0.229 C 
BRANCH  32  33
HETATM   33  O4  UNL     1      -1.375  39.051 -48.653  1.00  0.00    -0.394 OA
ATOM     34  H4  UNL     1      -0.600  39.092 -49.199  1.00  0.00     0.209 HD
ENDBRANCH  32  33
ENDBRANCH  27  32
BRANCH  31  35
HETATM   35  O6  UNL     1      -7.586  38.992 -48.070  1.00  0.00    -0.355 OA
ATOM     36  H6  UNL     1      -8.044  38.592 -47.340  1.00  0.00     0.218 HD
ENDBRANCH  31  35
ENDBRANCH  24  25
ENDBRANCH  19  24
ENDBRANCH  18  19
ENDBRANCH   1  18
BRANCH   1  37
HETATM   37  C16 UNL     1      -6.248  36.912 -45.280  1.00  0.00     0.737 A 
HETATM   38  N6  UNL     1      -4.906  36.804 -45.467  1.00  0.00    -0.114 N 
HETATM   39  N7  UNL     1      -4.337  37.947 -45.178  1.00  0.00    -0.212 N 
ATOM     40  H6  UNL     1      -4.420  35.964 -45.783  1.00  0.00     0.207 HD
HETATM   41  N8  UNL     1      -5.285  38.753 -44.819  1.00  0.00    -0.191 N 
ATOM     42  H7  UNL     1      -3.341  38.161 -45.225  1.00  0.00     0.210 HD
HETATM   43  N9  UNL     1      -6.498  38.144 -44.871  1.00  0.00     0.108 N 
ATOM     44  H8  UNL     1      -5.140  39.722 -44.535  1.00  0.00     0.211 HD
BRANCH  43  45
HETATM   45  C17 UNL     1      -7.690  38.846 -44.542  1.00  0.00     0.749 A 
HETATM   46  N10 UNL     1      -8.766  38.785 -45.387  1.00  0.00    -0.019 N 
HETATM   47  C18 UNL     1      -9.919  39.415 -45.133  1.00  0.00     0.705 A 
ATOM     48  H10 UNL     1      -8.686  38.238 -46.244  1.00  0.00     0.203 HD
HETATM   49  N12 UNL     1     -10.075  40.146 -44.021  1.00  0.00    -0.022 N 
HETATM   50  C19 UNL     1      -9.033  40.218 -43.182  1.00  0.00     0.705 A 
ATOM     51  H12 UNL     1     -10.952  40.628 -43.822  1.00  0.00     0.203 HD
HETATM   52  N14 UNL     1      -7.858  39.573 -43.446  1.00  0.00    -0.019 N 
ATOM     53  H14 UNL     1      -7.088  39.652 -42.781  1.00  0.00     0.203 HD
BRANCH  47  54
HETATM   54  N11 UNL     1     -10.913  39.333 -45.948  1.00  0.00    -0.234 N 
ATOM     55 2H11 UNL     1     -11.218  38.405 -46.242  1.00  0.00     0.174 HD
ATOM     56 1H11 UNL     1     -11.380  40.172 -46.293  1.00  0.00     0.174 HD
ENDBRANCH  47  54
BRANCH  50  57
HETATM   57  N13 UNL     1      -9.152  40.911 -42.107  1.00  0.00    -0.234 N 
ATOM     58 2H13 UNL     1      -9.093  41.928 -42.151  1.00  0.00     0.174 HD
ATOM     59 1H13 UNL     1      -9.305  40.424 -41.224  1.00  0.00     0.174 HD
ENDBRANCH  50  57
ENDBRANCH  43  45
ENDBRANCH   1  37
TORSDOF 16
ENDMDL
MODEL 2
REMARK VINA RESULT: -9.259986972      0.659      1.419
REMARK  16 active torsions:
REMARK  status: ('A' for Active; 'I' for Inactive)
REMARK    1  A    between atoms: O1_2  and  C2_3 
REMARK    2  A    between atoms: C2_3  and  C3_5 
REMARK    3  A    between atoms: C3_5  and  C4_6 
REMARK    4  A    between atoms: C6_13  and  N4_14 
REMARK    5  A    between atoms: N4_14  and  C7_15 
REMARK    6  A    between atoms: N4_14  and  C16_34 
REMARK    7  A    between atoms: C7_15  and  C8_16 
REMARK    8  A    between atoms: C8_16  and  N5_17 
REMARK    9  A    between atoms: C8_16  and  C9_21 
REMARK   10  A    between atoms: C9_21  and  C10_22 
REMARK   11  A    between atoms: C11_24  and  C12_25 
REMARK   12  A    between atoms: C12_25  and  O4_26 
REMARK   13  A    between atoms: C15_31  and  O6_32 
REMARK   14  A    between atoms: N9_41  and  C17_42 
REMARK   15  A    between atoms: C18_45  and  N11_46 
REMARK   16  A    between atoms: C19_51  and  N13_52 
ROOT
HETATM    1  N4  UNL     1      -7.516  35.886 -45.800  1.00  0.00    -0.165 N 
ENDROOT
BRANCH   1   2
HETATM    2  C6  UNL     1      -8.159  34.970 -44.848  1.00  0.00     0.410 C 
HETATM    3  N3  UNL     1      -7.303  34.971 -43.685  1.00  0.00    -0.320 N 
HETATM    4  C5  UNL     1      -6.994  33.973 -42.972  1.00  0.00     0.188 C 
ATOM      5  H3  UNL     1      -6.906  35.869 -43.410  1.00  0.00     0.166 HD
HETATM    6  N1  UNL     1      -7.541  32.695 -43.338  1.00  0.00    -0.336 N 
HETATM    7  N2  UNL     1      -6.127  34.083 -41.831  1.00  0.00    -0.064 NA
HETATM    8  C4  UNL     1      -8.631  32.738 -44.284  1.00  0.00     0.300 C 
ATOM      9  H1  UNL     1      -7.185  31.819 -42.956  1.00  0.00     0.164 HD
HETATM   10  N15 UNL     1      -8.402  33.676 -45.372  1.00  0.00    -0.015 N 
ATOM     11 2H15 UNL     1      -7.655  33.367 -45.993  1.00  0.00     0.284 HD
ATOM     12 1H15 UNL     1      -9.166  33.674 -46.048  1.00  0.00     0.284 HD
BRANCH   8  13
HETATM   13  C3  UNL     1      -9.947  33.040 -43.601  1.00  0.00     0.165 C 
BRANCH  13  14
HETATM   14  C2  UNL     1      -9.916  32.636 -42.176  1.00  0.00     0.262 C 
HETATM   15  O2  UNL     1     -10.096  33.483 -41.269  1.00  0.00    -0.265 OA
BRANCH  14  16
HETATM   16  O1  UNL     1      -9.680  31.300 -41.902  1.00  0.00    -0.326 OA
HETATM   17  C1  UNL     1     -10.016  30.755 -40.645  1.00  0.00     0.213 C 
ENDBRANCH  14  16
ENDBRANCH  13  14
ENDBRANCH   8  13
ENDBRANCH   1   2
BRANCH   1  18
HETATM   18  C7  UNL     1      -7.889  35.712 -47.173  1.00  0.00     0.178 C 
BRANCH  18  19
HETATM   19  C8  UNL     1      -6.786  35.436 -48.131  1.00  0.00     0.208 C 
BRANCH  19  20
HETATM   20  N5  UNL     1      -7.088  34.261 -48.909  1.00  0.00    -0.073 N 
ATOM     21  H53 UNL     1      -7.548  33.542 -48.350  1.00  0.00     0.274 HD
ATOM     22  H52 UNL     1      -7.837  34.430 -49.581  1.00  0.00     0.274 HD
ATOM     23  H51 UNL     1      -6.243  33.912 -49.359  1.00  0.00     0.274 HD
ENDBRANCH  19  20
BRANCH  19  24
HETATM   24  C9  UNL     1      -6.767  36.597 -49.113  1.00  0.00     0.102 C 
BRANCH  24  25
HETATM   25  C10 UNL     1      -5.801  37.646 -48.779  1.00  0.00     0.092 A 
HETATM   26  O3  UNL     1      -4.525  37.463 -48.982  1.00  0.00    -0.314 OA
HETATM   27  C11 UNL     1      -3.595  38.338 -48.717  1.00  0.00     0.080 A 
HETATM   28  C13 UNL     1      -3.978  39.549 -48.182  1.00  0.00     0.092 A 
HETATM   29  C14 UNL     1      -5.295  39.805 -47.944  1.00  0.00     0.209 A 
HETATM   30  O5  UNL     1      -5.683  40.906 -47.453  1.00  0.00    -0.285 OA
HETATM   31  C15 UNL     1      -6.233  38.834 -48.248  1.00  0.00     0.146 A 
BRANCH  27  32
HETATM   32  C12 UNL     1      -2.146  38.068 -48.975  1.00  0.00     0.229 C 
BRANCH  32  33
HETATM   33  O4  UNL     1      -1.398  39.187 -48.669  1.00  0.00    -0.394 OA
ATOM     34  H4  UNL     1      -0.596  38.929 -48.232  1.00  0.00     0.209 HD
ENDBRANCH  32  33
ENDBRANCH  27  32
BRANCH  31  35
HETATM   35  O6  UNL     1      -7.601  39.073 -48.011  1.00  0.00    -0.355 OA
ATOM     36  H6  UNL     1      -8.203  39.242 -48.727  1.00  0.00     0.218 HD
ENDBRANCH  31  35
ENDBRANCH  24  25
ENDBRANCH  19  24
ENDBRANCH  18  19
ENDBRANCH   1  18
BRANCH   1  37
HETATM   37  C16 UNL     1      -6.627  36.853 -45.349  1.00  0.00     0.737 A 
HETATM   38  N6  UNL     1      -5.282  36.658 -45.383  1.00  0.00    -0.114 N 
HETATM   39  N7  UNL     1      -4.681  37.719 -44.904  1.00  0.00    -0.212 N 
ATOM     40  H6  UNL     1      -4.816  35.819 -45.726  1.00  0.00     0.207 HD
HETATM   41  N8  UNL     1      -5.612  38.558 -44.578  1.00  0.00    -0.191 N 
ATOM     42  H7  UNL     1      -3.676  37.857 -44.808  1.00  0.00     0.210 HD
HETATM   43  N9  UNL     1      -6.845  38.054 -44.842  1.00  0.00     0.108 N 
ATOM     44  H8  UNL     1      -5.441  39.479 -44.174  1.00  0.00     0.211 HD
BRANCH  43  45
HETATM   45  C17 UNL     1      -8.022  38.812 -44.584  1.00  0.00     0.749 A 
HETATM   46  N10 UNL     1      -8.091  39.592 -43.461  1.00  0.00    -0.019 N 
HETATM   47  C18 UNL     1      -9.164  40.335 -43.165  1.00  0.00     0.705 A 
ATOM     48  H10 UNL     1      -7.293  39.608 -42.825  1.00  0.00     0.203 HD
HETATM   49  N12 UNL     1     -10.236  40.349 -43.967  1.00  0.00    -0.022 N 
HETATM   50  C19 UNL     1     -10.187  39.591 -45.071  1.00  0.00     0.705 A 
ATOM     51  H12 UNL     1     -11.057  40.913 -43.747  1.00  0.00     0.203 HD
HETATM   52  N14 UNL     1      -9.089  38.834 -45.370  1.00  0.00    -0.019 N 
ATOM     53  H14 UNL     1      -9.092  38.272 -46.221  1.00  0.00     0.203 HD
BRANCH  47  54
HETATM   54  N11 UNL     1      -9.194  41.061 -42.101  1.00  0.00    -0.234 N 
ATOM     55 2H11 UNL     1      -8.980  40.614 -41.209  1.00  0.00     0.174 HD
ATOM     56 1H11 UNL     1      -9.427  42.053 -42.148  1.00  0.00     0.174 HD
ENDBRANCH  47  54
BRANCH  50  57
HETATM   57  N13 UNL     1     -11.201  39.584 -45.861  1.00  0.00    -0.234 N 
ATOM     58 2H13 UNL     1     -11.991  38.970 -45.665  1.00  0.00     0.174 HD
ATOM     59 1H13 UNL     1     -11.192  40.197 -46.676  1.00  0.00     0.174 HD
ENDBRANCH  50  57
ENDBRANCH  43  45
ENDBRANCH   1  37
TORSDOF 16
ENDMDL
MODEL 3
REMARK VINA RESULT: -9.088317815      2.190      5.380
REMARK  16 active torsions:
REMARK  status: ('A' for Active; 'I' for Inactive)
REMARK    1  A    between atoms: O1_2  and  C2_3 
REMARK    2  A    between atoms: C2_3  and  C3_5 
REMARK    3  A    between atoms: C3_5  and  C4_6 
REMARK    4  A    between atoms: C6_13  and  N4_14 
REMARK    5  A    between atoms: N4_14  and  C7_15 
REMARK    6  A    between atoms: N4_14  and  C16_34 
REMARK    7  A    between atoms: C7_15  and  C8_16 
REMARK    8  A    between atoms: C8_16  and  N5_17 
REMARK    9  A    between atoms: C8_16  and  C9_21 
REMARK   10  A    between atoms: C9_21  and  C10_22 
REMARK   11  A    between atoms: C11_24  and  C12_25 
REMARK   12  A    between atoms: C12_25  and  O4_26 
REMARK   13  A    between atoms: C15_31  and  O6_32 
REMARK   14  A    between atoms: N9_41  and  C17_42 
REMARK   15  A    between atoms: C18_45  and  N11_46 
REMARK   16  A    between atoms: C19_51  and  N13_52 
ROOT
HETATM    1  N4  UNL     1      -8.377  37.774 -46.144  1.00  0.00    -0.165 N 
ENDROOT
BRANCH   1   2
HETATM    2  C6  UNL     1      -9.593  38.589 -46.019  1.00  0.00     0.410 C 
HETATM    3  N3  UNL     1      -9.345  39.766 -46.817  1.00  0.00    -0.320 N 
HETATM    4  C5  UNL     1      -9.666  40.955 -46.532  1.00  0.00     0.188 C 
ATOM      5  H3  UNL     1      -8.861  39.623 -47.703  1.00  0.00     0.166 HD
HETATM    6  N1  UNL     1     -10.350  41.183 -45.288  1.00  0.00    -0.336 N 
HETATM    7  N2  UNL     1      -9.367  42.061 -47.400  1.00  0.00    -0.064 NA
HETATM    8  C4  UNL     1     -10.878  40.001 -44.649  1.00  0.00     0.300 C 
ATOM      9  H1  UNL     1     -10.455  42.114 -44.886  1.00  0.00     0.164 HD
HETATM   10  N15 UNL     1      -9.954  38.878 -44.679  1.00  0.00    -0.015 N 
ATOM     11 2H15 UNL     1      -9.139  39.037 -44.088  1.00  0.00     0.284 HD
ATOM     12 1H15 UNL     1     -10.328  38.060 -44.198  1.00  0.00     0.284 HD
BRANCH   8  13
HETATM   13  C3  UNL     1     -12.211  39.599 -45.241  1.00  0.00     0.165 C 
BRANCH  13  14
HETATM   14  C2  UNL     1     -12.864  38.550 -44.426  1.00  0.00     0.262 C 
HETATM   15  O2  UNL     1     -12.511  37.350 -44.528  1.00  0.00    -0.265 OA
BRANCH  14  16
HETATM   16  O1  UNL     1     -13.867  38.952 -43.561  1.00  0.00    -0.326 OA
HETATM   17  C1  UNL     1     -13.617  39.075 -42.179  1.00  0.00     0.213 C 
ENDBRANCH  14  16
ENDBRANCH  13  14
ENDBRANCH   8  13
ENDBRANCH   1   2
BRANCH   1  18
HETATM   18  C7  UNL     1      -8.272  37.002 -47.347  1.00  0.00     0.178 C 
BRANCH  18  19
HETATM   19  C8  UNL     1      -6.897  36.720 -47.838  1.00  0.00     0.208 C 
BRANCH  19  20
HETATM   20  N5  UNL     1      -6.862  35.445 -48.509  1.00  0.00    -0.073 N 
ATOM     21  H53 UNL     1      -6.939  34.667 -47.854  1.00  0.00     0.274 HD
ATOM     22  H52 UNL     1      -7.712  35.273 -49.046  1.00  0.00     0.274 HD
ATOM     23  H51 UNL     1      -6.025  35.376 -49.087  1.00  0.00     0.274 HD
ENDBRANCH  19  20
BRANCH  19  24
HETATM   24  C9  UNL     1      -6.597  37.764 -48.901  1.00  0.00     0.102 C 
BRANCH  24  25
HETATM   25  C10 UNL     1      -5.345  38.492 -48.687  1.00  0.00     0.092 A 
HETATM   26  O3  UNL     1      -4.209  37.995 -49.095  1.00  0.00    -0.314 OA
HETATM   27  C11 UNL     1      -3.048  38.571 -48.949  1.00  0.00     0.080 A 
HETATM   28  C13 UNL     1      -3.007  39.796 -48.318  1.00  0.00     0.092 A 
HETATM   29  C14 UNL     1      -4.157  40.371 -47.867  1.00  0.00     0.209 A 
HETATM   30  O5  UNL     1      -4.156  41.495 -47.283  1.00  0.00    -0.285 OA
HETATM   31  C15 UNL     1      -5.357  39.708 -48.054  1.00  0.00     0.146 A 
BRANCH  27  32
HETATM   32  C12 UNL     1      -1.779  37.948 -49.440  1.00  0.00     0.229 C 
BRANCH  32  33
HETATM   33  O4  UNL     1      -1.333  38.617 -50.562  1.00  0.00    -0.394 OA
ATOM     34  H4  UNL     1      -1.069  37.992 -51.227  1.00  0.00     0.209 HD
ENDBRANCH  32  33
ENDBRANCH  27  32
BRANCH  31  35
HETATM   35  O6  UNL     1      -6.560  40.281 -47.597  1.00  0.00    -0.355 OA
ATOM     36  H6  UNL     1      -7.008  40.953 -48.099  1.00  0.00     0.218 HD
ENDBRANCH  31  35
ENDBRANCH  24  25
ENDBRANCH  19  24
ENDBRANCH  18  19
ENDBRANCH   1  18
BRANCH   1  37
HETATM   37  C16 UNL     1      -7.413  37.798 -45.145  1.00  0.00     0.737 A 
HETATM   38  N6  UNL     1      -6.789  38.950 -44.782  1.00  0.00    -0.114 N 
HETATM   39  N7  UNL     1      -5.935  38.694 -43.824  1.00  0.00    -0.212 N 
ATOM     40  H6  UNL     1      -6.960  39.869 -45.192  1.00  0.00     0.207 HD
HETATM   41  N8  UNL     1      -6.013  37.423 -43.587  1.00  0.00    -0.191 N 
ATOM     42  H7  UNL     1      -5.326  39.365 -43.355  1.00  0.00     0.210 HD
HETATM   43  N9  UNL     1      -6.928  36.826 -44.393  1.00  0.00     0.108 N 
ATOM     44  H8  UNL     1      -5.458  36.933 -42.885  1.00  0.00     0.211 HD
BRANCH  43  45
HETATM   45  C17 UNL     1      -7.200  35.433 -44.294  1.00  0.00     0.749 A 
HETATM   46  N10 UNL     1      -6.160  34.543 -44.254  1.00  0.00    -0.019 N 
HETATM   47  C18 UNL     1      -6.346  33.221 -44.154  1.00  0.00     0.705 A 
ATOM     48  H10 UNL     1      -5.206  34.901 -44.303  1.00  0.00     0.203 HD
HETATM   49  N12 UNL     1      -7.579  32.702 -44.086  1.00  0.00    -0.022 N 
HETATM   50  C19 UNL     1      -8.609  33.558 -44.124  1.00  0.00     0.705 A 
ATOM     51  H12 UNL     1      -7.727  31.695 -44.009  1.00  0.00     0.203 HD
HETATM   52  N14 UNL     1      -8.414  34.906 -44.226  1.00  0.00    -0.019 N 
ATOM     53  H14 UNL     1      -9.225  35.524 -44.251  1.00  0.00     0.203 HD
BRANCH  47  54
HETATM   54  N11 UNL     1      -5.345  32.412 -44.116  1.00  0.00    -0.234 N 
ATOM     55 2H11 UNL     1      -4.816  32.262 -44.975  1.00  0.00     0.174 HD
ATOM     56 1H11 UNL     1      -5.089  31.933 -43.252  1.00  0.00     0.174 HD
ENDBRANCH  47  54
BRANCH  50  57
HETATM   57  N13 UNL     1      -9.804  33.089 -44.061  1.00  0.00    -0.234 N 
ATOM     58 2H13 UNL     1     -10.117  32.407 -44.751  1.00  0.00     0.174 HD
ATOM     59 1H13 UNL     1     -10.419  33.414 -43.315  1.00  0.00     0.174 HD
ENDBRANCH  50  57
ENDBRANCH  43  45
ENDBRANCH   1  37
TORSDOF 16
ENDMDL
MODEL 4
REMARK VINA RESULT: -9.080488417      3.298      6.864
REMARK  16 active torsions:
REMARK  status: ('A' for Active; 'I' for Inactive)
REMARK    1  A    between atoms: O1_2  and  C2_3 
REMARK    2  A    between atoms: C2_3  and  C3_5 
REMARK    3  A    between atoms: C3_5  and  C4_6 
REMARK    4  A    between atoms: C6_13  and  N4_14 
REMARK    5  A    between atoms: N4_14  and  C7_15 
REMARK    6  A    between atoms: N4_14  and  C16_34 
REMARK    7  A    between atoms: C7_15  and  C8_16 
REMARK    8  A    between atoms: C8_16  and  N5_17 
REMARK    9  A    between atoms: C8_16  and  C9_21 
REMARK   10  A    between atoms: C9_21  and  C10_22 
REMARK   11  A    between atoms: C11_24  and  C12_25 
REMARK   12  A    between atoms: C12_25  and  O4_26 
REMARK   13  A    between atoms: C15_31  and  O6_32 
REMARK   14  A    between atoms: N9_41  and  C17_42 
REMARK   15  A    between atoms: C18_45  and  N11_46 
REMARK   16  A    between atoms: C19_51  and  N13_52 
ROOT
HETATM    1  N4  UNL     1      -7.734  38.307 -46.434  1.00  0.00    -0.165 N 
ENDROOT
BRANCH   1   2
HETATM    2  C6  UNL     1      -9.048  38.955 -46.317  1.00  0.00     0.410 C 
HETATM    3  N3  UNL     1      -8.924  40.197 -47.043  1.00  0.00    -0.320 N 
HETATM    4  C5  UNL     1      -9.403  41.319 -46.710  1.00  0.00     0.188 C 
ATOM      5  H3  UNL     1      -8.395  40.166 -47.914  1.00  0.00     0.166 HD
HETATM    6  N1  UNL     1     -10.154  41.389 -45.486  1.00  0.00    -0.336 N 
HETATM    7  N2  UNL     1      -9.217  42.501 -47.506  1.00  0.00    -0.064 NA
HETATM    8  C4  UNL     1     -10.550  40.116 -44.932  1.00  0.00     0.300 C 
ATOM      9  H1  UNL     1     -10.391  42.275 -45.041  1.00  0.00     0.164 HD
HETATM   10  N15 UNL     1      -9.490  39.121 -44.981  1.00  0.00    -0.015 N 
ATOM     11 2H15 UNL     1      -8.723  39.346 -44.348  1.00  0.00     0.284 HD
ATOM     12 1H15 UNL     1      -9.774  38.236 -44.559  1.00  0.00     0.284 HD
BRANCH   8  13
HETATM   13  C3  UNL     1     -11.799  39.584 -45.600  1.00  0.00     0.165 C 
BRANCH  13  14
HETATM   14  C2  UNL     1     -12.450  38.546 -44.768  1.00  0.00     0.262 C 
HETATM   15  O2  UNL     1     -12.034  37.362 -44.785  1.00  0.00    -0.265 OA
BRANCH  14  16
HETATM   16  O1  UNL     1     -13.522  38.940 -43.986  1.00  0.00    -0.326 OA
HETATM   17  C1  UNL     1     -13.425  38.933 -42.580  1.00  0.00     0.213 C 
ENDBRANCH  14  16
ENDBRANCH  13  14
ENDBRANCH   8  13
ENDBRANCH   1   2
BRANCH   1  18
HETATM   18  C7  UNL     1      -6.822  38.563 -45.359  1.00  0.00     0.178 C 
BRANCH  18  19
HETATM   19  C8  UNL     1      -6.247  37.374 -44.677  1.00  0.00     0.208 C 
BRANCH  19  20
HETATM   20  N5  UNL     1      -5.935  37.691 -43.307  1.00  0.00    -0.073 N 
ATOM     21  H53 UNL     1      -4.956  37.507 -43.086  1.00  0.00     0.274 HD
ATOM     22  H52 UNL     1      -5.940  38.696 -43.136  1.00  0.00     0.274 HD
ATOM     23  H51 UNL     1      -6.567  37.194 -42.679  1.00  0.00     0.274 HD
ENDBRANCH  19  20
BRANCH  19  24
HETATM   24  C9  UNL     1      -7.351  36.330 -44.627  1.00  0.00     0.102 C 
BRANCH  24  25
HETATM   25  C10 UNL     1      -6.896  34.964 -44.895  1.00  0.00     0.092 A 
HETATM   26  O3  UNL     1      -6.981  34.460 -46.095  1.00  0.00    -0.314 OA
HETATM   27  C11 UNL     1      -6.601  33.256 -46.427  1.00  0.00     0.080 A 
HETATM   28  C13 UNL     1      -6.068  32.451 -45.443  1.00  0.00     0.092 A 
HETATM   29  C14 UNL     1      -5.951  32.917 -44.167  1.00  0.00     0.209 A 
HETATM   30  O5  UNL     1      -5.467  32.205 -43.239  1.00  0.00    -0.285 OA
HETATM   31  C15 UNL     1      -6.373  34.203 -43.882  1.00  0.00     0.146 A 
BRANCH  27  32
HETATM   32  C12 UNL     1      -6.724  32.736 -47.823  1.00  0.00     0.229 C 
BRANCH  32  33
HETATM   33  O4  UNL     1      -6.136  33.618 -48.707  1.00  0.00    -0.394 OA
ATOM     34  H4  UNL     1      -5.330  33.957 -48.336  1.00  0.00     0.209 HD
ENDBRANCH  32  33
ENDBRANCH  27  32
BRANCH  31  35
HETATM   35  O6  UNL     1      -6.263  34.709 -42.571  1.00  0.00    -0.355 OA
ATOM     36  H6  UNL     1      -5.600  34.386 -41.972  1.00  0.00     0.218 HD
ENDBRANCH  31  35
ENDBRANCH  24  25
ENDBRANCH  19  24
ENDBRANCH  18  19
ENDBRANCH   1  18
BRANCH   1  37
HETATM   37  C16 UNL     1      -7.449  37.495 -47.523  1.00  0.00     0.737 A 
HETATM   38  N6  UNL     1      -8.275  36.480 -47.893  1.00  0.00    -0.114 N 
HETATM   39  N7  UNL     1      -7.776  35.880 -48.944  1.00  0.00    -0.212 N 
ATOM     40  H6  UNL     1      -9.145  36.226 -47.425  1.00  0.00     0.207 HD
HETATM   41  N8  UNL     1      -6.671  36.492 -49.232  1.00  0.00    -0.191 N 
ATOM     42  H7  UNL     1      -8.178  35.085 -49.440  1.00  0.00     0.210 HD
HETATM   43  N9  UNL     1      -6.432  37.511 -48.366  1.00  0.00     0.108 N 
ATOM     44  H8  UNL     1      -6.060  36.242 -50.009  1.00  0.00     0.211 HD
BRANCH  43  45
HETATM   45  C17 UNL     1      -5.283  38.339 -48.503  1.00  0.00     0.749 A 
HETATM   46  N10 UNL     1      -4.054  37.765 -48.690  1.00  0.00    -0.019 N 
HETATM   47  C18 UNL     1      -2.936  38.487 -48.834  1.00  0.00     0.705 A 
ATOM     48  H10 UNL     1      -3.988  36.748 -48.722  1.00  0.00     0.203 HD
HETATM   49  N12 UNL     1      -2.971  39.826 -48.800  1.00  0.00    -0.022 N 
HETATM   50  C19 UNL     1      -4.165  40.406 -48.617  1.00  0.00     0.705 A 
ATOM     51  H12 UNL     1      -2.122  40.381 -48.910  1.00  0.00     0.203 HD
HETATM   52  N14 UNL     1      -5.303  39.665 -48.471  1.00  0.00    -0.019 N 
ATOM     53  H14 UNL     1      -6.193  40.145 -48.335  1.00  0.00     0.203 HD
BRANCH  47  54
HETATM   54  N11 UNL     1      -1.796  37.915 -49.012  1.00  0.00    -0.234 N 
ATOM     55 2H11 UNL     1      -1.067  38.069 -48.315  1.00  0.00     0.174 HD
ATOM     56 1H11 UNL     1      -1.626  37.326 -49.827  1.00  0.00     0.174 HD
ENDBRANCH  47  54
BRANCH  50  57
HETATM   57  N13 UNL     1      -4.229  41.688 -48.581  1.00  0.00    -0.234 N 
ATOM     58 2H13 UNL     1      -4.245  42.219 -49.451  1.00  0.00     0.174 HD
ATOM     59 1H13 UNL     1      -4.263  42.152 -47.673  1.00  0.00     0.174 HD
ENDBRANCH  50  57
ENDBRANCH  43  45
ENDBRANCH   1  37
TORSDOF 16
ENDMDL
MODEL 5
REMARK VINA RESULT: -9.009762290      2.732      5.594
REMARK  16 active torsions:
REMARK  status: ('A' for Active; 'I' for Inactive)
REMARK    1  A    between atoms: O1_2  and  C2_3 
REMARK    2  A    between atoms: C2_3  and  C3_5 
REMARK    3  A    between atoms: C3_5  and  C4_6 
REMARK    4  A    between atoms: C6_13  and  N4_14 
REMARK    5  A    between atoms: N4_14  and  C7_15 
REMARK    6  A    between atoms: N4_14  and  C16_34 
REMARK    7  A    between atoms: C7_15  and  C8_16 
REMARK    8  A    between atoms: C8_16  and  N5_17 
REMARK    9  A    between atoms: C8_16  and  C9_21 
REMARK   10  A    between atoms: C9_21  and  C10_22 
REMARK   11  A    between atoms: C11_24  and  C12_25 
REMARK   12  A    between atoms: C12_25  and  O4_26 
REMARK   13  A    between atoms: C15_31  and  O6_32 
REMARK   14  A    between atoms: N9_41  and  C17_42 
REMARK   15  A    between atoms: C18_45  and  N11_46 
REMARK   16  A    between atoms: C19_51  and  N13_52 
ROOT
HETATM    1  N4  UNL     1      -6.222  36.426 -46.034  1.00  0.00    -0.165 N 
ENDROOT
BRANCH   1   2
HETATM    2  C6  UNL     1      -6.667  35.399 -45.082  1.00  0.00     0.410 C 
HETATM    3  N3  UNL     1      -5.752  34.297 -45.258  1.00  0.00    -0.320 N 
HETATM    4  C5  UNL     1      -6.041  33.066 -45.255  1.00  0.00     0.188 C 
ATOM      5  H3  UNL     1      -4.770  34.535 -45.399  1.00  0.00     0.166 HD
HETATM    6  N1  UNL     1      -7.418  32.703 -45.058  1.00  0.00    -0.336 N 
HETATM    7  N2  UNL     1      -5.049  32.043 -45.444  1.00  0.00    -0.064 NA
HETATM    8  C4  UNL     1      -8.271  33.760 -44.568  1.00  0.00     0.300 C 
ATOM      9  H1  UNL     1      -7.768  31.764 -45.249  1.00  0.00     0.164 HD
HETATM   10  N15 UNL     1      -8.029  35.035 -45.226  1.00  0.00    -0.015 N 
ATOM     11 2H15 UNL     1      -8.321  35.024 -46.203  1.00  0.00     0.284 HD
ATOM     12 1H15 UNL     1      -8.658  35.765 -44.892  1.00  0.00     0.284 HD
BRANCH   8  13
HETATM   13  C3  UNL     1      -8.156  33.915 -43.068  1.00  0.00     0.165 C 
BRANCH  13  14
HETATM   14  C2  UNL     1      -9.031  32.951 -42.362  1.00  0.00     0.262 C 
HETATM   15  O2  UNL     1      -8.907  31.717 -42.556  1.00  0.00    -0.265 OA
BRANCH  14  16
HETATM   16  O1  UNL     1      -9.976  33.470 -41.494  1.00  0.00    -0.326 OA
HETATM   17  C1  UNL     1     -11.344  33.462 -41.834  1.00  0.00     0.213 C 
ENDBRANCH  14  16
ENDBRANCH  13  14
ENDBRANCH   8  13
ENDBRANCH   1   2
BRANCH   1  18
HETATM   18  C7  UNL     1      -5.542  37.549 -45.459  1.00  0.00     0.178 C 
BRANCH  18  19
HETATM   19  C8  UNL     1      -6.396  38.634 -44.908  1.00  0.00     0.208 C 
BRANCH  19  20
HETATM   20  N5  UNL     1      -5.698  39.892 -44.963  1.00  0.00    -0.073 N 
ATOM     21  H53 UNL     1      -4.708  39.789 -44.737  1.00  0.00     0.274 HD
ATOM     22  H52 UNL     1      -5.598  40.232 -45.920  1.00  0.00     0.274 HD
ATOM     23  H51 UNL     1      -6.157  40.575 -44.362  1.00  0.00     0.274 HD
ENDBRANCH  19  20
BRANCH  19  24
HETATM   24  C9  UNL     1      -7.582  38.768 -45.850  1.00  0.00     0.102 C 
BRANCH  24  25
HETATM   25  C10 UNL     1      -8.786  39.315 -45.220  1.00  0.00     0.092 A 
HETATM   26  O3  UNL     1      -8.742  40.450 -44.577  1.00  0.00    -0.314 OA
HETATM   27  C11 UNL     1      -9.761  41.012 -43.988  1.00  0.00     0.080 A 
HETATM   28  C13 UNL     1     -10.978  40.368 -44.044  1.00  0.00     0.092 A 
HETATM   29  C14 UNL     1     -11.094  39.179 -44.699  1.00  0.00     0.209 A 
HETATM   30  O5  UNL     1     -12.195  38.559 -44.769  1.00  0.00    -0.285 OA
HETATM   31  C15 UNL     1      -9.974  38.635 -45.304  1.00  0.00     0.146 A 
BRANCH  27  32
HETATM   32  C12 UNL     1      -9.646  42.318 -43.266  1.00  0.00     0.229 C 
BRANCH  32  33
HETATM   33  O4  UNL     1      -8.338  42.526 -42.879  1.00  0.00    -0.394 OA
ATOM     34  H4  UNL     1      -8.249  43.388 -42.492  1.00  0.00     0.209 HD
ENDBRANCH  32  33
ENDBRANCH  27  32
BRANCH  31  35
HETATM   35  O6  UNL     1     -10.065  37.406 -45.987  1.00  0.00    -0.355 OA
ATOM     36  H6  UNL     1     -10.908  37.020 -46.195  1.00  0.00     0.218 HD
ENDBRANCH  31  35
ENDBRANCH  24  25
ENDBRANCH  19  24
ENDBRANCH  18  19
ENDBRANCH   1  18
BRANCH   1  37
HETATM   37  C16 UNL     1      -6.451  36.265 -47.394  1.00  0.00     0.737 A 
HETATM   38  N6  UNL     1      -7.383  35.393 -47.863  1.00  0.00    -0.114 N 
HETATM   39  N7  UNL     1      -7.396  35.440 -49.171  1.00  0.00    -0.212 N 
ATOM     40  H6  UNL     1      -7.976  34.796 -47.286  1.00  0.00     0.207 HD
HETATM   41  N8  UNL     1      -6.505  36.312 -49.521  1.00  0.00    -0.191 N 
ATOM     42  H7  UNL     1      -7.994  34.896 -49.794  1.00  0.00     0.210 HD
HETATM   43  N9  UNL     1      -5.891  36.852 -48.437  1.00  0.00     0.108 N 
ATOM     44  H8  UNL     1      -6.291  36.560 -50.487  1.00  0.00     0.211 HD
BRANCH  43  45
HETATM   45  C17 UNL     1      -4.889  37.852 -48.580  1.00  0.00     0.749 A 
HETATM   46  N10 UNL     1      -3.581  37.481 -48.737  1.00  0.00    -0.019 N 
HETATM   47  C18 UNL     1      -2.591  38.370 -48.885  1.00  0.00     0.705 A 
ATOM     48  H10 UNL     1      -3.351  36.487 -48.743  1.00  0.00     0.203 HD
HETATM   49  N12 UNL     1      -2.842  39.686 -48.885  1.00  0.00    -0.022 N 
HETATM   50  C19 UNL     1      -4.117  40.069 -48.731  1.00  0.00     0.705 A 
ATOM     51  H12 UNL     1      -2.092  40.369 -48.997  1.00  0.00     0.203 HD
HETATM   52  N14 UNL     1      -5.123  39.157 -48.581  1.00  0.00    -0.019 N 
ATOM     53  H14 UNL     1      -6.081  39.490 -48.468  1.00  0.00     0.203 HD
BRANCH  47  54
HETATM   54  N11 UNL     1      -1.371  37.985 -49.034  1.00  0.00    -0.234 N 
ATOM     55 2H11 UNL     1      -0.894  38.228 -49.903  1.00  0.00     0.174 HD
ATOM     56 1H11 UNL     1      -0.896  37.452 -48.307  1.00  0.00     0.174 HD
ENDBRANCH  47  54
BRANCH  50  57
HETATM   57  N13 UNL     1      -4.388  41.325 -48.727  1.00  0.00    -0.234 N 
ATOM     58 2H13 UNL     1      -4.377  41.848 -49.603  1.00  0.00     0.174 HD
ATOM     59 1H13 UNL     1      -4.609  41.776 -47.840  1.00  0.00     0.174 HD
ENDBRANCH  50  57
ENDBRANCH  43  45
ENDBRANCH   1  37
TORSDOF 16
ENDMDL
