MODEL 1
REMARK VINA RESULT: -4.506124128      0.000      0.000
REMARK  3 active torsions:
REMARK  status: ('A' for Active; 'I' for Inactive)
REMARK    1  A    between atoms: N1_1  and  N2_4 
REMARK    2  A    between atoms: N3_7  and  C3_8 
REMARK    3  A    between atoms: C3_8  and  O1_9 
ROOT
HETATM    1  N2  UNL     1      27.736  16.402   6.570  1.00  0.00    -0.247 N 
HETATM    2  C1  UNL     1      28.351  16.354   7.774  1.00  0.00     0.136 A 
HETATM    3  C2  UNL     1      28.515  17.622   8.248  1.00  0.00     0.115 A 
HETATM    4  N3  UNL     1      27.994  18.450   7.321  1.00  0.00    -0.309 N 
HETATM    5  C4  UNL     1      27.516  17.706   6.292  1.00  0.00     0.200 A 
HETATM    6  S1  UNL     1      26.803  18.341   4.964  1.00  0.00    -0.038 SA
ENDROOT
BRANCH   1   7
HETATM    7  N1  UNL     1      27.374  15.345   5.732  1.00  0.00    -0.337 N 
ATOM      8  H12 UNL     1      28.007  14.601   5.439  1.00  0.00     0.177 HD
ATOM      9  H11 UNL     1      26.470  15.155   5.300  1.00  0.00     0.177 HD
ENDBRANCH   1   7
BRANCH   4  10
HETATM   10  C3  UNL     1      27.954  19.903   7.415  1.00  0.00     0.297 C 
BRANCH  10  11
HETATM   11  O1  UNL     1      26.933  20.359   8.221  1.00  0.00    -0.382 OA
ATOM     12  H1  UNL     1      26.633  21.228   7.981  1.00  0.00     0.211 HD
ENDBRANCH  10  11
ENDBRANCH   4  10
TORSDOF 3
ENDMDL
MODEL 2
REMARK VINA RESULT: -4.334746748      2.275      2.629
REMARK  3 active torsions:
REMARK  status: ('A' for Active; 'I' for Inactive)
REMARK    1  A    between atoms: N1_1  and  N2_4 
REMARK    2  A    between atoms: N3_7  and  C3_8 
REMARK    3  A    between atoms: C3_8  and  O1_9 
ROOT
HETATM    1  N2  UNL     1      30.402  17.764   6.089  1.00  0.00    -0.247 N 
HETATM    2  C1  UNL     1      31.108  17.182   7.084  1.00  0.00     0.136 A 
HETATM    3  C2  UNL     1      30.285  16.953   8.148  1.00  0.00     0.115 A 
HETATM    4  N3  UNL     1      29.065  17.402   7.793  1.00  0.00    -0.309 N 
HETATM    5  C4  UNL     1      29.133  17.900   6.531  1.00  0.00     0.200 A 
HETATM    6  S1  UNL     1      27.857  18.543   5.737  1.00  0.00    -0.038 SA
ENDROOT
BRANCH   1   7
HETATM    7  N1  UNL     1      30.844  18.170   4.827  1.00  0.00    -0.337 N 
ATOM      8  H12 UNL     1      30.780  19.125   4.475  1.00  0.00     0.177 HD
ATOM      9  H11 UNL     1      31.279  17.609   4.093  1.00  0.00     0.177 HD
ENDBRANCH   1   7
BRANCH   4  10
HETATM   10  C3  UNL     1      27.874  17.358   8.630  1.00  0.00     0.297 C 
BRANCH  10  11
HETATM   11  O1  UNL     1      27.640  18.545   9.291  1.00  0.00    -0.382 OA
ATOM     12  H1  UNL     1      28.236  18.686  10.017  1.00  0.00     0.211 HD
ENDBRANCH  10  11
ENDBRANCH   4  10
TORSDOF 3
ENDMDL
MODEL 3
REMARK VINA RESULT: -4.331491260      2.881      3.267
REMARK  3 active torsions:
REMARK  status: ('A' for Active; 'I' for Inactive)
REMARK    1  A    between atoms: N1_1  and  N2_4 
REMARK    2  A    between atoms: N3_7  and  C3_8 
REMARK    3  A    between atoms: C3_8  and  O1_9 
ROOT
HETATM    1  N2  UNL     1      30.417  17.560   6.198  1.00  0.00    -0.247 N 
HETATM    2  C1  UNL     1      29.468  18.419   5.760  1.00  0.00     0.136 A 
HETATM    3  C2  UNL     1      28.692  18.808   6.813  1.00  0.00     0.115 A 
HETATM    4  N3  UNL     1      29.176  18.178   7.901  1.00  0.00    -0.309 N 
HETATM    5  C4  UNL     1      30.233  17.413   7.528  1.00  0.00     0.200 A 
HETATM    6  S1  UNL     1      31.098  16.489   8.564  1.00  0.00    -0.038 SA
ENDROOT
BRANCH   1   7
HETATM    7  N1  UNL     1      31.419  16.919   5.465  1.00  0.00    -0.337 N 
ATOM      8  H12 UNL     1      31.295  16.553   4.521  1.00  0.00     0.177 HD
ATOM      9  H11 UNL     1      32.382  16.722   5.738  1.00  0.00     0.177 HD
ENDBRANCH   1   7
BRANCH   4  10
HETATM   10  C3  UNL     1      28.647  18.304   9.252  1.00  0.00     0.297 C 
BRANCH  10  11
HETATM   11  O1  UNL     1      27.426  18.944   9.292  1.00  0.00    -0.382 OA
ATOM     12  H1  UNL     1      26.817  18.540   9.900  1.00  0.00     0.211 HD
ENDBRANCH  10  11
ENDBRANCH   4  10
TORSDOF 3
ENDMDL
MODEL 4
REMARK VINA RESULT: -4.292260215      3.143      4.169
REMARK  3 active torsions:
REMARK  status: ('A' for Active; 'I' for Inactive)
REMARK    1  A    between atoms: N1_1  and  N2_4 
REMARK    2  A    between atoms: N3_7  and  C3_8 
REMARK    3  A    between atoms: C3_8  and  O1_9 
ROOT
HETATM    1  N2  UNL     1      27.230  20.522   7.168  1.00  0.00    -0.247 N 
HETATM    2  C1  UNL     1      27.355  20.840   5.860  1.00  0.00     0.136 A 
HETATM    3  C2  UNL     1      28.258  20.000   5.276  1.00  0.00     0.115 A 
HETATM    4  N3  UNL     1      28.684  19.162   6.241  1.00  0.00    -0.309 N 
HETATM    5  C4  UNL     1      28.056  19.479   7.402  1.00  0.00     0.200 A 
HETATM    6  S1  UNL     1      28.303  18.693   8.815  1.00  0.00    -0.038 SA
ENDROOT
BRANCH   1   7
HETATM    7  N1  UNL     1      26.421  21.119   8.138  1.00  0.00    -0.337 N 
ATOM      8  H12 UNL     1      25.425  20.930   8.251  1.00  0.00     0.177 HD
ATOM      9  H11 UNL     1      26.678  21.802   8.851  1.00  0.00     0.177 HD
ENDBRANCH   1   7
BRANCH   4  10
HETATM   10  C3  UNL     1      29.658  18.094   6.061  1.00  0.00     0.297 C 
BRANCH  10  11
HETATM   11  O1  UNL     1      30.432  18.261   4.933  1.00  0.00    -0.382 OA
ATOM     12  H1  UNL     1      30.820  19.126   4.876  1.00  0.00     0.211 HD
ENDBRANCH  10  11
ENDBRANCH   4  10
TORSDOF 3
ENDMDL
MODEL 5
REMARK VINA RESULT: -4.292029999      3.372      3.805
REMARK  3 active torsions:
REMARK  status: ('A' for Active; 'I' for Inactive)
REMARK    1  A    between atoms: N1_1  and  N2_4 
REMARK    2  A    between atoms: N3_7  and  C3_8 
REMARK    3  A    between atoms: C3_8  and  O1_9 
ROOT
HETATM    1  N2  UNL     1      29.908  17.196   6.857  1.00  0.00    -0.247 N 
HETATM    2  C1  UNL     1      28.615  17.589   6.917  1.00  0.00     0.136 A 
HETATM    3  C2  UNL     1      28.157  17.439   8.193  1.00  0.00     0.115 A 
HETATM    4  N3  UNL     1      29.183  16.949   8.915  1.00  0.00    -0.309 N 
HETATM    5  C4  UNL     1      30.258  16.800   8.100  1.00  0.00     0.200 A 
HETATM    6  S1  UNL     1      31.707  16.228   8.600  1.00  0.00    -0.038 SA
ENDROOT
BRANCH   1   7
HETATM    7  N1  UNL     1      30.766  17.181   5.754  1.00  0.00    -0.337 N 
ATOM      8  H12 UNL     1      30.583  16.669   4.891  1.00  0.00     0.177 HD
ATOM      9  H11 UNL     1      31.663  17.652   5.638  1.00  0.00     0.177 HD
ENDBRANCH   1   7
BRANCH   4  10
HETATM   10  C3  UNL     1      29.139  16.635  10.337  1.00  0.00     0.297 C 
BRANCH  10  11
HETATM   11  O1  UNL     1      28.037  15.884  10.685  1.00  0.00    -0.382 OA
ATOM     12  H1  UNL     1      28.177  14.951  10.577  1.00  0.00     0.211 HD
ENDBRANCH  10  11
ENDBRANCH   4  10
TORSDOF 3
ENDMDL
