MODEL 1
REMARK VINA RESULT: -8.300506425      0.000      0.000
REMARK  9 active torsions:
REMARK  status: ('A' for Active; 'I' for Inactive)
REMARK    1  A    between atoms: C2_2  and  C3_3 
REMARK    2  A    between atoms: C2_2  and  C7_12 
REMARK       I    between atoms: C3_3  and  N1_5 
REMARK    3  A    between atoms: N1_5  and  C4_7 
REMARK    4  A    between atoms: C4_7  and  C5_8 
REMARK    5  A    between atoms: C5_8  and  C6_9 
REMARK    6  A    between atoms: C6_9  and  O2_10 
REMARK    7  A    between atoms: C17_22  and  O3_23 
REMARK    8  A    between atoms: O3_23  and  C18_24 
REMARK    9  A    between atoms: C30_37  and  O5_38 
ROOT
HETATM    1  C18 UNL     1      -4.616  35.398  21.176  1.00  0.00     0.156 C 
HETATM    2  C19 UNL     1      -4.929  34.592  19.944  1.00  0.00     0.201 C 
HETATM    3  O4  UNL     1      -6.247  34.570  19.571  1.00  0.00    -0.377 OA
HETATM    4  C20 UNL     1      -7.120  34.092  20.523  1.00  0.00     0.069 C 
HETATM    5  C21 UNL     1      -6.718  32.673  20.874  1.00  0.00     0.047 C 
HETATM    6  C22 UNL     1      -7.012  35.004  21.712  1.00  0.00     0.031 C 
HETATM    7  C23 UNL     1      -8.303  35.556  22.179  1.00  0.00     0.009 C 
HETATM    8  C24 UNL     1      -9.217  36.069  21.111  1.00  0.00     0.007 C 
HETATM    9  C25 UNL     1      -9.154  35.294  19.841  1.00  0.00     0.005 C 
HETATM   10  C26 UNL     1     -10.504  35.358  19.155  1.00  0.00    -0.035 C 
HETATM   11  C27 UNL     1     -10.660  36.888  18.920  1.00  0.00     0.016 C 
HETATM   12  C28 UNL     1     -11.639  35.015  20.059  1.00  0.00     0.012 C 
HETATM   13  C29 UNL     1     -12.833  34.407  19.409  1.00  0.00     0.033 C 
HETATM   14  C30 UNL     1     -12.590  33.584  18.200  1.00  0.00     0.126 C 
HETATM   15  C31 UNL     1     -11.766  34.331  17.220  1.00  0.00    -0.017 C 
HETATM   16  C32 UNL     1     -12.500  35.488  16.578  1.00  0.00     0.018 C 
HETATM   17  C33 UNL     1     -11.489  33.368  16.051  1.00  0.00     0.018 C 
HETATM   18  C34 UNL     1     -10.446  34.721  17.833  1.00  0.00     0.004 C 
HETATM   19  C35 UNL     1      -9.534  33.527  17.693  1.00  0.00     0.007 C 
HETATM   20  C36 UNL     1      -8.231  33.629  18.414  1.00  0.00     0.013 C 
HETATM   21  C37 UNL     1      -8.490  33.987  19.898  1.00  0.00    -0.008 C 
HETATM   22  C38 UNL     1      -9.198  32.809  20.436  1.00  0.00     0.019 C 
HETATM   23  C39 UNL     1      -5.908  36.021  21.632  1.00  0.00    -0.013 C 
HETATM   24  C40 UNL     1      -6.156  37.203  20.741  1.00  0.00     0.018 C 
HETATM   25  C41 UNL     1      -5.708  36.600  23.019  1.00  0.00     0.018 C 
ENDROOT
BRANCH   1  26
HETATM   26  O3  UNL     1      -4.040  34.729  22.189  1.00  0.00    -0.352 OA
BRANCH  26  27
HETATM   27  C17 UNL     1      -2.714  34.840  22.442  1.00  0.00     0.269 C 
HETATM   28  C14 UNL     1      -2.453  34.304  23.827  1.00  0.00     0.006 C 
HETATM   29  C11 UNL     1      -1.169  34.801  24.431  1.00  0.00     0.001 C 
HETATM   30  C15 UNL     1      -2.344  32.792  23.783  1.00  0.00     0.020 C 
HETATM   31  C16 UNL     1      -3.561  34.628  24.798  1.00  0.00     0.020 C 
HETATM   32  C10 UNL     1      -0.295  35.296  23.259  1.00  0.00     0.044 C 
HETATM   33  C12 UNL     1      -1.297  36.082  25.214  1.00  0.00     0.013 C 
HETATM   34  C9  UNL     1      -1.141  36.474  22.875  1.00  0.00     0.069 C 
HETATM   35  C8  UNL     1      -0.420  37.724  22.516  1.00  0.00     0.044 C 
HETATM   36  C13 UNL     1      -1.575  37.116  24.198  1.00  0.00     0.026 C 
HETATM   37  O6  UNL     1      -2.230  36.076  22.194  1.00  0.00    -0.349 OA
HETATM   38  C7  UNL     1      -0.610  38.195  23.913  1.00  0.00     0.008 C 
BRANCH  38  39
HETATM   39  C2  UNL     1       0.584  38.362  24.810  1.00  0.00     0.078 C 
HETATM   40  C1  UNL     1       0.081  39.250  25.965  1.00  0.00     0.020 C 
BRANCH  39  41
HETATM   41  C3  UNL     1       1.603  39.190  24.104  1.00  0.00     0.221 C 
HETATM   42  O1  UNL     1       1.246  40.149  23.329  1.00  0.00    -0.273 OA
HETATM   43  N1  UNL     1       2.999  39.016  24.202  1.00  0.00    -0.361 N 
ATOM     44  H1  UNL     1       3.338  38.270  24.809  1.00  0.00     0.162 HD
BRANCH  43  45
HETATM   45  C4  UNL     1       3.974  39.802  23.520  1.00  0.00     0.124 C 
BRANCH  45  46
HETATM   46  C5  UNL     1       5.317  39.140  23.350  1.00  0.00     0.046 C 
BRANCH  46  47
HETATM   47  C6  UNL     1       6.129  39.446  24.593  1.00  0.00     0.165 C 
BRANCH  47  48
HETATM   48  O2  UNL     1       6.457  38.305  25.311  1.00  0.00    -0.401 OA
ATOM     49  H2  UNL     1       7.268  38.399  25.797  1.00  0.00     0.209 HD
ENDBRANCH  47  48
ENDBRANCH  46  47
ENDBRANCH  45  46
ENDBRANCH  43  45
ENDBRANCH  39  41
ENDBRANCH  38  39
ENDBRANCH  26  27
ENDBRANCH   1  26
BRANCH  14  50
HETATM   50  O5  UNL     1     -13.825  33.216  17.671  1.00  0.00    -0.395 OA
ATOM     51  H5  UNL     1     -13.776  33.294  16.725  1.00  0.00     0.210 HD
ENDBRANCH  14  50
TORSDOF 9
ENDMDL
MODEL 2
REMARK VINA RESULT: -8.043539772      1.119      1.767
REMARK  9 active torsions:
REMARK  status: ('A' for Active; 'I' for Inactive)
REMARK    1  A    between atoms: C2_2  and  C3_3 
REMARK    2  A    between atoms: C2_2  and  C7_12 
REMARK       I    between atoms: C3_3  and  N1_5 
REMARK    3  A    between atoms: N1_5  and  C4_7 
REMARK    4  A    between atoms: C4_7  and  C5_8 
REMARK    5  A    between atoms: C5_8  and  C6_9 
REMARK    6  A    between atoms: C6_9  and  O2_10 
REMARK    7  A    between atoms: C17_22  and  O3_23 
REMARK    8  A    between atoms: O3_23  and  C18_24 
REMARK    9  A    between atoms: C30_37  and  O5_38 
ROOT
HETATM    1  C18 UNL     1      -4.115  33.701  21.283  1.00  0.00     0.156 C 
HETATM    2  C19 UNL     1      -4.984  32.477  21.399  1.00  0.00     0.201 C 
HETATM    3  O4  UNL     1      -6.197  32.552  20.767  1.00  0.00    -0.377 OA
HETATM    4  C20 UNL     1      -7.010  33.588  21.172  1.00  0.00     0.069 C 
HETATM    5  C21 UNL     1      -7.274  33.437  22.658  1.00  0.00     0.047 C 
HETATM    6  C22 UNL     1      -6.275  34.863  20.871  1.00  0.00     0.031 C 
HETATM    7  C23 UNL     1      -7.045  35.837  20.067  1.00  0.00     0.009 C 
HETATM    8  C24 UNL     1      -7.777  35.275  18.890  1.00  0.00     0.007 C 
HETATM    9  C25 UNL     1      -8.315  33.904  19.113  1.00  0.00     0.005 C 
HETATM   10  C26 UNL     1      -9.570  33.723  18.282  1.00  0.00    -0.035 C 
HETATM   11  C27 UNL     1      -9.020  33.928  16.841  1.00  0.00     0.016 C 
HETATM   12  C28 UNL     1     -10.552  34.831  18.454  1.00  0.00     0.012 C 
HETATM   13  C29 UNL     1     -11.985  34.471  18.266  1.00  0.00     0.033 C 
HETATM   14  C30 UNL     1     -12.378  33.087  18.623  1.00  0.00     0.126 C 
HETATM   15  C31 UNL     1     -11.485  32.106  17.960  1.00  0.00    -0.017 C 
HETATM   16  C32 UNL     1     -11.683  32.032  16.461  1.00  0.00     0.018 C 
HETATM   17  C33 UNL     1     -11.909  30.714  18.462  1.00  0.00     0.018 C 
HETATM   18  C34 UNL     1     -10.054  32.339  18.368  1.00  0.00     0.004 C 
HETATM   19  C35 UNL     1      -9.858  31.630  19.686  1.00  0.00     0.007 C 
HETATM   20  C36 UNL     1      -8.559  31.899  20.369  1.00  0.00     0.013 C 
HETATM   21  C37 UNL     1      -8.351  33.428  20.500  1.00  0.00    -0.008 C 
HETATM   22  C38 UNL     1      -9.426  33.862  21.413  1.00  0.00     0.019 C 
HETATM   23  C39 UNL     1      -4.854  34.682  20.414  1.00  0.00    -0.013 C 
HETATM   24  C40 UNL     1      -4.665  34.231  18.995  1.00  0.00     0.018 C 
HETATM   25  C41 UNL     1      -4.163  36.029  20.502  1.00  0.00     0.018 C 
ENDROOT
BRANCH   1  26
HETATM   26  O3  UNL     1      -3.757  34.282  22.440  1.00  0.00    -0.352 OA
BRANCH  26  27
HETATM   27  C17 UNL     1      -2.455  34.474  22.758  1.00  0.00     0.269 C 
HETATM   28  C14 UNL     1      -2.266  34.110  24.210  1.00  0.00     0.006 C 
HETATM   29  C11 UNL     1      -1.041  34.724  24.828  1.00  0.00     0.001 C 
HETATM   30  C15 UNL     1      -2.106  32.609  24.349  1.00  0.00     0.020 C 
HETATM   31  C16 UNL     1      -3.445  34.499  25.067  1.00  0.00     0.020 C 
HETATM   32  C10 UNL     1      -0.110  35.116  23.662  1.00  0.00     0.044 C 
HETATM   33  C12 UNL     1      -1.261  36.080  25.448  1.00  0.00     0.013 C 
HETATM   34  C9  UNL     1      -0.967  36.207  23.093  1.00  0.00     0.069 C 
HETATM   35  C8  UNL     1      -0.264  37.436  22.634  1.00  0.00     0.044 C 
HETATM   36  C13 UNL     1      -1.506  36.979  24.302  1.00  0.00     0.026 C 
HETATM   37  O6  UNL     1      -1.996  35.692  22.397  1.00  0.00    -0.349 OA
HETATM   38  C7  UNL     1      -0.560  38.056  23.953  1.00  0.00     0.008 C 
BRANCH  38  39
HETATM   39  C2  UNL     1       0.567  38.372  24.895  1.00  0.00     0.078 C 
HETATM   40  C1  UNL     1      -0.054  39.319  25.940  1.00  0.00     0.020 C 
BRANCH  39  41
HETATM   41  C3  UNL     1       1.576  39.201  24.175  1.00  0.00     0.221 C 
HETATM   42  O1  UNL     1       1.208  40.161  23.407  1.00  0.00    -0.273 OA
HETATM   43  N1  UNL     1       2.973  39.027  24.255  1.00  0.00    -0.361 N 
ATOM     44  H1  UNL     1       3.320  38.280  24.856  1.00  0.00     0.162 HD
BRANCH  43  45
HETATM   45  C4  UNL     1       3.938  39.814  23.560  1.00  0.00     0.124 C 
BRANCH  45  46
HETATM   46  C5  UNL     1       5.268  39.140  23.340  1.00  0.00     0.046 C 
BRANCH  46  47
HETATM   47  C6  UNL     1       6.136  39.456  24.540  1.00  0.00     0.165 C 
BRANCH  47  48
HETATM   48  O2  UNL     1       6.475  38.323  25.267  1.00  0.00    -0.401 OA
ATOM     49  H2  UNL     1       6.933  38.530  26.074  1.00  0.00     0.209 HD
ENDBRANCH  47  48
ENDBRANCH  46  47
ENDBRANCH  45  46
ENDBRANCH  43  45
ENDBRANCH  39  41
ENDBRANCH  38  39
ENDBRANCH  26  27
ENDBRANCH   1  26
BRANCH  14  50
HETATM   50  O5  UNL     1     -13.711  32.908  18.259  1.00  0.00    -0.395 OA
ATOM     51  H5  UNL     1     -13.971  32.030  18.512  1.00  0.00     0.210 HD
ENDBRANCH  14  50
TORSDOF 9
ENDMDL
MODEL 3
REMARK VINA RESULT: -8.030281508      3.158      4.888
REMARK  9 active torsions:
REMARK  status: ('A' for Active; 'I' for Inactive)
REMARK    1  A    between atoms: C2_2  and  C3_3 
REMARK    2  A    between atoms: C2_2  and  C7_12 
REMARK       I    between atoms: C3_3  and  N1_5 
REMARK    3  A    between atoms: N1_5  and  C4_7 
REMARK    4  A    between atoms: C4_7  and  C5_8 
REMARK    5  A    between atoms: C5_8  and  C6_9 
REMARK    6  A    between atoms: C6_9  and  O2_10 
REMARK    7  A    between atoms: C17_22  and  O3_23 
REMARK    8  A    between atoms: O3_23  and  C18_24 
REMARK    9  A    between atoms: C30_37  and  O5_38 
ROOT
HETATM    1  C18 UNL     1      -4.113  34.185  22.704  1.00  0.00     0.156 C 
HETATM    2  C19 UNL     1      -4.994  33.739  23.840  1.00  0.00     0.201 C 
HETATM    3  O4  UNL     1      -5.894  32.751  23.537  1.00  0.00    -0.377 OA
HETATM    4  C20 UNL     1      -6.773  33.046  22.519  1.00  0.00     0.069 C 
HETATM    5  C21 UNL     1      -7.561  34.282  22.909  1.00  0.00     0.047 C 
HETATM    6  C22 UNL     1      -5.949  33.287  21.286  1.00  0.00     0.031 C 
HETATM    7  C23 UNL     1      -6.351  32.478  20.114  1.00  0.00     0.009 C 
HETATM    8  C24 UNL     1      -6.620  31.031  20.382  1.00  0.00     0.007 C 
HETATM    9  C25 UNL     1      -7.235  30.769  21.714  1.00  0.00     0.005 C 
HETATM   10  C26 UNL     1      -8.107  29.533  21.622  1.00  0.00    -0.035 C 
HETATM   11  C27 UNL     1      -7.068  28.449  21.215  1.00  0.00     0.016 C 
HETATM   12  C28 UNL     1      -9.059  29.570  20.475  1.00  0.00     0.012 C 
HETATM   13  C29 UNL     1     -10.334  28.824  20.657  1.00  0.00     0.033 C 
HETATM   14  C30 UNL     1     -10.863  28.732  22.039  1.00  0.00     0.126 C 
HETATM   15  C31 UNL     1      -9.814  28.240  22.965  1.00  0.00    -0.017 C 
HETATM   16  C32 UNL     1      -9.458  26.785  22.748  1.00  0.00     0.018 C 
HETATM   17  C33 UNL     1     -10.425  28.269  24.378  1.00  0.00     0.018 C 
HETATM   18  C34 UNL     1      -8.623  29.162  22.946  1.00  0.00     0.004 C 
HETATM   19  C35 UNL     1      -8.935  30.292  23.896  1.00  0.00     0.007 C 
HETATM   20  C36 UNL     1      -7.966  31.427  23.880  1.00  0.00     0.013 C 
HETATM   21  C37 UNL     1      -7.783  31.928  22.426  1.00  0.00    -0.008 C 
HETATM   22  C38 UNL     1      -9.105  32.475  22.063  1.00  0.00     0.019 C 
HETATM   23  C39 UNL     1      -4.464  33.329  21.516  1.00  0.00    -0.013 C 
HETATM   24  C40 UNL     1      -3.784  32.007  21.720  1.00  0.00     0.018 C 
HETATM   25  C41 UNL     1      -3.819  33.925  20.279  1.00  0.00     0.018 C 
ENDROOT
BRANCH   1  26
HETATM   26  O3  UNL     1      -4.185  35.486  22.377  1.00  0.00    -0.352 OA
BRANCH  26  27
HETATM   27  C17 UNL     1      -3.498  36.425  23.069  1.00  0.00     0.269 C 
HETATM   28  C14 UNL     1      -4.134  37.766  22.804  1.00  0.00     0.006 C 
HETATM   29  C11 UNL     1      -3.221  38.928  23.079  1.00  0.00     0.001 C 
HETATM   30  C15 UNL     1      -5.341  37.951  23.701  1.00  0.00     0.020 C 
HETATM   31  C16 UNL     1      -4.626  37.908  21.384  1.00  0.00     0.020 C 
HETATM   32  C10 UNL     1      -2.110  38.404  24.012  1.00  0.00     0.044 C 
HETATM   33  C12 UNL     1      -2.385  39.364  21.904  1.00  0.00     0.013 C 
HETATM   34  C9  UNL     1      -1.449  37.489  23.024  1.00  0.00     0.069 C 
HETATM   35  C8  UNL     1       0.039  37.465  23.029  1.00  0.00     0.044 C 
HETATM   36  C13 UNL     1      -1.422  38.263  21.702  1.00  0.00     0.026 C 
HETATM   37  O6  UNL     1      -2.164  36.361  22.866  1.00  0.00    -0.349 OA
HETATM   38  C7  UNL     1       0.024  38.456  21.921  1.00  0.00     0.008 C 
BRANCH  38  39
HETATM   39  C2  UNL     1       0.549  39.844  22.159  1.00  0.00     0.078 C 
HETATM   40  C1  UNL     1       1.271  40.216  20.849  1.00  0.00     0.020 C 
BRANCH  39  41
HETATM   41  C3  UNL     1       1.626  39.781  23.188  1.00  0.00     0.221 C 
HETATM   42  O1  UNL     1       1.351  39.918  24.434  1.00  0.00    -0.273 OA
HETATM   43  N1  UNL     1       2.995  39.575  22.917  1.00  0.00    -0.361 N 
ATOM     44  H1  UNL     1       3.268  39.455  21.942  1.00  0.00     0.162 HD
BRANCH  43  45
HETATM   45  C4  UNL     1       4.026  39.523  23.900  1.00  0.00     0.124 C 
BRANCH  45  46
HETATM   46  C5  UNL     1       5.428  39.493  23.348  1.00  0.00     0.046 C 
BRANCH  46  47
HETATM   47  C6  UNL     1       6.346  39.066  24.475  1.00  0.00     0.165 C 
BRANCH  47  48
HETATM   48  O2  UNL     1       7.093  37.940  24.159  1.00  0.00    -0.401 OA
ATOM     49  H2  UNL     1       7.584  38.042  23.351  1.00  0.00     0.209 HD
ENDBRANCH  47  48
ENDBRANCH  46  47
ENDBRANCH  45  46
ENDBRANCH  43  45
ENDBRANCH  39  41
ENDBRANCH  38  39
ENDBRANCH  26  27
ENDBRANCH   1  26
BRANCH  14  50
HETATM   50  O5  UNL     1     -11.978  27.896  22.021  1.00  0.00    -0.395 OA
ATOM     51  H5  UNL     1     -11.696  27.034  21.739  1.00  0.00     0.210 HD
ENDBRANCH  14  50
TORSDOF 9
ENDMDL
MODEL 4
REMARK VINA RESULT: -8.025600694      1.756      2.816
REMARK  9 active torsions:
REMARK  status: ('A' for Active; 'I' for Inactive)
REMARK    1  A    between atoms: C2_2  and  C3_3 
REMARK    2  A    between atoms: C2_2  and  C7_12 
REMARK       I    between atoms: C3_3  and  N1_5 
REMARK    3  A    between atoms: N1_5  and  C4_7 
REMARK    4  A    between atoms: C4_7  and  C5_8 
REMARK    5  A    between atoms: C5_8  and  C6_9 
REMARK    6  A    between atoms: C6_9  and  O2_10 
REMARK    7  A    between atoms: C17_22  and  O3_23 
REMARK    8  A    between atoms: O3_23  and  C18_24 
REMARK    9  A    between atoms: C30_37  and  O5_38 
ROOT
HETATM    1  C18 UNL     1      -7.226  36.223  21.363  1.00  0.00     0.156 C 
HETATM    2  C19 UNL     1      -7.410  36.732  19.959  1.00  0.00     0.201 C 
HETATM    3  O4  UNL     1      -8.566  36.341  19.335  1.00  0.00    -0.377 OA
HETATM    4  C20 UNL     1      -8.748  34.980  19.232  1.00  0.00     0.069 C 
HETATM    5  C21 UNL     1      -7.585  34.398  18.451  1.00  0.00     0.047 C 
HETATM    6  C22 UNL     1      -8.796  34.437  20.632  1.00  0.00     0.031 C 
HETATM    7  C23 UNL     1      -9.989  33.614  20.928  1.00  0.00     0.009 C 
HETATM    8  C24 UNL     1     -11.296  34.165  20.454  1.00  0.00     0.007 C 
HETATM    9  C25 UNL     1     -11.205  34.907  19.165  1.00  0.00     0.005 C 
HETATM   10  C26 UNL     1     -12.521  34.776  18.425  1.00  0.00    -0.035 C 
HETATM   11  C27 UNL     1     -13.510  35.433  19.429  1.00  0.00     0.016 C 
HETATM   12  C28 UNL     1     -12.997  33.367  18.319  1.00  0.00     0.012 C 
HETATM   13  C29 UNL     1     -13.827  33.043  17.126  1.00  0.00     0.033 C 
HETATM   14  C30 UNL     1     -13.548  33.812  15.890  1.00  0.00     0.126 C 
HETATM   15  C31 UNL     1     -13.554  35.268  16.171  1.00  0.00    -0.017 C 
HETATM   16  C32 UNL     1     -14.931  35.812  16.486  1.00  0.00     0.018 C 
HETATM   17  C33 UNL     1     -13.164  35.972  14.858  1.00  0.00     0.018 C 
HETATM   18  C34 UNL     1     -12.520  35.606  17.213  1.00  0.00     0.004 C 
HETATM   19  C35 UNL     1     -11.204  35.749  16.487  1.00  0.00     0.007 C 
HETATM   20  C36 UNL     1     -10.003  35.889  17.362  1.00  0.00     0.013 C 
HETATM   21  C37 UNL     1      -9.974  34.729  18.387  1.00  0.00    -0.008 C 
HETATM   22  C38 UNL     1      -9.777  33.522  17.562  1.00  0.00     0.019 C 
HETATM   23  C39 UNL     1      -8.460  35.433  21.707  1.00  0.00    -0.013 C 
HETATM   24  C40 UNL     1      -9.529  36.429  22.050  1.00  0.00     0.018 C 
HETATM   25  C41 UNL     1      -8.204  34.663  22.988  1.00  0.00     0.018 C 
ENDROOT
BRANCH   1  26
HETATM   26  O3  UNL     1      -6.125  35.486  21.584  1.00  0.00    -0.352 OA
BRANCH  26  27
HETATM   27  C17 UNL     1      -4.894  35.943  21.256  1.00  0.00     0.269 C 
HETATM   28  C14 UNL     1      -3.973  34.757  21.114  1.00  0.00     0.006 C 
HETATM   29  C11 UNL     1      -2.517  35.108  21.247  1.00  0.00     0.001 C 
HETATM   30  C15 UNL     1      -4.137  34.138  19.740  1.00  0.00     0.020 C 
HETATM   31  C16 UNL     1      -4.265  33.668  22.116  1.00  0.00     0.020 C 
HETATM   32  C10 UNL     1      -2.405  36.625  20.988  1.00  0.00     0.044 C 
HETATM   33  C12 UNL     1      -1.982  35.047  22.654  1.00  0.00     0.013 C 
HETATM   34  C9  UNL     1      -3.131  37.082  22.219  1.00  0.00     0.069 C 
HETATM   35  C8  UNL     1      -2.565  38.262  22.926  1.00  0.00     0.044 C 
HETATM   36  C13 UNL     1      -2.631  36.177  23.350  1.00  0.00     0.026 C 
HETATM   37  O6  UNL     1      -4.459  36.925  22.075  1.00  0.00    -0.349 OA
HETATM   38  C7  UNL     1      -1.852  37.331  23.839  1.00  0.00     0.008 C 
BRANCH  38  39
HETATM   39  C2  UNL     1      -0.351  37.264  23.807  1.00  0.00     0.078 C 
HETATM   40  C1  UNL     1       0.063  37.125  25.286  1.00  0.00     0.020 C 
BRANCH  39  41
HETATM   41  C3  UNL     1       0.179  38.591  23.382  1.00  0.00     0.221 C 
HETATM   42  O1  UNL     1       0.231  39.572  24.208  1.00  0.00    -0.273 OA
HETATM   43  N1  UNL     1       0.655  38.898  22.090  1.00  0.00    -0.361 N 
ATOM     44  H1  UNL     1       0.641  38.151  21.395  1.00  0.00     0.162 HD
BRANCH  43  45
HETATM   45  C4  UNL     1       1.155  40.169  21.680  1.00  0.00     0.124 C 
BRANCH  45  46
HETATM   46  C5  UNL     1       2.620  40.192  21.330  1.00  0.00     0.046 C 
BRANCH  46  47
HETATM   47  C6  UNL     1       3.390  39.888  22.600  1.00  0.00     0.165 C 
BRANCH  47  48
HETATM   48  O2  UNL     1       4.758  39.793  22.385  1.00  0.00    -0.401 OA
ATOM     49  H2  UNL     1       5.235  39.546  23.169  1.00  0.00     0.209 HD
ENDBRANCH  47  48
ENDBRANCH  46  47
ENDBRANCH  45  46
ENDBRANCH  43  45
ENDBRANCH  39  41
ENDBRANCH  38  39
ENDBRANCH  26  27
ENDBRANCH   1  26
BRANCH  14  50
HETATM   50  O5  UNL     1     -14.502  33.461  14.937  1.00  0.00    -0.395 OA
ATOM     51  H5  UNL     1     -14.046  33.169  14.156  1.00  0.00     0.210 HD
ENDBRANCH  14  50
TORSDOF 9
ENDMDL
MODEL 5
REMARK VINA RESULT: -7.923764336      1.645      2.246
REMARK  9 active torsions:
REMARK  status: ('A' for Active; 'I' for Inactive)
REMARK    1  A    between atoms: C2_2  and  C3_3 
REMARK    2  A    between atoms: C2_2  and  C7_12 
REMARK       I    between atoms: C3_3  and  N1_5 
REMARK    3  A    between atoms: N1_5  and  C4_7 
REMARK    4  A    between atoms: C4_7  and  C5_8 
REMARK    5  A    between atoms: C5_8  and  C6_9 
REMARK    6  A    between atoms: C6_9  and  O2_10 
REMARK    7  A    between atoms: C17_22  and  O3_23 
REMARK    8  A    between atoms: O3_23  and  C18_24 
REMARK    9  A    between atoms: C30_37  and  O5_38 
ROOT
HETATM    1  C18 UNL     1      -5.015  35.677  22.144  1.00  0.00     0.156 C 
HETATM    2  C19 UNL     1      -5.902  34.806  21.295  1.00  0.00     0.201 C 
HETATM    3  O4  UNL     1      -7.175  35.273  21.098  1.00  0.00    -0.377 OA
HETATM    4  C20 UNL     1      -7.907  35.492  22.244  1.00  0.00     0.069 C 
HETATM    5  C21 UNL     1      -8.010  34.183  23.003  1.00  0.00     0.047 C 
HETATM    6  C22 UNL     1      -7.172  36.533  23.040  1.00  0.00     0.031 C 
HETATM    7  C23 UNL     1      -7.997  37.696  23.433  1.00  0.00     0.009 C 
HETATM    8  C24 UNL     1      -8.871  38.267  22.362  1.00  0.00     0.007 C 
HETATM    9  C25 UNL     1      -9.421  37.248  21.426  1.00  0.00     0.005 C 
HETATM   10  C26 UNL     1     -10.764  37.723  20.910  1.00  0.00    -0.035 C 
HETATM   11  C27 UNL     1     -10.371  39.048  20.194  1.00  0.00     0.016 C 
HETATM   12  C28 UNL     1     -11.688  38.160  21.994  1.00  0.00     0.012 C 
HETATM   13  C29 UNL     1     -13.143  37.998  21.720  1.00  0.00     0.033 C 
HETATM   14  C30 UNL     1     -13.535  36.873  20.838  1.00  0.00     0.126 C 
HETATM   15  C31 UNL     1     -12.751  36.901  19.580  1.00  0.00    -0.017 C 
HETATM   16  C32 UNL     1     -13.115  38.056  18.672  1.00  0.00     0.018 C 
HETATM   17  C33 UNL     1     -13.158  35.651  18.778  1.00  0.00     0.018 C 
HETATM   18  C34 UNL     1     -11.277  36.811  19.879  1.00  0.00     0.004 C 
HETATM   19  C35 UNL     1     -10.958  35.345  20.048  1.00  0.00     0.007 C 
HETATM   20  C36 UNL     1      -9.584  35.043  20.547  1.00  0.00     0.013 C 
HETATM   21  C37 UNL     1      -9.318  35.845  21.844  1.00  0.00    -0.008 C 
HETATM   22  C38 UNL     1     -10.273  35.282  22.819  1.00  0.00     0.019 C 
HETATM   23  C39 UNL     1      -5.816  36.900  22.503  1.00  0.00    -0.013 C 
HETATM   24  C40 UNL     1      -5.797  37.797  21.301  1.00  0.00     0.018 C 
HETATM   25  C41 UNL     1      -5.080  37.664  23.587  1.00  0.00     0.018 C 
ENDROOT
BRANCH   1  26
HETATM   26  O3  UNL     1      -4.514  35.107  23.253  1.00  0.00    -0.352 OA
BRANCH  26  27
HETATM   27  C17 UNL     1      -3.179  35.011  23.454  1.00  0.00     0.269 C 
HETATM   28  C14 UNL     1      -2.941  34.746  24.919  1.00  0.00     0.006 C 
HETATM   29  C11 UNL     1      -1.555  35.104  25.377  1.00  0.00     0.001 C 
HETATM   30  C15 UNL     1      -3.117  33.269  25.212  1.00  0.00     0.020 C 
HETATM   31  C16 UNL     1      -3.911  35.481  25.811  1.00  0.00     0.020 C 
HETATM   32  C10 UNL     1      -0.674  35.155  24.111  1.00  0.00     0.044 C 
HETATM   33  C12 UNL     1      -1.397  36.524  25.857  1.00  0.00     0.013 C 
HETATM   34  C9  UNL     1      -1.308  36.364  23.487  1.00  0.00     0.069 C 
HETATM   35  C8  UNL     1      -0.390  37.343  22.847  1.00  0.00     0.044 C 
HETATM   36  C13 UNL     1      -1.538  37.348  24.640  1.00  0.00     0.026 C 
HETATM   37  O6  UNL     1      -2.490  36.047  22.929  1.00  0.00    -0.349 OA
HETATM   38  C7  UNL     1      -0.408  38.132  24.106  1.00  0.00     0.008 C 
BRANCH  38  39
HETATM   39  C2  UNL     1       0.847  38.255  24.924  1.00  0.00     0.078 C 
HETATM   40  C1  UNL     1       0.436  39.108  26.140  1.00  0.00     0.020 C 
BRANCH  39  41
HETATM   41  C3  UNL     1       1.826  39.095  24.178  1.00  0.00     0.221 C 
HETATM   42  O1  UNL     1       1.430  39.928  23.285  1.00  0.00    -0.273 OA
HETATM   43  N1  UNL     1       3.225  39.066  24.360  1.00  0.00    -0.361 N 
ATOM     44  H1  UNL     1       3.593  38.424  25.062  1.00  0.00     0.162 HD
BRANCH  43  45
HETATM   45  C4  UNL     1       4.163  39.863  23.640  1.00  0.00     0.124 C 
BRANCH  45  46
HETATM   46  C5  UNL     1       5.422  39.144  23.227  1.00  0.00     0.046 C 
BRANCH  46  47
HETATM   47  C6  UNL     1       6.442  39.358  24.327  1.00  0.00     0.165 C 
BRANCH  47  48
HETATM   48  O2  UNL     1       6.406  38.361  25.291  1.00  0.00    -0.401 OA
ATOM     49  H2  UNL     1       7.066  38.478  25.964  1.00  0.00     0.209 HD
ENDBRANCH  47  48
ENDBRANCH  46  47
ENDBRANCH  45  46
ENDBRANCH  43  45
ENDBRANCH  39  41
ENDBRANCH  38  39
ENDBRANCH  26  27
ENDBRANCH   1  26
BRANCH  14  50
HETATM   50  O5  UNL     1     -14.905  36.966  20.601  1.00  0.00    -0.395 OA
ATOM     51  H5  UNL     1     -15.326  36.215  21.002  1.00  0.00     0.210 HD
ENDBRANCH  14  50
TORSDOF 9
ENDMDL
