MODEL 1
REMARK VINA RESULT: -6.406826347      0.000      0.000
REMARK  10 active torsions:
REMARK  status: ('A' for Active; 'I' for Inactive)
REMARK    1  A    between atoms: C2_2  and  N1_3 
REMARK    2  A    between atoms: C2_2  and  C8_14 
REMARK    3  A    between atoms: N1_3  and  C3_5 
REMARK    4  A    between atoms: C3_5  and  C4_6 
REMARK    5  A    between atoms: C4_6  and  C5_7 
REMARK    6  A    between atoms: C5_7  and  N2_8 
REMARK       I    between atoms: N2_8  and  C6_10 
REMARK    7  A    between atoms: C6_10  and  C7_12 
REMARK       I    between atoms: C8_14  and  N3_16 
REMARK    8  A    between atoms: N3_16  and  C9_18 
REMARK    9  A    between atoms: C9_18  and  C10_19 
REMARK   10  A    between atoms: C11_20  and  C12_21 
ROOT
HETATM    1  C1  UNL     1      15.211 -14.760  17.762  1.00  0.00     0.042 C 
HETATM    2  C2  UNL     1      14.605 -13.648  18.550  1.00  0.00     0.169 C 
ENDROOT
BRANCH   2   3
HETATM    3  N1  UNL     1      13.651 -13.946  19.512  1.00  0.00    -0.390 N 
ATOM      4  H1  UNL     1      13.333 -13.187  20.116  1.00  0.00     0.159 HD
BRANCH   3   5
HETATM    5  C3  UNL     1      13.100 -15.204  19.710  1.00  0.00     0.058 C 
BRANCH   5   6
HETATM    6  C4  UNL     1      12.490 -15.462  21.040  1.00  0.00     0.064 C 
BRANCH   6   7
HETATM    7  C5  UNL     1      13.174 -14.687  22.152  1.00  0.00     0.128 C 
BRANCH   7   8
HETATM    8  N2  UNL     1      12.296 -13.728  22.763  1.00  0.00    -0.355 N 
HETATM    9  C6  UNL     1      12.561 -12.350  22.571  1.00  0.00     0.279 C 
HETATM   10  O1  UNL     1      13.541 -11.966  21.879  1.00  0.00    -0.265 OA
ATOM     11  H2  UNL     1      11.501 -14.033  23.323  1.00  0.00     0.162 HD
BRANCH   9  12
HETATM   12  C7  UNL     1      11.704 -11.342  23.174  1.00  0.00     0.332 C 
HETATM   13  O2  UNL     1      11.686 -11.199  24.411  1.00  0.00    -0.297 OA
ENDBRANCH   9  12
ENDBRANCH   7   8
ENDBRANCH   6   7
ENDBRANCH   5   6
ENDBRANCH   3   5
ENDBRANCH   2   3
BRANCH   2  14
HETATM   14  C8  UNL     1      15.759 -12.962  19.270  1.00  0.00     0.239 C 
HETATM   15  O3  UNL     1      16.460 -12.100  18.693  1.00  0.00    -0.271 OA
HETATM   16  N3  UNL     1      16.052 -13.297  20.609  1.00  0.00    -0.359 N 
ATOM     17  H3  UNL     1      15.489 -14.003  21.084  1.00  0.00     0.162 HD
BRANCH  16  18
HETATM   18  C9  UNL     1      17.131 -12.663  21.315  1.00  0.00     0.128 C 
BRANCH  18  19
HETATM   19  C10 UNL     1      17.984 -13.684  22.062  1.00  0.00     0.020 A 
HETATM   20  C11 UNL     1      18.187 -14.975  21.391  1.00  0.00     0.023 A 
HETATM   21  C14 UNL     1      19.336 -13.978  21.563  1.00  0.00    -0.035 A 
HETATM   22  C15 UNL     1      20.408 -14.282  22.579  1.00  0.00     0.016 C 
HETATM   23  C16 UNL     1      19.852 -13.425  20.273  1.00  0.00     0.016 C 
BRANCH  20  24
HETATM   24  C12 UNL     1      18.431 -16.247  22.081  1.00  0.00    -0.014 C 
HETATM   25  C13 UNL     1      17.604 -16.847  22.906  1.00  0.00     0.052 C 
HETATM   26 BR1  UNL     1      18.107 -18.513  23.710  1.00  0.00    -0.064 Br
ENDBRANCH  20  24
ENDBRANCH  18  19
ENDBRANCH  16  18
ENDBRANCH   2  14
TORSDOF 10
ENDMDL
MODEL 2
REMARK VINA RESULT: -6.292007385      2.495      3.407
REMARK  10 active torsions:
REMARK  status: ('A' for Active; 'I' for Inactive)
REMARK    1  A    between atoms: C2_2  and  N1_3 
REMARK    2  A    between atoms: C2_2  and  C8_14 
REMARK    3  A    between atoms: N1_3  and  C3_5 
REMARK    4  A    between atoms: C3_5  and  C4_6 
REMARK    5  A    between atoms: C4_6  and  C5_7 
REMARK    6  A    between atoms: C5_7  and  N2_8 
REMARK       I    between atoms: N2_8  and  C6_10 
REMARK    7  A    between atoms: C6_10  and  C7_12 
REMARK       I    between atoms: C8_14  and  N3_16 
REMARK    8  A    between atoms: N3_16  and  C9_18 
REMARK    9  A    between atoms: C9_18  and  C10_19 
REMARK   10  A    between atoms: C11_20  and  C12_21 
ROOT
HETATM    1  C1  UNL     1      16.108 -14.373  20.298  1.00  0.00     0.042 C 
HETATM    2  C2  UNL     1      16.612 -12.988  20.528  1.00  0.00     0.169 C 
ENDROOT
BRANCH   2   3
HETATM    3  N1  UNL     1      15.894 -12.138  21.356  1.00  0.00    -0.390 N 
ATOM      4  H1  UNL     1      16.374 -11.749  22.167  1.00  0.00     0.159 HD
BRANCH   3   5
HETATM    5  C3  UNL     1      14.567 -11.783  21.157  1.00  0.00     0.058 C 
BRANCH   5   6
HETATM    6  C4  UNL     1      13.563 -12.439  22.036  1.00  0.00     0.064 C 
BRANCH   6   7
HETATM    7  C5  UNL     1      12.228 -11.717  22.029  1.00  0.00     0.128 C 
BRANCH   7   8
HETATM    8  N2  UNL     1      12.301 -10.436  22.676  1.00  0.00    -0.355 N 
HETATM    9  C6  UNL     1      11.819 -10.320  24.003  1.00  0.00     0.279 C 
HETATM   10  O1  UNL     1      11.338 -11.314  24.610  1.00  0.00    -0.265 OA
ATOM     11  H2  UNL     1      12.691  -9.628  22.191  1.00  0.00     0.162 HD
BRANCH   9  12
HETATM   12  C7  UNL     1      11.868  -9.044  24.698  1.00  0.00     0.332 C 
HETATM   13  O2  UNL     1      12.905  -8.353  24.659  1.00  0.00    -0.297 OA
ENDBRANCH   9  12
ENDBRANCH   7   8
ENDBRANCH   6   7
ENDBRANCH   5   6
ENDBRANCH   3   5
ENDBRANCH   2   3
BRANCH   2  14
HETATM   14  C8  UNL     1      17.998 -13.137  21.142  1.00  0.00     0.239 C 
HETATM   15  O3  UNL     1      18.987 -12.540  20.660  1.00  0.00    -0.271 OA
HETATM   16  N3  UNL     1      18.181 -13.961  22.273  1.00  0.00    -0.359 N 
ATOM     17  H3  UNL     1      17.380 -14.455  22.668  1.00  0.00     0.162 HD
BRANCH  16  18
HETATM   18  C9  UNL     1      19.475 -14.116  22.877  1.00  0.00     0.128 C 
BRANCH  18  19
HETATM   19  C10 UNL     1      19.359 -14.487  24.353  1.00  0.00     0.020 A 
HETATM   20  C11 UNL     1      19.888 -15.803  24.735  1.00  0.00     0.023 A 
HETATM   21  C14 UNL     1      20.579 -14.510  25.176  1.00  0.00    -0.035 A 
HETATM   22  C15 UNL     1      20.461 -14.085  26.617  1.00  0.00     0.016 C 
HETATM   23  C16 UNL     1      21.943 -14.326  24.591  1.00  0.00     0.016 C 
BRANCH  20  24
HETATM   24  C12 UNL     1      19.405 -16.603  25.867  1.00  0.00    -0.014 C 
HETATM   25  C13 UNL     1      18.997 -17.850  25.811  1.00  0.00     0.052 C 
HETATM   26 BR1  UNL     1      18.402 -18.726  27.408  1.00  0.00    -0.064 Br
ENDBRANCH  20  24
ENDBRANCH  18  19
ENDBRANCH  16  18
ENDBRANCH   2  14
TORSDOF 10
ENDMDL
MODEL 3
REMARK VINA RESULT: -6.261761523      1.399      1.741
REMARK  10 active torsions:
REMARK  status: ('A' for Active; 'I' for Inactive)
REMARK    1  A    between atoms: C2_2  and  N1_3 
REMARK    2  A    between atoms: C2_2  and  C8_14 
REMARK    3  A    between atoms: N1_3  and  C3_5 
REMARK    4  A    between atoms: C3_5  and  C4_6 
REMARK    5  A    between atoms: C4_6  and  C5_7 
REMARK    6  A    between atoms: C5_7  and  N2_8 
REMARK       I    between atoms: N2_8  and  C6_10 
REMARK    7  A    between atoms: C6_10  and  C7_12 
REMARK       I    between atoms: C8_14  and  N3_16 
REMARK    8  A    between atoms: N3_16  and  C9_18 
REMARK    9  A    between atoms: C9_18  and  C10_19 
REMARK   10  A    between atoms: C11_20  and  C12_21 
ROOT
HETATM    1  C1  UNL     1      13.969 -14.532  19.136  1.00  0.00     0.042 C 
HETATM    2  C2  UNL     1      13.896 -13.093  19.521  1.00  0.00     0.169 C 
ENDROOT
BRANCH   2   3
HETATM    3  N1  UNL     1      13.136 -12.727  20.622  1.00  0.00    -0.390 N 
ATOM      4  H1  UNL     1      13.132 -11.743  20.891  1.00  0.00     0.159 HD
BRANCH   3   5
HETATM    5  C3  UNL     1      12.380 -13.609  21.383  1.00  0.00     0.058 C 
BRANCH   5   6
HETATM    6  C4  UNL     1      12.339 -13.358  22.847  1.00  0.00     0.064 C 
BRANCH   6   7
HETATM    7  C5  UNL     1      11.046 -12.692  23.284  1.00  0.00     0.128 C 
BRANCH   7   8
HETATM    8  N2  UNL     1      11.279 -11.581  24.164  1.00  0.00    -0.355 N 
HETATM    9  C6  UNL     1      11.739 -10.362  23.607  1.00  0.00     0.279 C 
HETATM   10  O1  UNL     1      11.939 -10.247  22.368  1.00  0.00    -0.265 OA
ATOM     11  H2  UNL     1      11.118 -11.667  25.167  1.00  0.00     0.162 HD
BRANCH   9  12
HETATM   12  C7  UNL     1      11.993  -9.210  24.457  1.00  0.00     0.332 C 
HETATM   13  O2  UNL     1      13.096  -8.632  24.410  1.00  0.00    -0.297 OA
ENDBRANCH   9  12
ENDBRANCH   7   8
ENDBRANCH   6   7
ENDBRANCH   5   6
ENDBRANCH   3   5
ENDBRANCH   2   3
BRANCH   2  14
HETATM   14  C8  UNL     1      15.328 -12.658  19.810  1.00  0.00     0.239 C 
HETATM   15  O3  UNL     1      16.016 -12.081  18.938  1.00  0.00    -0.271 OA
HETATM   16  N3  UNL     1      15.897 -12.906  21.076  1.00  0.00    -0.359 N 
ATOM     17  H3  UNL     1      15.344 -13.381  21.790  1.00  0.00     0.162 HD
BRANCH  16  18
HETATM   18  C9  UNL     1      17.243 -12.503  21.378  1.00  0.00     0.128 C 
BRANCH  18  19
HETATM   19  C10 UNL     1      18.024 -13.629  22.049  1.00  0.00     0.020 A 
HETATM   20  C11 UNL     1      18.124 -14.887  21.297  1.00  0.00     0.023 A 
HETATM   21  C14 UNL     1      19.346 -13.990  21.514  1.00  0.00    -0.035 A 
HETATM   22  C15 UNL     1      20.401 -14.436  22.494  1.00  0.00     0.016 C 
HETATM   23  C16 UNL     1      19.890 -13.396  20.254  1.00  0.00     0.016 C 
BRANCH  20  24
HETATM   24  C12 UNL     1      18.279 -16.214  21.903  1.00  0.00    -0.014 C 
HETATM   25  C13 UNL     1      17.455 -17.227  21.760  1.00  0.00     0.052 C 
HETATM   26 BR1  UNL     1      17.835 -18.889  22.637  1.00  0.00    -0.064 Br
ENDBRANCH  20  24
ENDBRANCH  18  19
ENDBRANCH  16  18
ENDBRANCH   2  14
TORSDOF 10
ENDMDL
MODEL 4
REMARK VINA RESULT: -6.249731404      2.268      3.031
REMARK  10 active torsions:
REMARK  status: ('A' for Active; 'I' for Inactive)
REMARK    1  A    between atoms: C2_2  and  N1_3 
REMARK    2  A    between atoms: C2_2  and  C8_14 
REMARK    3  A    between atoms: N1_3  and  C3_5 
REMARK    4  A    between atoms: C3_5  and  C4_6 
REMARK    5  A    between atoms: C4_6  and  C5_7 
REMARK    6  A    between atoms: C5_7  and  N2_8 
REMARK       I    between atoms: N2_8  and  C6_10 
REMARK    7  A    between atoms: C6_10  and  C7_12 
REMARK       I    between atoms: C8_14  and  N3_16 
REMARK    8  A    between atoms: N3_16  and  C9_18 
REMARK    9  A    between atoms: C9_18  and  C10_19 
REMARK   10  A    between atoms: C11_20  and  C12_21 
ROOT
HETATM    1  C1  UNL     1      16.666 -13.180  19.244  1.00  0.00     0.042 C 
HETATM    2  C2  UNL     1      16.673 -12.725  20.665  1.00  0.00     0.169 C 
ENDROOT
BRANCH   2   3
HETATM    3  N1  UNL     1      15.767 -13.282  21.555  1.00  0.00    -0.390 N 
ATOM      4  H1  UNL     1      16.103 -14.018  22.176  1.00  0.00     0.159 HD
BRANCH   3   5
HETATM    5  C3  UNL     1      14.435 -12.905  21.660  1.00  0.00     0.058 C 
BRANCH   5   6
HETATM    6  C4  UNL     1      13.436 -14.004  21.717  1.00  0.00     0.064 C 
BRANCH   6   7
HETATM    7  C5  UNL     1      12.013 -13.487  21.837  1.00  0.00     0.128 C 
BRANCH   7   8
HETATM    8  N2  UNL     1      11.746 -12.930  23.134  1.00  0.00    -0.355 N 
HETATM    9  C6  UNL     1      11.531 -11.533  23.239  1.00  0.00     0.279 C 
HETATM   10  O1  UNL     1      11.570 -10.790  22.222  1.00  0.00    -0.265 OA
ATOM     11  H2  UNL     1      11.712 -13.526  23.960  1.00  0.00     0.162 HD
BRANCH   9  12
HETATM   12  C7  UNL     1      11.261 -10.923  24.531  1.00  0.00     0.332 C 
HETATM   13  O2  UNL     1      11.474  -9.707  24.702  1.00  0.00    -0.297 OA
ENDBRANCH   9  12
ENDBRANCH   7   8
ENDBRANCH   6   7
ENDBRANCH   5   6
ENDBRANCH   3   5
ENDBRANCH   2   3
BRANCH   2  14
HETATM   14  C8  UNL     1      18.065 -13.031  21.201  1.00  0.00     0.239 C 
HETATM   15  O3  UNL     1      19.081 -12.487  20.712  1.00  0.00    -0.271 OA
HETATM   16  N3  UNL     1      18.224 -13.943  22.266  1.00  0.00    -0.359 N 
ATOM     17  H3  UNL     1      17.401 -14.394  22.666  1.00  0.00     0.162 HD
BRANCH  16  18
HETATM   18  C9  UNL     1      19.524 -14.247  22.797  1.00  0.00     0.128 C 
BRANCH  18  19
HETATM   19  C10 UNL     1      19.453 -14.588  24.283  1.00  0.00     0.020 A 
HETATM   20  C11 UNL     1      20.034 -15.877  24.682  1.00  0.00     0.023 A 
HETATM   21  C14 UNL     1      20.690 -14.551  25.077  1.00  0.00    -0.035 A 
HETATM   22  C15 UNL     1      20.589 -14.098  26.512  1.00  0.00     0.016 C 
HETATM   23  C16 UNL     1      22.035 -14.335  24.458  1.00  0.00     0.016 C 
BRANCH  20  24
HETATM   24  C12 UNL     1      19.603 -16.665  25.842  1.00  0.00    -0.014 C 
HETATM   25  C13 UNL     1      18.931 -17.793  25.799  1.00  0.00     0.052 C 
HETATM   26 BR1  UNL     1      18.461 -18.678  27.434  1.00  0.00    -0.064 Br
ENDBRANCH  20  24
ENDBRANCH  18  19
ENDBRANCH  16  18
ENDBRANCH   2  14
TORSDOF 10
ENDMDL
MODEL 5
REMARK VINA RESULT: -6.146330528      2.421      3.414
REMARK  10 active torsions:
REMARK  status: ('A' for Active; 'I' for Inactive)
REMARK    1  A    between atoms: C2_2  and  N1_3 
REMARK    2  A    between atoms: C2_2  and  C8_14 
REMARK    3  A    between atoms: N1_3  and  C3_5 
REMARK    4  A    between atoms: C3_5  and  C4_6 
REMARK    5  A    between atoms: C4_6  and  C5_7 
REMARK    6  A    between atoms: C5_7  and  N2_8 
REMARK       I    between atoms: N2_8  and  C6_10 
REMARK    7  A    between atoms: C6_10  and  C7_12 
REMARK       I    between atoms: C8_14  and  N3_16 
REMARK    8  A    between atoms: N3_16  and  C9_18 
REMARK    9  A    between atoms: C9_18  and  C10_19 
REMARK   10  A    between atoms: C11_20  and  C12_21 
ROOT
HETATM    1  C1  UNL     1      12.683 -15.626  20.643  1.00  0.00     0.042 C 
HETATM    2  C2  UNL     1      13.955 -15.500  19.874  1.00  0.00     0.169 C 
ENDROOT
BRANCH   2   3
HETATM    3  N1  UNL     1      14.401 -14.238  19.512  1.00  0.00    -0.390 N 
ATOM      4  H1  UNL     1      13.819 -13.439  19.761  1.00  0.00     0.159 HD
BRANCH   3   5
HETATM    5  C3  UNL     1      15.586 -13.989  18.834  1.00  0.00     0.058 C 
BRANCH   5   6
HETATM    6  C4  UNL     1      16.368 -12.804  19.273  1.00  0.00     0.064 C 
BRANCH   6   7
HETATM    7  C5  UNL     1      16.175 -12.496  20.747  1.00  0.00     0.128 C 
BRANCH   7   8
HETATM    8  N2  UNL     1      15.267 -11.403  20.959  1.00  0.00    -0.355 N 
HETATM    9  C6  UNL     1      14.106 -11.629  21.738  1.00  0.00     0.279 C 
HETATM   10  O1  UNL     1      13.869 -12.760  22.240  1.00  0.00    -0.265 OA
ATOM     11  H2  UNL     1      15.455 -10.485  20.557  1.00  0.00     0.162 HD
BRANCH   9  12
HETATM   12  C7  UNL     1      13.156 -10.554  21.977  1.00  0.00     0.332 C 
HETATM   13  O2  UNL     1      13.203  -9.906  23.040  1.00  0.00    -0.297 OA
ENDBRANCH   9  12
ENDBRANCH   7   8
ENDBRANCH   6   7
ENDBRANCH   5   6
ENDBRANCH   3   5
ENDBRANCH   2   3
BRANCH   2  14
HETATM   14  C8  UNL     1      15.040 -16.120  20.745  1.00  0.00     0.239 C 
HETATM   15  O3  UNL     1      15.740 -17.071  20.328  1.00  0.00    -0.271 OA
HETATM   16  N3  UNL     1      15.268 -15.622  22.045  1.00  0.00    -0.359 N 
ATOM     17  H3  UNL     1      14.698 -14.851  22.394  1.00  0.00     0.162 HD
BRANCH  16  18
HETATM   18  C9  UNL     1      16.288 -16.183  22.888  1.00  0.00     0.128 C 
BRANCH  18  19
HETATM   19  C10 UNL     1      17.457 -15.217  23.064  1.00  0.00     0.020 A 
HETATM   20  C11 UNL     1      18.517 -15.643  23.987  1.00  0.00     0.023 A 
HETATM   21  C14 UNL     1      18.759 -15.567  22.477  1.00  0.00    -0.035 A 
HETATM   22  C15 UNL     1      19.612 -14.446  21.940  1.00  0.00     0.016 C 
HETATM   23  C16 UNL     1      19.021 -16.896  21.842  1.00  0.00     0.016 C 
BRANCH  20  24
HETATM   24  C12 UNL     1      19.380 -14.731  24.747  1.00  0.00    -0.014 C 
HETATM   25  C13 UNL     1      19.807 -14.919  25.975  1.00  0.00     0.052 C 
HETATM   26 BR1  UNL     1      20.935 -13.606  26.798  1.00  0.00    -0.064 Br
ENDBRANCH  20  24
ENDBRANCH  18  19
ENDBRANCH  16  18
ENDBRANCH   2  14
TORSDOF 10
ENDMDL
