MODEL 1
REMARK VINA RESULT: -7.429715952      0.000      0.000
REMARK  13 active torsions:
REMARK  status: ('A' for Active; 'I' for Inactive)
REMARK    1  A    between atoms: C1_4  and  C2_5 
REMARK    2  A    between atoms: C1_4  and  N2_13 
REMARK    3  A    between atoms: C2_5  and  C3_6 
REMARK    4  A    between atoms: N2_13  and  C9_15 
REMARK    5  A    between atoms: C9_15  and  O1_16 
REMARK    6  A    between atoms: C9_15  and  N3_18 
REMARK    7  A    between atoms: N3_18  and  C10_21 
REMARK    8  A    between atoms: C10_21  and  C11_22 
REMARK    9  A    between atoms: C11_22  and  C12_23 
REMARK   10  A    between atoms: C12_23  and  S1_24 
REMARK   11  A    between atoms: S1_24  and  C13_26 
REMARK   12  A    between atoms: C13_26  and  C14_27 
REMARK   13  A    between atoms: C14_27  and  N4_28 
ROOT
HETATM    1  C9  UNL     1      17.186 -12.454  20.129  1.00  0.00     0.427 C 
ENDROOT
BRANCH   1   2
HETATM    2  N2  UNL     1      17.959 -12.959  21.232  1.00  0.00    -0.331 N 
ATOM      3  H2  UNL     1      17.616 -12.867  22.188  1.00  0.00     0.165 HD
BRANCH   2   4
HETATM    4  C1  UNL     1      19.200 -13.583  20.972  1.00  0.00     0.078 C 
HETATM    5  N1  UNL     1      20.175 -13.048  20.324  1.00  0.00    -0.389 N 
ATOM      6  H12 UNL     1      21.071 -13.499  20.136  1.00  0.00     0.157 HD
ATOM      7  H11 UNL     1      20.074 -12.102  19.955  1.00  0.00     0.157 HD
BRANCH   4   8
HETATM    8  C2  UNL     1      19.351 -14.980  21.516  1.00  0.00     0.114 C 
BRANCH   8   9
HETATM    9  C3  UNL     1      19.530 -14.833  22.989  1.00  0.00    -0.051 A 
HETATM   10  C4  UNL     1      18.484 -15.106  23.833  1.00  0.00     0.010 A 
HETATM   11  C5  UNL     1      18.647 -14.973  25.193  1.00  0.00     0.043 A 
HETATM   12  C6  UNL     1      19.839 -14.565  25.773  1.00  0.00     0.116 A 
HETATM   13  F1  UNL     1      19.965 -14.443  27.117  1.00  0.00    -0.206 F 
HETATM   14  C7  UNL     1      20.865 -14.301  24.892  1.00  0.00     0.043 A 
HETATM   15  C8  UNL     1      20.724 -14.429  23.531  1.00  0.00     0.010 A 
ENDBRANCH   8   9
ENDBRANCH   4   8
ENDBRANCH   2   4
ENDBRANCH   1   2
BRANCH   1  16
HETATM   16  O1  UNL     1      16.125 -11.727  20.649  1.00  0.00    -0.354 OA
ATOM     17  H1  UNL     1      16.456 -10.879  20.920  1.00  0.00     0.214 HD
ENDBRANCH   1  16
BRANCH   1  18
HETATM   18  N3  UNL     1      16.799 -13.542  19.281  1.00  0.00    -0.031 N 
ATOM     19  H32 UNL     1      17.275 -13.494  18.381  1.00  0.00     0.282 HD
ATOM     20  H31 UNL     1      17.180 -14.426  19.619  1.00  0.00     0.282 HD
BRANCH  18  21
HETATM   21  C10 UNL     1      15.375 -13.622  19.111  1.00  0.00     0.238 C 
BRANCH  21  22
HETATM   22  C11 UNL     1      14.853 -15.024  19.292  1.00  0.00     0.040 C 
BRANCH  22  23
HETATM   23  C12 UNL     1      15.306 -15.521  20.659  1.00  0.00     0.110 C 
BRANCH  23  24
HETATM   24  S1  UNL     1      14.532 -14.771  21.835  1.00  0.00     0.016 S 
HETATM   25  O2  UNL     1      15.259 -13.854  22.550  1.00  0.00    -0.258 OA
BRANCH  24  26
HETATM   26  C13 UNL     1      12.968 -14.752  21.991  1.00  0.00     0.129 C 
BRANCH  26  27
HETATM   27  C14 UNL     1      12.235 -13.594  21.445  1.00  0.00     0.140 C 
BRANCH  27  28
HETATM   28  N4  UNL     1      12.132 -12.440  22.273  1.00  0.00    -0.366 N 
HETATM   29  C15 UNL     1      11.301 -12.437  23.321  1.00  0.00     0.090 A 
HETATM   30  C16 UNL     1      11.202 -11.292  24.126  1.00  0.00     0.017 A 
HETATM   31  C17 UNL     1      11.955 -10.170  23.844  1.00  0.00     0.003 A 
HETATM   32  C18 UNL     1      12.798 -10.182  22.775  1.00  0.00     0.017 A 
HETATM   33  C19 UNL     1      12.869 -11.321  22.009  1.00  0.00     0.090 A 
ENDBRANCH  27  28
ENDBRANCH  26  27
ENDBRANCH  24  26
ENDBRANCH  23  24
ENDBRANCH  22  23
ENDBRANCH  21  22
ENDBRANCH  18  21
ENDBRANCH   1  18
TORSDOF 13
ENDMDL
MODEL 2
REMARK VINA RESULT: -7.343704544      2.677      7.234
REMARK  13 active torsions:
REMARK  status: ('A' for Active; 'I' for Inactive)
REMARK    1  A    between atoms: C1_4  and  C2_5 
REMARK    2  A    between atoms: C1_4  and  N2_13 
REMARK    3  A    between atoms: C2_5  and  C3_6 
REMARK    4  A    between atoms: N2_13  and  C9_15 
REMARK    5  A    between atoms: C9_15  and  O1_16 
REMARK    6  A    between atoms: C9_15  and  N3_18 
REMARK    7  A    between atoms: N3_18  and  C10_21 
REMARK    8  A    between atoms: C10_21  and  C11_22 
REMARK    9  A    between atoms: C11_22  and  C12_23 
REMARK   10  A    between atoms: C12_23  and  S1_24 
REMARK   11  A    between atoms: S1_24  and  C13_26 
REMARK   12  A    between atoms: C13_26  and  C14_27 
REMARK   13  A    between atoms: C14_27  and  N4_28 
ROOT
HETATM    1  C9  UNL     1      16.073 -12.376  20.497  1.00  0.00     0.427 C 
ENDROOT
BRANCH   1   2
HETATM    2  N2  UNL     1      15.439 -13.666  20.529  1.00  0.00    -0.331 N 
ATOM      3  H2  UNL     1      15.809 -14.438  19.975  1.00  0.00     0.165 HD
BRANCH   2   4
HETATM    4  C1  UNL     1      14.295 -13.850  21.339  1.00  0.00     0.078 C 
HETATM    5  N1  UNL     1      14.273 -14.501  22.450  1.00  0.00    -0.389 N 
ATOM      6  H12 UNL     1      13.448 -14.634  23.034  1.00  0.00     0.157 HD
ATOM      7  H11 UNL     1      15.131 -14.931  22.796  1.00  0.00     0.157 HD
BRANCH   4   8
HETATM    8  C2  UNL     1      13.027 -13.216  20.827  1.00  0.00     0.114 C 
BRANCH   8   9
HETATM    9  C3  UNL     1      12.567 -12.287  21.899  1.00  0.00    -0.051 A 
HETATM   10  C4  UNL     1      11.566 -12.675  22.753  1.00  0.00     0.010 A 
HETATM   11  C5  UNL     1      11.141 -11.820  23.743  1.00  0.00     0.043 A 
HETATM   12  C6  UNL     1      11.680 -10.557  23.932  1.00  0.00     0.116 A 
HETATM   13  F1  UNL     1      11.236  -9.739  24.918  1.00  0.00    -0.206 F 
HETATM   14  C7  UNL     1      12.682 -10.205  23.055  1.00  0.00     0.043 A 
HETATM   15  C8  UNL     1      13.123 -11.043  22.059  1.00  0.00     0.010 A 
ENDBRANCH   8   9
ENDBRANCH   4   8
ENDBRANCH   2   4
ENDBRANCH   1   2
BRANCH   1  16
HETATM   16  O1  UNL     1      16.235 -12.013  19.167  1.00  0.00    -0.354 OA
ATOM     17  H1  UNL     1      16.822 -11.267  19.138  1.00  0.00     0.214 HD
ENDBRANCH   1  16
BRANCH   1  18
HETATM   18  N3  UNL     1      17.292 -12.426  21.249  1.00  0.00    -0.031 N 
ATOM     19  H32 UNL     1      17.530 -11.508  21.625  1.00  0.00     0.282 HD
ATOM     20  H31 UNL     1      17.163 -12.932  22.126  1.00  0.00     0.282 HD
BRANCH  18  21
HETATM   21  C10 UNL     1      18.381 -12.974  20.490  1.00  0.00     0.238 C 
BRANCH  21  22
HETATM   22  C11 UNL     1      19.116 -14.055  21.239  1.00  0.00     0.040 C 
BRANCH  22  23
HETATM   23  C12 UNL     1      18.445 -14.225  22.597  1.00  0.00     0.110 C 
BRANCH  23  24
HETATM   24  S1  UNL     1      17.879 -15.705  22.783  1.00  0.00     0.016 S 
HETATM   25  O2  UNL     1      16.899 -16.094  21.907  1.00  0.00    -0.258 OA
BRANCH  24  26
HETATM   26  C13 UNL     1      18.587 -16.820  23.637  1.00  0.00     0.129 C 
BRANCH  26  27
HETATM   27  C14 UNL     1      20.026 -16.658  23.923  1.00  0.00     0.140 C 
BRANCH  27  28
HETATM   28  N4  UNL     1      20.390 -15.697  24.907  1.00  0.00    -0.366 N 
HETATM   29  C15 UNL     1      19.680 -15.588  26.035  1.00  0.00     0.090 A 
HETATM   30  C16 UNL     1      20.044 -14.632  26.996  1.00  0.00     0.017 A 
HETATM   31  C17 UNL     1      21.129 -13.805  26.785  1.00  0.00     0.003 A 
HETATM   32  C18 UNL     1      21.847 -13.923  25.634  1.00  0.00     0.017 A 
HETATM   33  C19 UNL     1      21.461 -14.870  24.716  1.00  0.00     0.090 A 
ENDBRANCH  27  28
ENDBRANCH  26  27
ENDBRANCH  24  26
ENDBRANCH  23  24
ENDBRANCH  22  23
ENDBRANCH  21  22
ENDBRANCH  18  21
ENDBRANCH   1  18
TORSDOF 13
ENDMDL
MODEL 3
REMARK VINA RESULT: -7.216287716      2.313      3.491
REMARK  13 active torsions:
REMARK  status: ('A' for Active; 'I' for Inactive)
REMARK    1  A    between atoms: C1_4  and  C2_5 
REMARK    2  A    between atoms: C1_4  and  N2_13 
REMARK    3  A    between atoms: C2_5  and  C3_6 
REMARK    4  A    between atoms: N2_13  and  C9_15 
REMARK    5  A    between atoms: C9_15  and  O1_16 
REMARK    6  A    between atoms: C9_15  and  N3_18 
REMARK    7  A    between atoms: N3_18  and  C10_21 
REMARK    8  A    between atoms: C10_21  and  C11_22 
REMARK    9  A    between atoms: C11_22  and  C12_23 
REMARK   10  A    between atoms: C12_23  and  S1_24 
REMARK   11  A    between atoms: S1_24  and  C13_26 
REMARK   12  A    between atoms: C13_26  and  C14_27 
REMARK   13  A    between atoms: C14_27  and  N4_28 
ROOT
HETATM    1  C9  UNL     1      17.711 -14.954  23.481  1.00  0.00     0.427 C 
ENDROOT
BRANCH   1   2
HETATM    2  N2  UNL     1      17.586 -15.027  24.911  1.00  0.00    -0.331 N 
ATOM      3  H2  UNL     1      17.337 -14.198  25.451  1.00  0.00     0.165 HD
BRANCH   2   4
HETATM    4  C1  UNL     1      17.812 -16.263  25.559  1.00  0.00     0.078 C 
HETATM    5  N1  UNL     1      17.300 -17.389  25.201  1.00  0.00    -0.389 N 
ATOM      6  H12 UNL     1      17.463 -18.281  25.668  1.00  0.00     0.157 HD
ATOM      7  H11 UNL     1      16.679 -17.423  24.393  1.00  0.00     0.157 HD
BRANCH   4   8
HETATM    8  C2  UNL     1      18.730 -16.212  26.753  1.00  0.00     0.114 C 
BRANCH   8   9
HETATM    9  C3  UNL     1      19.985 -15.559  26.282  1.00  0.00    -0.051 A 
HETATM   10  C4  UNL     1      20.307 -14.303  26.728  1.00  0.00     0.010 A 
HETATM   11  C5  UNL     1      21.465 -13.699  26.296  1.00  0.00     0.043 A 
HETATM   12  C6  UNL     1      22.347 -14.303  25.412  1.00  0.00     0.116 A 
HETATM   13  F1  UNL     1      23.480 -13.679  25.007  1.00  0.00    -0.206 F 
HETATM   14  C7  UNL     1      21.987 -15.564  24.988  1.00  0.00     0.043 A 
HETATM   15  C8  UNL     1      20.836 -16.186  25.407  1.00  0.00     0.010 A 
ENDBRANCH   8   9
ENDBRANCH   4   8
ENDBRANCH   2   4
ENDBRANCH   1   2
BRANCH   1  16
HETATM   16  O1  UNL     1      18.847 -14.213  23.189  1.00  0.00    -0.354 OA
ATOM     17  H1  UNL     1      19.478 -14.360  23.883  1.00  0.00     0.214 HD
ENDBRANCH   1  16
BRANCH   1  18
HETATM   18  N3  UNL     1      16.501 -14.426  22.923  1.00  0.00    -0.031 N 
ATOM     19  H32 UNL     1      15.845 -15.173  22.695  1.00  0.00     0.282 HD
ATOM     20  H31 UNL     1      15.952 -13.937  23.630  1.00  0.00     0.282 HD
BRANCH  18  21
HETATM   21  C10 UNL     1      16.746 -13.585  21.784  1.00  0.00     0.238 C 
BRANCH  21  22
HETATM   22  C11 UNL     1      16.876 -14.374  20.506  1.00  0.00     0.040 C 
BRANCH  22  23
HETATM   23  C12 UNL     1      15.554 -14.271  19.754  1.00  0.00     0.110 C 
BRANCH  23  24
HETATM   24  S1  UNL     1      15.120 -12.750  19.549  1.00  0.00     0.016 S 
HETATM   25  O2  UNL     1      15.911 -12.002  18.715  1.00  0.00    -0.258 OA
BRANCH  24  26
HETATM   26  C13 UNL     1      13.709 -12.174  19.937  1.00  0.00     0.129 C 
BRANCH  26  27
HETATM   27  C14 UNL     1      12.947 -12.873  20.990  1.00  0.00     0.140 C 
BRANCH  27  28
HETATM   28  N4  UNL     1      12.467 -12.087  22.076  1.00  0.00    -0.366 N 
HETATM   29  C15 UNL     1      12.920 -10.842  22.257  1.00  0.00     0.090 A 
HETATM   30  C16 UNL     1      12.445 -10.079  23.334  1.00  0.00     0.017 A 
HETATM   31  C17 UNL     1      11.514 -10.605  24.208  1.00  0.00     0.003 A 
HETATM   32  C18 UNL     1      11.058 -11.873  24.016  1.00  0.00     0.017 A 
HETATM   33  C19 UNL     1      11.546 -12.591  22.950  1.00  0.00     0.090 A 
ENDBRANCH  27  28
ENDBRANCH  26  27
ENDBRANCH  24  26
ENDBRANCH  23  24
ENDBRANCH  22  23
ENDBRANCH  21  22
ENDBRANCH  18  21
ENDBRANCH   1  18
TORSDOF 13
ENDMDL
MODEL 4
REMARK VINA RESULT: -7.075462728      2.013      2.974
REMARK  13 active torsions:
REMARK  status: ('A' for Active; 'I' for Inactive)
REMARK    1  A    between atoms: C1_4  and  C2_5 
REMARK    2  A    between atoms: C1_4  and  N2_13 
REMARK    3  A    between atoms: C2_5  and  C3_6 
REMARK    4  A    between atoms: N2_13  and  C9_15 
REMARK    5  A    between atoms: C9_15  and  O1_16 
REMARK    6  A    between atoms: C9_15  and  N3_18 
REMARK    7  A    between atoms: N3_18  and  C10_21 
REMARK    8  A    between atoms: C10_21  and  C11_22 
REMARK    9  A    between atoms: C11_22  and  C12_23 
REMARK   10  A    between atoms: C12_23  and  S1_24 
REMARK   11  A    between atoms: S1_24  and  C13_26 
REMARK   12  A    between atoms: C13_26  and  C14_27 
REMARK   13  A    between atoms: C14_27  and  N4_28 
ROOT
HETATM    1  C9  UNL     1      14.011 -15.867  21.828  1.00  0.00     0.427 C 
ENDROOT
BRANCH   1   2
HETATM    2  N2  UNL     1      15.358 -16.232  22.176  1.00  0.00    -0.331 N 
ATOM      3  H2  UNL     1      15.612 -17.212  22.296  1.00  0.00     0.165 HD
BRANCH   2   4
HETATM    4  C1  UNL     1      16.322 -15.214  22.351  1.00  0.00     0.078 C 
HETATM    5  N1  UNL     1      16.056 -13.977  22.591  1.00  0.00    -0.389 N 
ATOM      6  H12 UNL     1      16.753 -13.242  22.717  1.00  0.00     0.157 HD
ATOM      7  H11 UNL     1      15.084 -13.678  22.664  1.00  0.00     0.157 HD
BRANCH   4   8
HETATM    8  C2  UNL     1      17.759 -15.655  22.242  1.00  0.00     0.114 C 
BRANCH   8   9
HETATM    9  C3  UNL     1      18.375 -15.390  23.574  1.00  0.00    -0.051 A 
HETATM   10  C4  UNL     1      19.342 -14.424  23.697  1.00  0.00     0.010 A 
HETATM   11  C5  UNL     1      19.910 -14.178  24.925  1.00  0.00     0.043 A 
HETATM   12  C6  UNL     1      19.554 -14.867  26.074  1.00  0.00     0.116 A 
HETATM   13  F1  UNL     1      20.135 -14.598  27.269  1.00  0.00    -0.206 F 
HETATM   14  C7  UNL     1      18.580 -15.827  25.909  1.00  0.00     0.043 A 
HETATM   15  C8  UNL     1      17.998 -16.090  24.692  1.00  0.00     0.010 A 
ENDBRANCH   8   9
ENDBRANCH   4   8
ENDBRANCH   2   4
ENDBRANCH   1   2
BRANCH   1  16
HETATM   16  O1  UNL     1      13.191 -16.183  22.902  1.00  0.00    -0.354 OA
ATOM     17  H1  UNL     1      13.724 -16.174  23.689  1.00  0.00     0.214 HD
ENDBRANCH   1  16
BRANCH   1  18
HETATM   18  N3  UNL     1      13.647 -16.506  20.598  1.00  0.00    -0.031 N 
ATOM     19  H32 UNL     1      13.316 -17.456  20.761  1.00  0.00     0.282 HD
ATOM     20  H31 UNL     1      12.795 -16.101  20.211  1.00  0.00     0.282 HD
BRANCH  18  21
HETATM   21  C10 UNL     1      14.714 -16.486  19.636  1.00  0.00     0.238 C 
BRANCH  21  22
HETATM   22  C11 UNL     1      14.488 -15.465  18.550  1.00  0.00     0.040 C 
BRANCH  22  23
HETATM   23  C12 UNL     1      15.422 -14.289  18.809  1.00  0.00     0.110 C 
BRANCH  23  24
HETATM   24  S1  UNL     1      14.609 -12.926  18.970  1.00  0.00     0.016 S 
HETATM   25  O2  UNL     1      14.643 -12.072  17.898  1.00  0.00    -0.258 OA
BRANCH  24  26
HETATM   26  C13 UNL     1      13.529 -12.668  20.083  1.00  0.00     0.129 C 
BRANCH  26  27
HETATM   27  C14 UNL     1      13.772 -11.567  21.035  1.00  0.00     0.140 C 
BRANCH  27  28
HETATM   28  N4  UNL     1      12.880 -11.452  22.139  1.00  0.00    -0.366 N 
HETATM   29  C15 UNL     1      12.129 -12.496  22.508  1.00  0.00     0.090 A 
HETATM   30  C16 UNL     1      11.249 -12.370  23.593  1.00  0.00     0.017 A 
HETATM   31  C17 UNL     1      11.152 -11.177  24.281  1.00  0.00     0.003 A 
HETATM   32  C18 UNL     1      11.920 -10.119  23.898  1.00  0.00     0.017 A 
HETATM   33  C19 UNL     1      12.771 -10.280  22.831  1.00  0.00     0.090 A 
ENDBRANCH  27  28
ENDBRANCH  26  27
ENDBRANCH  24  26
ENDBRANCH  23  24
ENDBRANCH  22  23
ENDBRANCH  21  22
ENDBRANCH  18  21
ENDBRANCH   1  18
TORSDOF 13
ENDMDL
MODEL 5
REMARK VINA RESULT: -7.064819422      2.241      3.471
REMARK  13 active torsions:
REMARK  status: ('A' for Active; 'I' for Inactive)
REMARK    1  A    between atoms: C1_4  and  C2_5 
REMARK    2  A    between atoms: C1_4  and  N2_13 
REMARK    3  A    between atoms: C2_5  and  C3_6 
REMARK    4  A    between atoms: N2_13  and  C9_15 
REMARK    5  A    between atoms: C9_15  and  O1_16 
REMARK    6  A    between atoms: C9_15  and  N3_18 
REMARK    7  A    between atoms: N3_18  and  C10_21 
REMARK    8  A    between atoms: C10_21  and  C11_22 
REMARK    9  A    between atoms: C11_22  and  C12_23 
REMARK   10  A    between atoms: C12_23  and  S1_24 
REMARK   11  A    between atoms: S1_24  and  C13_26 
REMARK   12  A    between atoms: C13_26  and  C14_27 
REMARK   13  A    between atoms: C14_27  and  N4_28 
ROOT
HETATM    1  C9  UNL     1      18.088 -15.430  23.216  1.00  0.00     0.427 C 
ENDROOT
BRANCH   1   2
HETATM    2  N2  UNL     1      17.656 -15.444  24.587  1.00  0.00    -0.331 N 
ATOM      3  H2  UNL     1      17.103 -14.674  24.963  1.00  0.00     0.165 HD
BRANCH   2   4
HETATM    4  C1  UNL     1      18.008 -16.540  25.407  1.00  0.00     0.078 C 
HETATM    5  N1  UNL     1      17.759 -17.775  25.137  1.00  0.00    -0.389 N 
ATOM      6  H12 UNL     1      18.013 -18.566  25.730  1.00  0.00     0.157 HD
ATOM      7  H11 UNL     1      17.270 -18.011  24.274  1.00  0.00     0.157 HD
BRANCH   4   8
HETATM    8  C2  UNL     1      18.729 -16.192  26.683  1.00  0.00     0.114 C 
BRANCH   8   9
HETATM    9  C3  UNL     1      19.999 -15.526  26.272  1.00  0.00    -0.051 A 
HETATM   10  C4  UNL     1      20.993 -16.262  25.679  1.00  0.00     0.010 A 
HETATM   11  C5  UNL     1      22.164 -15.649  25.298  1.00  0.00     0.043 A 
HETATM   12  C6  UNL     1      22.403 -14.296  25.485  1.00  0.00     0.116 A 
HETATM   13  F1  UNL     1      23.570 -13.725  25.097  1.00  0.00    -0.206 F 
HETATM   14  C7  UNL     1      21.381 -13.592  26.083  1.00  0.00     0.043 A 
HETATM   15  C8  UNL     1      20.203 -14.184  26.471  1.00  0.00     0.010 A 
ENDBRANCH   8   9
ENDBRANCH   4   8
ENDBRANCH   2   4
ENDBRANCH   1   2
BRANCH   1  16
HETATM   16  O1  UNL     1      19.005 -16.457  23.046  1.00  0.00    -0.354 OA
ATOM     17  H1  UNL     1      18.954 -16.748  22.143  1.00  0.00     0.214 HD
ENDBRANCH   1  16
BRANCH   1  18
HETATM   18  N3  UNL     1      18.589 -14.128  22.888  1.00  0.00    -0.031 N 
ATOM     19  H32 UNL     1      18.033 -13.397  23.330  1.00  0.00     0.282 HD
ATOM     20  H31 UNL     1      19.484 -13.952  23.346  1.00  0.00     0.282 HD
BRANCH  18  21
HETATM   21  C10 UNL     1      18.683 -13.921  21.469  1.00  0.00     0.238 C 
BRANCH  21  22
HETATM   22  C11 UNL     1      17.699 -12.893  20.974  1.00  0.00     0.040 C 
BRANCH  22  23
HETATM   23  C12 UNL     1      16.579 -13.628  20.246  1.00  0.00     0.110 C 
BRANCH  23  24
HETATM   24  S1  UNL     1      15.236 -13.639  21.108  1.00  0.00     0.016 S 
HETATM   25  O2  UNL     1      15.390 -13.571  22.469  1.00  0.00    -0.258 OA
BRANCH  24  26
HETATM   26  C13 UNL     1      13.804 -13.375  20.515  1.00  0.00     0.129 C 
BRANCH  26  27
HETATM   27  C14 UNL     1      13.247 -12.014  20.640  1.00  0.00     0.140 C 
BRANCH  27  28
HETATM   28  N4  UNL     1      12.607 -11.683  21.867  1.00  0.00    -0.366 N 
HETATM   29  C15 UNL     1      11.805 -12.569  22.468  1.00  0.00     0.090 A 
HETATM   30  C16 UNL     1      11.173 -12.229  23.674  1.00  0.00     0.017 A 
HETATM   31  C17 UNL     1      11.374 -10.988  24.244  1.00  0.00     0.003 A 
HETATM   32  C18 UNL     1      12.192 -10.092  23.626  1.00  0.00     0.017 A 
HETATM   33  C19 UNL     1      12.793 -10.460  22.446  1.00  0.00     0.090 A 
ENDBRANCH  27  28
ENDBRANCH  26  27
ENDBRANCH  24  26
ENDBRANCH  23  24
ENDBRANCH  22  23
ENDBRANCH  21  22
ENDBRANCH  18  21
ENDBRANCH   1  18
TORSDOF 13
ENDMDL
