MODEL 1
REMARK VINA RESULT: -5.930363326      0.000      0.000
REMARK  5 active torsions:
REMARK  status: ('A' for Active; 'I' for Inactive)
REMARK    1  A    between atoms: N1_2  and  C3_4 
REMARK    2  A    between atoms: C5_6  and  N2_7 
REMARK    3  A    between atoms: N2_7  and  C6_10 
REMARK    4  A    between atoms: C6_10  and  C7_11 
REMARK    5  A    between atoms: C7_11  and  N3_12 
REMARK       I    between atoms: N3_12  and  C8_14 
ROOT
HETATM    1  N2  UNL     1      83.776  45.453  -8.559  1.00  0.00    -0.067 N 
ATOM      2  H21 UNL     1      83.708  46.324  -8.033  1.00  0.00     0.277 HD
ATOM      3  H22 UNL     1      82.812  45.136  -8.457  1.00  0.00     0.277 HD
ENDROOT
BRANCH   1   4
HETATM    4  C5  UNL     1      84.713  44.529  -7.948  1.00  0.00     0.221 A 
HETATM    5  C3  UNL     1      86.110  44.628  -8.353  1.00  0.00     0.254 A 
HETATM    6  C4  UNL     1      85.240  43.411  -8.765  1.00  0.00     0.073 A 
BRANCH   5   7
HETATM    7  N1  UNL     1      87.245  44.402  -7.524  1.00  0.00     0.086 N 
HETATM    8  C1  UNL     1      88.508  44.816  -8.041  1.00  0.00     0.310 C 
HETATM    9  C2  UNL     1      87.016  45.071  -6.254  1.00  0.00     0.310 C 
ENDBRANCH   5   7
ENDBRANCH   1   4
BRANCH   1  10
HETATM   10  C6  UNL     1      84.116  45.691  -9.946  1.00  0.00     0.252 C 
BRANCH  10  11
HETATM   11  C7  UNL     1      82.972  45.356 -10.872  1.00  0.00     0.150 C 
BRANCH  11  12
HETATM   12  N3  UNL     1      82.662  43.947 -10.769  1.00  0.00    -0.363 N 
HETATM   13  C8  UNL     1      81.344  43.500 -10.489  1.00  0.00     0.181 C 
HETATM   14  N4  UNL     1      80.826  43.658  -9.320  1.00  0.00    -0.374 N 
HETATM   15  N5  UNL     1      80.571  42.865 -11.509  1.00  0.00    -0.064 NA
ATOM     16  H42 UNL     1      81.378  44.111  -8.591  1.00  0.00     0.158 HD
ATOM     17  H41 UNL     1      79.880  43.337  -9.119  1.00  0.00     0.158 HD
ATOM     18  H3  UNL     1      83.405  43.261 -10.900  1.00  0.00     0.162 HD
ENDBRANCH  11  12
ENDBRANCH  10  11
ENDBRANCH   1  10
TORSDOF 5
ENDMDL
MODEL 2
REMARK VINA RESULT: -5.877018149      1.227      1.488
REMARK  5 active torsions:
REMARK  status: ('A' for Active; 'I' for Inactive)
REMARK    1  A    between atoms: N1_2  and  C3_4 
REMARK    2  A    between atoms: C5_6  and  N2_7 
REMARK    3  A    between atoms: N2_7  and  C6_10 
REMARK    4  A    between atoms: C6_10  and  C7_11 
REMARK    5  A    between atoms: C7_11  and  N3_12 
REMARK       I    between atoms: N3_12  and  C8_14 
ROOT
HETATM    1  N2  UNL     1      83.681  45.312  -8.491  1.00  0.00    -0.067 N 
ATOM      2  H21 UNL     1      83.826  45.609  -9.456  1.00  0.00     0.277 HD
ATOM      3  H22 UNL     1      83.791  46.216  -8.032  1.00  0.00     0.277 HD
ENDROOT
BRANCH   1   4
HETATM    4  C5  UNL     1      84.696  44.365  -8.063  1.00  0.00     0.221 A 
HETATM    5  C3  UNL     1      86.087  44.720  -8.312  1.00  0.00     0.254 A 
HETATM    6  C4  UNL     1      85.401  43.570  -9.094  1.00  0.00     0.073 A 
BRANCH   5   7
HETATM    7  N1  UNL     1      87.198  44.406  -7.479  1.00  0.00     0.086 N 
HETATM    8  C1  UNL     1      88.487  44.775  -7.965  1.00  0.00     0.310 C 
HETATM    9  C2  UNL     1      86.986  45.039  -6.187  1.00  0.00     0.310 C 
ENDBRANCH   5   7
ENDBRANCH   1   4
BRANCH   1  10
HETATM   10  C6  UNL     1      82.354  44.770  -8.293  1.00  0.00     0.252 C 
BRANCH  10  11
HETATM   11  C7  UNL     1      82.106  43.556  -9.154  1.00  0.00     0.150 C 
BRANCH  11  12
HETATM   12  N3  UNL     1      80.852  43.709  -9.858  1.00  0.00    -0.363 N 
HETATM   13  C8  UNL     1      80.656  43.153 -11.150  1.00  0.00     0.181 C 
HETATM   14  N4  UNL     1      81.249  43.650 -12.180  1.00  0.00    -0.374 N 
HETATM   15  N5  UNL     1      79.795  42.026 -11.321  1.00  0.00    -0.064 NA
ATOM     16  H42 UNL     1      81.864  44.454 -12.057  1.00  0.00     0.158 HD
ATOM     17  H41 UNL     1      81.108  43.250 -13.107  1.00  0.00     0.158 HD
ATOM     18  H3  UNL     1      80.092  44.228  -9.417  1.00  0.00     0.162 HD
ENDBRANCH  11  12
ENDBRANCH  10  11
ENDBRANCH   1  10
TORSDOF 5
ENDMDL
MODEL 3
REMARK VINA RESULT: -5.837975047      1.760      2.303
REMARK  5 active torsions:
REMARK  status: ('A' for Active; 'I' for Inactive)
REMARK    1  A    between atoms: N1_2  and  C3_4 
REMARK    2  A    between atoms: C5_6  and  N2_7 
REMARK    3  A    between atoms: N2_7  and  C6_10 
REMARK    4  A    between atoms: C6_10  and  C7_11 
REMARK    5  A    between atoms: C7_11  and  N3_12 
REMARK       I    between atoms: N3_12  and  C8_14 
ROOT
HETATM    1  N2  UNL     1      83.463  45.513  -8.433  1.00  0.00    -0.067 N 
ATOM      2  H21 UNL     1      83.221  46.492  -8.584  1.00  0.00     0.277 HD
ATOM      3  H22 UNL     1      84.046  45.624  -7.604  1.00  0.00     0.277 HD
ENDROOT
BRANCH   1   4
HETATM    4  C5  UNL     1      84.217  44.970  -9.549  1.00  0.00     0.221 A 
HETATM    5  C3  UNL     1      85.664  45.152  -9.529  1.00  0.00     0.254 A 
HETATM    6  C4  UNL     1      84.775  45.909 -10.550  1.00  0.00     0.073 A 
BRANCH   5   7
HETATM    7  N1  UNL     1      86.634  44.234 -10.023  1.00  0.00     0.086 N 
HETATM    8  C1  UNL     1      88.001  44.546  -9.762  1.00  0.00     0.310 C 
HETATM    9  C2  UNL     1      86.338  42.923  -9.468  1.00  0.00     0.310 C 
ENDBRANCH   5   7
ENDBRANCH   1   4
BRANCH   1  10
HETATM   10  C6  UNL     1      82.292  44.708  -8.161  1.00  0.00     0.252 C 
BRANCH  10  11
HETATM   11  C7  UNL     1      82.136  43.585  -9.159  1.00  0.00     0.150 C 
BRANCH  11  12
HETATM   12  N3  UNL     1      80.867  43.716  -9.839  1.00  0.00    -0.363 N 
HETATM   13  C8  UNL     1      80.658  43.155 -11.127  1.00  0.00     0.181 C 
HETATM   14  N4  UNL     1      81.223  43.662 -12.168  1.00  0.00    -0.374 N 
HETATM   15  N5  UNL     1      79.814  42.013 -11.284  1.00  0.00    -0.064 NA
ATOM     16  H42 UNL     1      81.826  44.478 -12.057  1.00  0.00     0.158 HD
ATOM     17  H41 UNL     1      81.073  43.259 -13.093  1.00  0.00     0.158 HD
ATOM     18  H3  UNL     1      80.106  44.221  -9.385  1.00  0.00     0.162 HD
ENDBRANCH  11  12
ENDBRANCH  10  11
ENDBRANCH   1  10
TORSDOF 5
ENDMDL
MODEL 4
REMARK VINA RESULT: -5.804263202      1.690      2.583
REMARK  5 active torsions:
REMARK  status: ('A' for Active; 'I' for Inactive)
REMARK    1  A    between atoms: N1_2  and  C3_4 
REMARK    2  A    between atoms: C5_6  and  N2_7 
REMARK    3  A    between atoms: N2_7  and  C6_10 
REMARK    4  A    between atoms: C6_10  and  C7_11 
REMARK    5  A    between atoms: C7_11  and  N3_12 
REMARK       I    between atoms: N3_12  and  C8_14 
ROOT
HETATM    1  N2  UNL     1      85.069  44.688  -7.734  1.00  0.00    -0.067 N 
ATOM      2  H21 UNL     1      84.599  45.547  -7.448  1.00  0.00     0.277 HD
ATOM      3  H22 UNL     1      84.607  44.040  -7.096  1.00  0.00     0.277 HD
ENDROOT
BRANCH   1   4
HETATM    4  C5  UNL     1      86.499  44.752  -7.492  1.00  0.00     0.221 A 
HETATM    5  C3  UNL     1      87.107  43.633  -6.782  1.00  0.00     0.254 A 
HETATM    6  C4  UNL     1      86.972  45.027  -6.116  1.00  0.00     0.073 A 
BRANCH   5   7
HETATM    7  N1  UNL     1      88.413  43.108  -7.000  1.00  0.00     0.086 N 
HETATM    8  C1  UNL     1      88.634  41.757  -6.599  1.00  0.00     0.310 C 
HETATM    9  C2  UNL     1      88.718  43.233  -8.416  1.00  0.00     0.310 C 
ENDBRANCH   5   7
ENDBRANCH   1   4
BRANCH   1  10
HETATM   10  C6  UNL     1      84.793  44.363  -9.117  1.00  0.00     0.252 C 
BRANCH  10  11
HETATM   11  C7  UNL     1      84.007  45.452  -9.806  1.00  0.00     0.150 C 
BRANCH  11  12
HETATM   12  N3  UNL     1      82.766  45.674  -9.098  1.00  0.00    -0.363 N 
HETATM   13  C8  UNL     1      81.955  44.590  -8.671  1.00  0.00     0.181 C 
HETATM   14  N4  UNL     1      81.296  43.882  -9.522  1.00  0.00    -0.374 N 
HETATM   15  N5  UNL     1      81.861  44.268  -7.282  1.00  0.00    -0.064 NA
ATOM     16  H42 UNL     1      81.363  44.111 -10.514  1.00  0.00     0.158 HD
ATOM     17  H41 UNL     1      80.713  43.103  -9.215  1.00  0.00     0.158 HD
ATOM     18  H3  UNL     1      82.467  46.629  -8.901  1.00  0.00     0.162 HD
ENDBRANCH  11  12
ENDBRANCH  10  11
ENDBRANCH   1  10
TORSDOF 5
ENDMDL
MODEL 5
REMARK VINA RESULT: -5.793036178      1.461      1.822
REMARK  5 active torsions:
REMARK  status: ('A' for Active; 'I' for Inactive)
REMARK    1  A    between atoms: N1_2  and  C3_4 
REMARK    2  A    between atoms: C5_6  and  N2_7 
REMARK    3  A    between atoms: N2_7  and  C6_10 
REMARK    4  A    between atoms: C6_10  and  C7_11 
REMARK    5  A    between atoms: C7_11  and  N3_12 
REMARK       I    between atoms: N3_12  and  C8_14 
ROOT
HETATM    1  N2  UNL     1      85.780  45.053 -10.189  1.00  0.00    -0.067 N 
ATOM      2  H21 UNL     1      85.951  44.399 -10.954  1.00  0.00     0.277 HD
ATOM      3  H22 UNL     1      86.672  45.546 -10.206  1.00  0.00     0.277 HD
ENDROOT
BRANCH   1   4
HETATM    4  C5  UNL     1      85.572  44.362  -8.929  1.00  0.00     0.221 A 
HETATM    5  C3  UNL     1      86.743  43.774  -8.289  1.00  0.00     0.254 A 
HETATM    6  C4  UNL     1      85.638  42.882  -8.914  1.00  0.00     0.073 A 
BRANCH   5   7
HETATM    7  N1  UNL     1      86.978  43.681  -6.888  1.00  0.00     0.086 N 
HETATM    8  C1  UNL     1      88.150  42.978  -6.481  1.00  0.00     0.310 C 
HETATM    9  C2  UNL     1      87.030  45.030  -6.349  1.00  0.00     0.310 C 
ENDBRANCH   5   7
ENDBRANCH   1   4
BRANCH   1  10
HETATM   10  C6  UNL     1      84.674  45.939 -10.480  1.00  0.00     0.252 C 
BRANCH  10  11
HETATM   11  C7  UNL     1      83.413  45.177 -10.810  1.00  0.00     0.150 C 
BRANCH  11  12
HETATM   12  N3  UNL     1      82.420  45.420  -9.787  1.00  0.00    -0.363 N 
HETATM   13  C8  UNL     1      81.832  44.351  -9.060  1.00  0.00     0.181 C 
HETATM   14  N4  UNL     1      80.996  43.548  -9.624  1.00  0.00    -0.374 N 
HETATM   15  N5  UNL     1      82.164  44.151  -7.685  1.00  0.00    -0.064 NA
ATOM     16  H42 UNL     1      80.759  43.691 -10.606  1.00  0.00     0.158 HD
ATOM     17  H41 UNL     1      80.574  42.781  -9.102  1.00  0.00     0.158 HD
ATOM     18  H3  UNL     1      82.136  46.378  -9.583  1.00  0.00     0.162 HD
ENDBRANCH  11  12
ENDBRANCH  10  11
ENDBRANCH   1  10
TORSDOF 5
ENDMDL
