MODEL 1
REMARK VINA RESULT: -6.088041737      0.000      0.000
REMARK  3 active torsions:
REMARK  status: ('A' for Active; 'I' for Inactive)
REMARK       I    between atoms: N1_2  and  C2_5 
REMARK       I    between atoms: C2_5  and  N2_6 
REMARK       I    between atoms: C2_5  and  N3_10 
REMARK    1  A    between atoms: N3_10  and  C3_13 
REMARK    2  A    between atoms: C3_13  and  C4_14 
REMARK    3  A    between atoms: C4_14  and  C5_15 
ROOT
HETATM    1  C1  UNL     1      89.866  40.914  -8.572  1.00  0.00     0.271 C 
HETATM    2  N1  UNL     1      89.607  42.106  -7.825  1.00  0.00    -0.026 N 
ATOM      3  H11 UNL     1      89.287  42.857  -8.436  1.00  0.00     0.281 HD
ATOM      4  H12 UNL     1      90.475  42.523  -7.490  1.00  0.00     0.281 HD
HETATM    5  C2  UNL     1      88.674  41.891  -6.730  1.00  0.00     0.577 C 
HETATM    6  N2  UNL     1      89.265  40.904  -5.855  1.00  0.00    -0.026 N 
ATOM      7  H21 UNL     1      88.611  40.754  -5.087  1.00  0.00     0.278 HD
ATOM      8  H22 UNL     1      90.201  41.158  -5.539  1.00  0.00     0.278 HD
ATOM      9  H23 UNL     1      89.520  40.042  -6.338  1.00  0.00     0.278 HD
HETATM   10  N3  UNL     1      88.519  43.183  -6.047  1.00  0.00    -0.021 N 
ATOM     11  H31 UNL     1      89.374  43.511  -5.597  1.00  0.00     0.281 HD
ATOM     12  H32 UNL     1      87.949  43.132  -5.203  1.00  0.00     0.281 HD
ENDROOT
BRANCH  10  13
HETATM   13  C3  UNL     1      88.000  44.099  -7.043  1.00  0.00     0.243 C 
BRANCH  13  14
HETATM   14  C4  UNL     1      86.645  44.647  -6.646  1.00  0.00     0.086 C 
BRANCH  14  15
HETATM   15  C5  UNL     1      85.673  44.199  -7.675  1.00  0.00     0.027 A 
HETATM   16  C6  UNL     1      85.820  43.300  -8.708  1.00  0.00     0.114 A 
HETATM   17  N4  UNL     1      84.636  43.226  -9.383  1.00  0.00    -0.360 N 
HETATM   18  C7  UNL     1      83.776  44.054  -8.790  1.00  0.00     0.180 A 
ATOM     19  H4  UNL     1      84.443  42.642 -10.197  1.00  0.00     0.166 HD
HETATM   20  N5  UNL     1      84.402  44.636  -7.766  1.00  0.00    -0.355 N 
ATOM     21  H5  UNL     1      83.976  45.317  -7.138  1.00  0.00     0.166 HD
ENDBRANCH  14  15
ENDBRANCH  13  14
ENDBRANCH  10  13
TORSDOF 3
ENDMDL
MODEL 2
REMARK VINA RESULT: -5.933485823      2.139      3.069
REMARK  3 active torsions:
REMARK  status: ('A' for Active; 'I' for Inactive)
REMARK       I    between atoms: N1_2  and  C2_5 
REMARK       I    between atoms: C2_5  and  N2_6 
REMARK       I    between atoms: C2_5  and  N3_10 
REMARK    1  A    between atoms: N3_10  and  C3_13 
REMARK    2  A    between atoms: C3_13  and  C4_14 
REMARK    3  A    between atoms: C4_14  and  C5_15 
ROOT
HETATM    1  C1  UNL     1      89.664  44.939  -8.826  1.00  0.00     0.271 C 
HETATM    2  N1  UNL     1      88.318  45.189  -8.417  1.00  0.00    -0.026 N 
ATOM      3  H11 UNL     1      87.731  45.425  -9.217  1.00  0.00     0.281 HD
ATOM      4  H12 UNL     1      88.250  46.066  -7.899  1.00  0.00     0.281 HD
HETATM    5  C2  UNL     1      87.747  44.089  -7.656  1.00  0.00     0.577 C 
HETATM    6  N2  UNL     1      88.573  43.909  -6.483  1.00  0.00    -0.026 N 
ATOM      7  H21 UNL     1      88.172  43.138  -5.950  1.00  0.00     0.278 HD
ATOM      8  H22 UNL     1      88.679  44.762  -5.934  1.00  0.00     0.278 HD
ATOM      9  H23 UNL     1      89.559  43.773  -6.705  1.00  0.00     0.278 HD
HETATM   10  N3  UNL     1      86.382  44.491  -7.290  1.00  0.00    -0.021 N 
ATOM     11  H31 UNL     1      86.349  45.288  -6.654  1.00  0.00     0.281 HD
ATOM     12  H32 UNL     1      85.913  43.825  -6.677  1.00  0.00     0.281 HD
ENDROOT
BRANCH  10  13
HETATM   13  C3  UNL     1      85.686  44.717  -8.540  1.00  0.00     0.243 C 
BRANCH  13  14
HETATM   14  C4  UNL     1      84.740  43.580  -8.869  1.00  0.00     0.086 C 
BRANCH  14  15
HETATM   15  C5  UNL     1      83.361  44.122  -8.796  1.00  0.00     0.027 A 
HETATM   16  C6  UNL     1      82.166  43.578  -9.213  1.00  0.00     0.114 A 
HETATM   17  N4  UNL     1      81.169  44.465  -8.927  1.00  0.00    -0.360 N 
HETATM   18  C7  UNL     1      81.723  45.530  -8.348  1.00  0.00     0.180 A 
ATOM     19  H4  UNL     1      80.176  44.336  -9.121  1.00  0.00     0.166 HD
HETATM   20  N5  UNL     1      83.038  45.320  -8.271  1.00  0.00    -0.355 N 
ATOM     21  H5  UNL     1      83.708  45.977  -7.870  1.00  0.00     0.166 HD
ENDBRANCH  14  15
ENDBRANCH  13  14
ENDBRANCH  10  13
TORSDOF 3
ENDMDL
MODEL 3
REMARK VINA RESULT: -5.905261974      2.055      5.892
REMARK  3 active torsions:
REMARK  status: ('A' for Active; 'I' for Inactive)
REMARK       I    between atoms: N1_2  and  C2_5 
REMARK       I    between atoms: C2_5  and  N2_6 
REMARK       I    between atoms: C2_5  and  N3_10 
REMARK    1  A    between atoms: N3_10  and  C3_13 
REMARK    2  A    between atoms: C3_13  and  C4_14 
REMARK    3  A    between atoms: C4_14  and  C5_15 
ROOT
HETATM    1  C1  UNL     1      82.239  45.115 -12.267  1.00  0.00     0.271 C 
HETATM    2  N1  UNL     1      82.982  44.363 -11.305  1.00  0.00    -0.026 N 
ATOM      3  H11 UNL     1      83.872  44.816 -11.096  1.00  0.00     0.281 HD
ATOM      4  H12 UNL     1      83.331  43.494 -11.710  1.00  0.00     0.281 HD
HETATM    5  C2  UNL     1      82.228  44.105 -10.088  1.00  0.00     0.577 C 
HETATM    6  N2  UNL     1      81.052  43.356 -10.467  1.00  0.00    -0.026 N 
ATOM      7  H21 UNL     1      80.523  43.175  -9.614  1.00  0.00     0.278 HD
ATOM      8  H22 UNL     1      81.268  42.508 -10.990  1.00  0.00     0.278 HD
ATOM      9  H23 UNL     1      80.499  43.817 -11.190  1.00  0.00     0.278 HD
HETATM   10  N3  UNL     1      83.102  43.316  -9.209  1.00  0.00    -0.021 N 
ATOM     11  H31 UNL     1      83.321  42.390  -9.577  1.00  0.00     0.281 HD
ATOM     12  H32 UNL     1      82.642  43.003  -8.354  1.00  0.00     0.281 HD
ENDROOT
BRANCH  10  13
HETATM   13  C3  UNL     1      84.272  44.137  -8.971  1.00  0.00     0.243 C 
BRANCH  13  14
HETATM   14  C4  UNL     1      85.535  43.303  -8.896  1.00  0.00     0.086 C 
BRANCH  14  15
HETATM   15  C5  UNL     1      86.313  43.790  -7.730  1.00  0.00     0.027 A 
HETATM   16  C6  UNL     1      87.524  43.367  -7.227  1.00  0.00     0.114 A 
HETATM   17  N4  UNL     1      87.824  44.131  -6.136  1.00  0.00    -0.360 N 
HETATM   18  C7  UNL     1      86.832  45.005  -5.964  1.00  0.00     0.180 A 
ATOM     19  H4  UNL     1      88.659  44.049  -5.556  1.00  0.00     0.166 HD
HETATM   20  N5  UNL     1      85.928  44.797  -6.922  1.00  0.00    -0.355 N 
ATOM     21  H5  UNL     1      85.063  45.327  -7.028  1.00  0.00     0.166 HD
ENDBRANCH  14  15
ENDBRANCH  13  14
ENDBRANCH  10  13
TORSDOF 3
ENDMDL
MODEL 4
REMARK VINA RESULT: -5.883124062      1.943      5.878
REMARK  3 active torsions:
REMARK  status: ('A' for Active; 'I' for Inactive)
REMARK       I    between atoms: N1_2  and  C2_5 
REMARK       I    between atoms: C2_5  and  N2_6 
REMARK       I    between atoms: C2_5  and  N3_10 
REMARK    1  A    between atoms: N3_10  and  C3_13 
REMARK    2  A    between atoms: C3_13  and  C4_14 
REMARK    3  A    between atoms: C4_14  and  C5_15 
ROOT
HETATM    1  C1  UNL     1      80.938  43.274 -10.481  1.00  0.00     0.271 C 
HETATM    2  N1  UNL     1      81.998  43.267  -9.522  1.00  0.00    -0.026 N 
ATOM      3  H11 UNL     1      82.820  42.787  -9.889  1.00  0.00     0.281 HD
ATOM      4  H12 UNL     1      81.781  42.649  -8.741  1.00  0.00     0.281 HD
HETATM    5  C2  UNL     1      82.340  44.601  -9.052  1.00  0.00     0.577 C 
HETATM    6  N2  UNL     1      81.152  45.154  -8.441  1.00  0.00    -0.026 N 
ATOM      7  H21 UNL     1      81.392  46.089  -8.111  1.00  0.00     0.278 HD
ATOM      8  H22 UNL     1      80.766  44.559  -7.708  1.00  0.00     0.278 HD
ATOM      9  H23 UNL     1      80.342  45.143  -9.060  1.00  0.00     0.278 HD
HETATM   10  N3  UNL     1      83.419  44.439  -8.068  1.00  0.00    -0.021 N 
ATOM     11  H31 UNL     1      83.133  43.935  -7.229  1.00  0.00     0.281 HD
ATOM     12  H32 UNL     1      83.682  45.309  -7.606  1.00  0.00     0.281 HD
ENDROOT
BRANCH  10  13
HETATM   13  C3  UNL     1      84.512  43.807  -8.779  1.00  0.00     0.243 C 
BRANCH  13  14
HETATM   14  C4  UNL     1      85.777  44.639  -8.714  1.00  0.00     0.086 C 
BRANCH  14  15
HETATM   15  C5  UNL     1      86.547  44.174  -7.534  1.00  0.00     0.027 A 
HETATM   16  C6  UNL     1      86.658  44.716  -6.272  1.00  0.00     0.114 A 
HETATM   17  N4  UNL     1      87.487  43.919  -5.536  1.00  0.00    -0.360 N 
HETATM   18  C7  UNL     1      87.882  42.912  -6.314  1.00  0.00     0.180 A 
ATOM     19  H4  UNL     1      87.756  44.069  -4.563  1.00  0.00     0.166 HD
HETATM   20  N5  UNL     1      87.316  43.069  -7.511  1.00  0.00    -0.355 N 
ATOM     21  H5  UNL     1      87.448  42.438  -8.301  1.00  0.00     0.166 HD
ENDBRANCH  14  15
ENDBRANCH  13  14
ENDBRANCH  10  13
TORSDOF 3
ENDMDL
MODEL 5
REMARK VINA RESULT: -5.829197683      1.691      5.705
REMARK  3 active torsions:
REMARK  status: ('A' for Active; 'I' for Inactive)
REMARK       I    between atoms: N1_2  and  C2_5 
REMARK       I    between atoms: C2_5  and  N2_6 
REMARK       I    between atoms: C2_5  and  N3_10 
REMARK    1  A    between atoms: N3_10  and  C3_13 
REMARK    2  A    between atoms: C3_13  and  C4_14 
REMARK    3  A    between atoms: C4_14  and  C5_15 
ROOT
HETATM    1  C1  UNL     1      82.619  45.096 -11.481  1.00  0.00     0.271 C 
HETATM    2  N1  UNL     1      83.081  44.387 -10.330  1.00  0.00    -0.026 N 
ATOM      3  H11 UNL     1      83.914  43.841 -10.547  1.00  0.00     0.281 HD
ATOM      4  H12 UNL     1      82.444  43.627 -10.088  1.00  0.00     0.281 HD
HETATM    5  C2  UNL     1      83.309  45.257  -9.187  1.00  0.00     0.577 C 
HETATM    6  N2  UNL     1      82.049  45.893  -8.877  1.00  0.00    -0.026 N 
ATOM      7  H21 UNL     1      82.209  46.503  -8.076  1.00  0.00     0.278 HD
ATOM      8  H22 UNL     1      81.291  45.227  -8.727  1.00  0.00     0.278 HD
ATOM      9  H23 UNL     1      81.639  46.379  -9.675  1.00  0.00     0.278 HD
HETATM   10  N3  UNL     1      83.758  44.398  -8.083  1.00  0.00    -0.021 N 
ATOM     11  H31 UNL     1      83.047  43.738  -7.766  1.00  0.00     0.281 HD
ATOM     12  H32 UNL     1      83.867  44.894  -7.199  1.00  0.00     0.281 HD
ENDROOT
BRANCH  10  13
HETATM   13  C3  UNL     1      84.975  43.761  -8.545  1.00  0.00     0.243 C 
BRANCH  13  14
HETATM   14  C4  UNL     1      86.207  44.538  -8.125  1.00  0.00     0.086 C 
BRANCH  14  15
HETATM   15  C5  UNL     1      87.031  43.632  -7.287  1.00  0.00     0.027 A 
HETATM   16  C6  UNL     1      87.263  43.640  -5.929  1.00  0.00     0.114 A 
HETATM   17  N4  UNL     1      88.095  42.598  -5.631  1.00  0.00    -0.360 N 
HETATM   18  C7  UNL     1      88.372  41.959  -6.767  1.00  0.00     0.180 A 
ATOM     19  H4  UNL     1      88.442  42.353  -4.704  1.00  0.00     0.166 HD
HETATM   20  N5  UNL     1      87.731  42.582  -7.758  1.00  0.00    -0.355 N 
ATOM     21  H5  UNL     1      87.768  42.302  -8.738  1.00  0.00     0.166 HD
ENDBRANCH  14  15
ENDBRANCH  13  14
ENDBRANCH  10  13
TORSDOF 3
ENDMDL
