MODEL 1
REMARK VINA RESULT: -7.660456123      0.000      0.000
REMARK  11 active torsions:
REMARK  status: ('A' for Active; 'I' for Inactive)
REMARK    1  A    between atoms: C2_2  and  N1_3 
REMARK       I    between atoms: N1_3  and  C4_5 
REMARK    2  A    between atoms: C4_5  and  C5_7 
REMARK    3  A    between atoms: C5_7  and  C6_8 
REMARK    4  A    between atoms: C6_8  and  C7_9 
REMARK    5  A    between atoms: C7_9  and  C8_10 
REMARK    6  A    between atoms: C12_15  and  C13_16 
REMARK    7  A    between atoms: C14_17  and  C15_18 
REMARK    8  A    between atoms: C17_22  and  N3_23 
REMARK    9  A    between atoms: N3_23  and  C18_25 
REMARK   10  A    between atoms: C18_25  and  C19_26 
REMARK   11  A    between atoms: C19_26  and  N4_27 
ROOT
HETATM    1  C13 UNL     1      18.097 -14.242  21.858  1.00  0.00    -0.060 C 
HETATM    2  C14 UNL     1      18.811 -14.681  22.730  1.00  0.00    -0.059 C 
ENDROOT
BRANCH   2   3
HETATM    3  C15 UNL     1      19.664 -15.222  23.752  1.00  0.00     0.050 A 
HETATM    4  C16 UNL     1      20.868 -14.636  24.082  1.00  0.00     0.128 A 
HETATM    5  N2  UNL     1      21.652 -15.157  25.041  1.00  0.00    -0.201 N 
HETATM    6  C17 UNL     1      21.299 -16.282  25.728  1.00  0.00     0.677 A 
ATOM      7  H2  UNL     1      22.536 -14.699  25.262  1.00  0.00     0.183 HD
HETATM    8  N7  UNL     1      20.133 -16.868  25.422  1.00  0.00    -0.201 N 
HETATM    9  C21 UNL     1      19.331 -16.365  24.467  1.00  0.00     0.128 A 
ATOM     10  H7  UNL     1      19.848 -17.711  25.923  1.00  0.00     0.183 HD
BRANCH   6  11
HETATM   11  N3  UNL     1      22.069 -16.760  26.641  1.00  0.00    -0.224 N 
ATOM     12  H3  UNL     1      22.200 -16.182  27.471  1.00  0.00     0.177 HD
BRANCH  11  13
HETATM   13  C18 UNL     1      22.758 -18.002  26.622  1.00  0.00     0.157 C 
BRANCH  13  14
HETATM   14  C19 UNL     1      24.068 -17.944  25.864  1.00  0.00     0.142 C 
BRANCH  14  15
HETATM   15  N4  UNL     1      23.845 -18.424  24.502  1.00  0.00    -0.365 N 
HETATM   16  C20 UNL     1      23.928 -17.624  23.473  1.00  0.00     0.197 C 
HETATM   17  N5  UNL     1      24.240 -16.254  23.648  1.00  0.00    -0.067 NA
HETATM   18  N6  UNL     1      23.688 -18.223  22.204  1.00  0.00    -0.067 NA
ATOM     19  H4  UNL     1      23.620 -19.407  24.351  1.00  0.00     0.161 HD
ENDBRANCH  14  15
ENDBRANCH  13  14
ENDBRANCH  11  13
ENDBRANCH   6  11
ENDBRANCH   2   3
BRANCH   1  20
HETATM   20  C12 UNL     1      17.250 -13.741  20.812  1.00  0.00     0.035 A 
HETATM   21  C11 UNL     1      17.750 -13.206  19.636  1.00  0.00     0.029 A 
HETATM   22  C10 UNL     1      16.951 -12.723  18.623  1.00  0.00     0.021 A 
HETATM   23 BR1  UNL     1      19.660 -13.143  19.418  1.00  0.00    -0.050 Br
HETATM   24  C9  UNL     1      15.571 -12.786  18.818  1.00  0.00     0.008 A 
HETATM   25  C8  UNL     1      15.048 -13.310  19.972  1.00  0.00    -0.057 A 
HETATM   26  C22 UNL     1      15.869 -13.787  20.970  1.00  0.00     0.029 A 
BRANCH  25  27
HETATM   27  C7  UNL     1      13.571 -13.356  20.133  1.00  0.00     0.039 C 
BRANCH  27  28
HETATM   28  C6  UNL     1      13.101 -11.965  20.389  1.00  0.00     0.014 C 
BRANCH  28  29
HETATM   29  C5  UNL     1      13.342 -11.456  21.766  1.00  0.00     0.103 C 
BRANCH  29  30
HETATM   30  C4  UNL     1      12.313 -11.788  22.764  1.00  0.00     0.219 C 
HETATM   31  N1  UNL     1      11.871 -10.809  23.685  1.00  0.00    -0.357 N 
HETATM   32  C3  UNL     1      10.856 -11.136  24.666  1.00  0.00     0.152 C 
HETATM   33  O1  UNL     1      11.820 -12.929  22.808  1.00  0.00    -0.273 OA
BRANCH  31  34
HETATM   34  C2  UNL     1      12.390  -9.455  23.706  1.00  0.00     0.120 C 
HETATM   35  C1  UNL     1      11.775  -8.715  24.849  1.00  0.00     0.026 C 
ENDBRANCH  31  34
ENDBRANCH  29  30
ENDBRANCH  28  29
ENDBRANCH  27  28
ENDBRANCH  25  27
ENDBRANCH   1  20
TORSDOF 11
ENDMDL
MODEL 2
REMARK VINA RESULT: -7.529941384      1.056      1.538
REMARK  11 active torsions:
REMARK  status: ('A' for Active; 'I' for Inactive)
REMARK    1  A    between atoms: C2_2  and  N1_3 
REMARK       I    between atoms: N1_3  and  C4_5 
REMARK    2  A    between atoms: C4_5  and  C5_7 
REMARK    3  A    between atoms: C5_7  and  C6_8 
REMARK    4  A    between atoms: C6_8  and  C7_9 
REMARK    5  A    between atoms: C7_9  and  C8_10 
REMARK    6  A    between atoms: C12_15  and  C13_16 
REMARK    7  A    between atoms: C14_17  and  C15_18 
REMARK    8  A    between atoms: C17_22  and  N3_23 
REMARK    9  A    between atoms: N3_23  and  C18_25 
REMARK   10  A    between atoms: C18_25  and  C19_26 
REMARK   11  A    between atoms: C19_26  and  N4_27 
ROOT
HETATM    1  C13 UNL     1      17.125 -14.304  22.195  1.00  0.00    -0.060 C 
HETATM    2  C14 UNL     1      17.980 -14.665  22.970  1.00  0.00    -0.059 C 
ENDROOT
BRANCH   2   3
HETATM    3  C15 UNL     1      18.990 -15.117  23.888  1.00  0.00     0.050 A 
HETATM    4  C16 UNL     1      20.293 -14.673  23.813  1.00  0.00     0.128 A 
HETATM    5  N2  UNL     1      21.224 -15.107  24.680  1.00  0.00    -0.201 N 
HETATM    6  C17 UNL     1      20.927 -16.000  25.668  1.00  0.00     0.677 A 
ATOM      7  H2  UNL     1      22.179 -14.759  24.598  1.00  0.00     0.183 HD
HETATM    8  N7  UNL     1      19.665 -16.445  25.758  1.00  0.00    -0.201 N 
HETATM    9  C21 UNL     1      18.716 -16.025  24.902  1.00  0.00     0.128 A 
ATOM     10  H7  UNL     1      19.420 -17.113  26.489  1.00  0.00     0.183 HD
BRANCH   6  11
HETATM   11  N3  UNL     1      21.837 -16.399  26.484  1.00  0.00    -0.224 N 
ATOM     12  H3  UNL     1      22.239 -15.690  27.097  1.00  0.00     0.177 HD
BRANCH  11  13
HETATM   13  C18 UNL     1      22.345 -17.718  26.627  1.00  0.00     0.157 C 
BRANCH  13  14
HETATM   14  C19 UNL     1      23.707 -17.903  25.989  1.00  0.00     0.142 C 
BRANCH  14  15
HETATM   15  N4  UNL     1      23.524 -18.372  24.618  1.00  0.00    -0.365 N 
HETATM   16  C20 UNL     1      23.655 -17.570  23.596  1.00  0.00     0.197 C 
HETATM   17  N5  UNL     1      23.983 -16.206  23.790  1.00  0.00    -0.067 NA
HETATM   18  N6  UNL     1      23.449 -18.159  22.317  1.00  0.00    -0.067 NA
ATOM     19  H4  UNL     1      23.287 -19.351  24.454  1.00  0.00     0.161 HD
ENDBRANCH  14  15
ENDBRANCH  13  14
ENDBRANCH  11  13
ENDBRANCH   6  11
ENDBRANCH   2   3
BRANCH   1  20
HETATM   20  C12 UNL     1      16.101 -13.897  21.273  1.00  0.00     0.035 A 
HETATM   21  C11 UNL     1      16.384 -13.324  20.045  1.00  0.00     0.029 A 
HETATM   22  C10 UNL     1      15.413 -12.930  19.150  1.00  0.00     0.021 A 
HETATM   23 BR1  UNL     1      18.232 -13.072  19.576  1.00  0.00    -0.050 Br
HETATM   24  C9  UNL     1      14.084 -13.129  19.527  1.00  0.00     0.008 A 
HETATM   25  C8  UNL     1      13.775 -13.694  20.737  1.00  0.00    -0.057 A 
HETATM   26  C22 UNL     1      14.764 -14.080  21.613  1.00  0.00     0.029 A 
BRANCH  25  27
HETATM   27  C7  UNL     1      12.344 -13.887  21.093  1.00  0.00     0.039 C 
BRANCH  27  28
HETATM   28  C6  UNL     1      12.206 -13.642  22.556  1.00  0.00     0.014 C 
BRANCH  28  29
HETATM   29  C5  UNL     1      10.997 -12.875  22.961  1.00  0.00     0.103 C 
BRANCH  29  30
HETATM   30  C4  UNL     1      11.227 -11.746  23.875  1.00  0.00     0.219 C 
HETATM   31  N1  UNL     1      11.687 -10.505  23.375  1.00  0.00    -0.357 N 
HETATM   32  C3  UNL     1      11.910  -9.392  24.276  1.00  0.00     0.152 C 
HETATM   33  O1  UNL     1      11.016 -11.868  25.095  1.00  0.00    -0.273 OA
BRANCH  31  34
HETATM   34  C2  UNL     1      11.958 -10.272  21.969  1.00  0.00     0.120 C 
HETATM   35  C1  UNL     1      13.434 -10.291  21.747  1.00  0.00     0.026 C 
ENDBRANCH  31  34
ENDBRANCH  29  30
ENDBRANCH  28  29
ENDBRANCH  27  28
ENDBRANCH  25  27
ENDBRANCH   1  20
TORSDOF 11
ENDMDL
MODEL 3
REMARK VINA RESULT: -7.430678804      1.787      2.103
REMARK  11 active torsions:
REMARK  status: ('A' for Active; 'I' for Inactive)
REMARK    1  A    between atoms: C2_2  and  N1_3 
REMARK       I    between atoms: N1_3  and  C4_5 
REMARK    2  A    between atoms: C4_5  and  C5_7 
REMARK    3  A    between atoms: C5_7  and  C6_8 
REMARK    4  A    between atoms: C6_8  and  C7_9 
REMARK    5  A    between atoms: C7_9  and  C8_10 
REMARK    6  A    between atoms: C12_15  and  C13_16 
REMARK    7  A    between atoms: C14_17  and  C15_18 
REMARK    8  A    between atoms: C17_22  and  N3_23 
REMARK    9  A    between atoms: N3_23  and  C18_25 
REMARK   10  A    between atoms: C18_25  and  C19_26 
REMARK   11  A    between atoms: C19_26  and  N4_27 
ROOT
HETATM    1  C13 UNL     1      17.097 -15.163  21.445  1.00  0.00    -0.060 C 
HETATM    2  C14 UNL     1      18.110 -15.289  22.094  1.00  0.00    -0.059 C 
ENDROOT
BRANCH   2   3
HETATM    3  C15 UNL     1      19.318 -15.460  22.853  1.00  0.00     0.050 A 
HETATM    4  C16 UNL     1      20.200 -14.420  23.062  1.00  0.00     0.128 A 
HETATM    5  N2  UNL     1      21.325 -14.599  23.775  1.00  0.00    -0.201 N 
HETATM    6  C17 UNL     1      21.647 -15.807  24.322  1.00  0.00     0.677 A 
ATOM      7  H2  UNL     1      21.956 -13.810  23.911  1.00  0.00     0.183 HD
HETATM    8  N7  UNL     1      20.802 -16.832  24.131  1.00  0.00    -0.201 N 
HETATM    9  C21 UNL     1      19.670 -16.677  23.421  1.00  0.00     0.128 A 
ATOM     10  H7  UNL     1      21.022 -17.744  24.531  1.00  0.00     0.183 HD
BRANCH   6  11
HETATM   11  N3  UNL     1      22.730 -15.951  25.000  1.00  0.00    -0.224 N 
ATOM     12  H3  UNL     1      22.620 -16.208  25.981  1.00  0.00     0.177 HD
BRANCH  11  13
HETATM   13  C18 UNL     1      24.063 -15.791  24.535  1.00  0.00     0.157 C 
BRANCH  13  14
HETATM   14  C19 UNL     1      24.717 -17.100  24.143  1.00  0.00     0.142 C 
BRANCH  14  15
HETATM   15  N4  UNL     1      24.351 -17.415  22.764  1.00  0.00    -0.365 N 
HETATM   16  C20 UNL     1      23.494 -18.357  22.482  1.00  0.00     0.197 C 
HETATM   17  N5  UNL     1      22.886 -19.111  23.514  1.00  0.00    -0.067 NA
HETATM   18  N6  UNL     1      23.230 -18.558  21.097  1.00  0.00    -0.067 NA
ATOM     19  H4  UNL     1      24.776 -16.884  22.003  1.00  0.00     0.161 HD
ENDBRANCH  14  15
ENDBRANCH  13  14
ENDBRANCH  11  13
ENDBRANCH   6  11
ENDBRANCH   2   3
BRANCH   1  20
HETATM   20  C12 UNL     1      15.897 -15.035  20.666  1.00  0.00     0.035 A 
HETATM   21  C11 UNL     1      15.283 -16.115  20.053  1.00  0.00     0.029 A 
HETATM   22  C10 UNL     1      14.132 -16.009  19.305  1.00  0.00     0.021 A 
HETATM   23 BR1  UNL     1      16.090 -17.848  20.270  1.00  0.00    -0.050 Br
HETATM   24  C9  UNL     1      13.577 -14.735  19.171  1.00  0.00     0.008 A 
HETATM   25  C8  UNL     1      14.163 -13.649  19.766  1.00  0.00    -0.057 A 
HETATM   26  C22 UNL     1      15.314 -13.782  20.510  1.00  0.00     0.029 A 
BRANCH  25  27
HETATM   27  C7  UNL     1      13.533 -12.312  19.596  1.00  0.00     0.039 C 
BRANCH  27  28
HETATM   28  C6  UNL     1      13.780 -11.535  20.843  1.00  0.00     0.014 C 
BRANCH  28  29
HETATM   29  C5  UNL     1      12.613 -10.764  21.352  1.00  0.00     0.103 C 
BRANCH  29  30
HETATM   30  C4  UNL     1      11.877 -11.373  22.470  1.00  0.00     0.219 C 
HETATM   31  N1  UNL     1      11.771 -10.695  23.708  1.00  0.00    -0.357 N 
HETATM   32  C3  UNL     1      11.043 -11.294  24.808  1.00  0.00     0.152 C 
HETATM   33  O1  UNL     1      11.339 -12.487  22.341  1.00  0.00    -0.273 OA
BRANCH  31  34
HETATM   34  C2  UNL     1      12.365  -9.394  23.948  1.00  0.00     0.120 C 
HETATM   35  C1  UNL     1      11.496  -8.628  24.890  1.00  0.00     0.026 C 
ENDBRANCH  31  34
ENDBRANCH  29  30
ENDBRANCH  28  29
ENDBRANCH  27  28
ENDBRANCH  25  27
ENDBRANCH   1  20
TORSDOF 11
ENDMDL
MODEL 4
REMARK VINA RESULT: -7.403588481      1.124      1.685
REMARK  11 active torsions:
REMARK  status: ('A' for Active; 'I' for Inactive)
REMARK    1  A    between atoms: C2_2  and  N1_3 
REMARK       I    between atoms: N1_3  and  C4_5 
REMARK    2  A    between atoms: C4_5  and  C5_7 
REMARK    3  A    between atoms: C5_7  and  C6_8 
REMARK    4  A    between atoms: C6_8  and  C7_9 
REMARK    5  A    between atoms: C7_9  and  C8_10 
REMARK    6  A    between atoms: C12_15  and  C13_16 
REMARK    7  A    between atoms: C14_17  and  C15_18 
REMARK    8  A    between atoms: C17_22  and  N3_23 
REMARK    9  A    between atoms: N3_23  and  C18_25 
REMARK   10  A    between atoms: C18_25  and  C19_26 
REMARK   11  A    between atoms: C19_26  and  N4_27 
ROOT
HETATM    1  C13 UNL     1      18.585 -14.750  21.802  1.00  0.00    -0.060 C 
HETATM    2  C14 UNL     1      19.310 -15.169  22.675  1.00  0.00    -0.059 C 
ENDROOT
BRANCH   2   3
HETATM    3  C15 UNL     1      20.163 -15.689  23.707  1.00  0.00     0.050 A 
HETATM    4  C16 UNL     1      20.153 -17.023  24.058  1.00  0.00     0.128 A 
HETATM    5  N2  UNL     1      20.959 -17.491  25.026  1.00  0.00    -0.201 N 
HETATM    6  C17 UNL     1      21.818 -16.677  25.705  1.00  0.00     0.677 A 
ATOM      7  H2  UNL     1      20.927 -18.483  25.261  1.00  0.00     0.183 HD
HETATM    8  N7  UNL     1      21.843 -15.375  25.380  1.00  0.00    -0.201 N 
HETATM    9  C21 UNL     1      21.047 -14.884  24.414  1.00  0.00     0.128 A 
ATOM     10  H7  UNL     1      22.478 -14.748  25.874  1.00  0.00     0.183 HD
BRANCH   6  11
HETATM   11  N3  UNL     1      22.578 -17.150  26.627  1.00  0.00    -0.224 N 
ATOM     12  H3  UNL     1      22.511 -16.704  27.542  1.00  0.00     0.177 HD
BRANCH  11  13
HETATM   13  C18 UNL     1      23.500 -18.225  26.516  1.00  0.00     0.157 C 
BRANCH  13  14
HETATM   14  C19 UNL     1      24.696 -17.894  25.647  1.00  0.00     0.142 C 
BRANCH  14  15
HETATM   15  N4  UNL     1      24.444 -18.382  24.293  1.00  0.00    -0.365 N 
HETATM   16  C20 UNL     1      24.280 -17.562  23.290  1.00  0.00     0.197 C 
HETATM   17  N5  UNL     1      24.342 -16.162  23.487  1.00  0.00    -0.067 NA
HETATM   18  N6  UNL     1      24.041 -18.172  22.026  1.00  0.00    -0.067 NA
ATOM     19  H4  UNL     1      24.395 -19.387  24.127  1.00  0.00     0.161 HD
ENDBRANCH  14  15
ENDBRANCH  13  14
ENDBRANCH  11  13
ENDBRANCH   6  11
ENDBRANCH   2   3
BRANCH   1  20
HETATM   20  C12 UNL     1      17.714 -14.275  20.764  1.00  0.00     0.035 A 
HETATM   21  C11 UNL     1      18.109 -13.335  19.826  1.00  0.00     0.029 A 
HETATM   22  C10 UNL     1      17.286 -12.870  18.824  1.00  0.00     0.021 A 
HETATM   23 BR1  UNL     1      19.905 -12.655  19.940  1.00  0.00    -0.050 Br
HETATM   24  C9  UNL     1      15.991 -13.388  18.775  1.00  0.00     0.008 A 
HETATM   25  C8  UNL     1      15.573 -14.318  19.690  1.00  0.00    -0.057 A 
HETATM   26  C22 UNL     1      16.415 -14.767  20.682  1.00  0.00     0.029 A 
BRANCH  25  27
HETATM   27  C7  UNL     1      14.184 -14.841  19.596  1.00  0.00     0.039 C 
BRANCH  27  28
HETATM   28  C6  UNL     1      13.506 -14.560  20.893  1.00  0.00     0.014 C 
BRANCH  28  29
HETATM   29  C5  UNL     1      12.416 -13.550  20.834  1.00  0.00     0.103 C 
BRANCH  29  30
HETATM   30  C4  UNL     1      12.791 -12.175  21.198  1.00  0.00     0.219 C 
HETATM   31  N1  UNL     1      12.342 -11.611  22.415  1.00  0.00    -0.357 N 
HETATM   32  C3  UNL     1      12.715 -10.257  22.775  1.00  0.00     0.152 C 
HETATM   33  O1  UNL     1      13.508 -11.494  20.442  1.00  0.00    -0.273 OA
BRANCH  31  34
HETATM   34  C2  UNL     1      11.505 -12.330  23.356  1.00  0.00     0.120 C 
HETATM   35  C1  UNL     1      11.033 -11.383  24.411  1.00  0.00     0.026 C 
ENDBRANCH  31  34
ENDBRANCH  29  30
ENDBRANCH  28  29
ENDBRANCH  27  28
ENDBRANCH  25  27
ENDBRANCH   1  20
TORSDOF 11
ENDMDL
MODEL 5
REMARK VINA RESULT: -7.385718193      2.231      3.463
REMARK  11 active torsions:
REMARK  status: ('A' for Active; 'I' for Inactive)
REMARK    1  A    between atoms: C2_2  and  N1_3 
REMARK       I    between atoms: N1_3  and  C4_5 
REMARK    2  A    between atoms: C4_5  and  C5_7 
REMARK    3  A    between atoms: C5_7  and  C6_8 
REMARK    4  A    between atoms: C6_8  and  C7_9 
REMARK    5  A    between atoms: C7_9  and  C8_10 
REMARK    6  A    between atoms: C12_15  and  C13_16 
REMARK    7  A    between atoms: C14_17  and  C15_18 
REMARK    8  A    between atoms: C17_22  and  N3_23 
REMARK    9  A    between atoms: N3_23  and  C18_25 
REMARK   10  A    between atoms: C18_25  and  C19_26 
REMARK   11  A    between atoms: C19_26  and  N4_27 
ROOT
HETATM    1  C13 UNL     1      18.255 -14.079  22.302  1.00  0.00    -0.060 C 
HETATM    2  C14 UNL     1      19.041 -14.576  23.075  1.00  0.00    -0.059 C 
ENDROOT
BRANCH   2   3
HETATM    3  C15 UNL     1      19.965 -15.188  23.991  1.00  0.00     0.050 A 
HETATM    4  C16 UNL     1      20.132 -16.555  24.052  1.00  0.00     0.128 A 
HETATM    5  N2  UNL     1      21.000 -17.109  24.915  1.00  0.00    -0.201 N 
HETATM    6  C17 UNL     1      21.751 -16.352  25.767  1.00  0.00     0.677 A 
ATOM      7  H2  UNL     1      21.101 -18.124  24.935  1.00  0.00     0.183 HD
HETATM    8  N7  UNL     1      21.603 -15.020  25.725  1.00  0.00    -0.201 N 
HETATM    9  C21 UNL     1      20.740 -14.443  24.869  1.00  0.00     0.128 A 
ATOM     10  H7  UNL     1      22.153 -14.434  26.353  1.00  0.00     0.183 HD
BRANCH   6  11
HETATM   11  N3  UNL     1      22.574 -16.908  26.584  1.00  0.00    -0.224 N 
ATOM     12  H3  UNL     1      22.717 -16.434  27.476  1.00  0.00     0.177 HD
BRANCH  11  13
HETATM   13  C18 UNL     1      23.307 -18.109  26.384  1.00  0.00     0.157 C 
BRANCH  13  14
HETATM   14  C19 UNL     1      24.636 -17.886  25.692  1.00  0.00     0.142 C 
BRANCH  14  15
HETATM   15  N4  UNL     1      24.515 -18.299  24.295  1.00  0.00    -0.365 N 
HETATM   16  C20 UNL     1      24.224 -17.445  23.352  1.00  0.00     0.197 C 
HETATM   17  N5  UNL     1      24.015 -16.078  23.657  1.00  0.00    -0.067 NA
HETATM   18  N6  UNL     1      24.137 -17.983  22.037  1.00  0.00    -0.067 NA
ATOM     19  H4  UNL     1      24.661 -19.278  24.052  1.00  0.00     0.161 HD
ENDBRANCH  14  15
ENDBRANCH  13  14
ENDBRANCH  11  13
ENDBRANCH   6  11
ENDBRANCH   2   3
BRANCH   1  20
HETATM   20  C12 UNL     1      17.308 -13.509  21.385  1.00  0.00     0.035 A 
HETATM   21  C11 UNL     1      17.660 -13.074  20.118  1.00  0.00     0.029 A 
HETATM   22  C10 UNL     1      16.764 -12.526  19.227  1.00  0.00     0.021 A 
HETATM   23 BR1  UNL     1      19.501 -13.251  19.588  1.00  0.00    -0.050 Br
HETATM   24  C9  UNL     1      15.439 -12.414  19.649  1.00  0.00     0.008 A 
HETATM   25  C8  UNL     1      15.061 -12.837  20.897  1.00  0.00    -0.057 A 
HETATM   26  C22 UNL     1      15.977 -13.381  21.769  1.00  0.00     0.029 A 
BRANCH  25  27
HETATM   27  C7  UNL     1      13.637 -12.698  21.300  1.00  0.00     0.039 C 
BRANCH  27  28
HETATM   28  C6  UNL     1      13.332 -13.789  22.268  1.00  0.00     0.014 C 
BRANCH  28  29
HETATM   29  C5  UNL     1      12.428 -14.856  21.759  1.00  0.00     0.103 C 
BRANCH  29  30
HETATM   30  C4  UNL     1      13.042 -16.177  21.555  1.00  0.00     0.219 C 
HETATM   31  N1  UNL     1      13.393 -16.607  20.253  1.00  0.00    -0.357 N 
HETATM   32  C3  UNL     1      14.000 -17.908  20.054  1.00  0.00     0.152 C 
HETATM   33  O1  UNL     1      13.261 -16.928  22.522  1.00  0.00    -0.273 OA
BRANCH  31  34
HETATM   34  C2  UNL     1      13.175 -15.799  19.070  1.00  0.00     0.120 C 
HETATM   35  C1  UNL     1      14.471 -15.636  18.345  1.00  0.00     0.026 C 
ENDBRANCH  31  34
ENDBRANCH  29  30
ENDBRANCH  28  29
ENDBRANCH  27  28
ENDBRANCH  25  27
ENDBRANCH   1  20
TORSDOF 11
ENDMDL
