MODEL 1
REMARK VINA RESULT: -9.083208918      0.000      0.000
REMARK  10 active torsions:
REMARK  status: ('A' for Active; 'I' for Inactive)
REMARK    1  A    between atoms: O1_2  and  C2_3 
REMARK    2  A    between atoms: C5_6  and  C6_7 
REMARK    3  A    between atoms: C6_7  and  C7_8 
REMARK    4  A    between atoms: C7_8  and  N1_9 
REMARK    5  A    between atoms: C7_8  and  C21_32 
REMARK    6  A    between atoms: N1_9  and  S1_11 
REMARK    7  A    between atoms: S1_11  and  N2_14 
REMARK    8  A    between atoms: N2_14  and  C8_16 
REMARK    9  A    between atoms: C13_23  and  C14_24 
REMARK   10  A    between atoms: C14_24  and  C15_25 
ROOT
HETATM    1  S1  UNL     1      16.072 -14.298  21.776  1.00  0.00     0.321 S 
HETATM    2  O2  UNL     1      16.153 -15.093  20.478  1.00  0.00    -0.182 OA
HETATM    3  O3  UNL     1      16.644 -12.937  21.473  1.00  0.00    -0.182 OA
ENDROOT
BRANCH   1   4
HETATM    4  N1  UNL     1      14.443 -14.222  22.253  1.00  0.00    -0.289 N 
ATOM      5  H1  UNL     1      14.160 -13.960  23.198  1.00  0.00     0.174 HD
BRANCH   4   6
HETATM    6  C7  UNL     1      13.505 -14.549  21.238  1.00  0.00     0.187 C 
BRANCH   6   7
HETATM    7  C6  UNL     1      12.380 -13.621  20.992  1.00  0.00     0.073 C 
BRANCH   7   8
HETATM    8  C5  UNL     1      12.114 -12.588  21.994  1.00  0.00    -0.056 A 
HETATM    9  C4  UNL     1      12.693 -11.326  21.932  1.00  0.00     0.010 A 
HETATM   10  C3  UNL     1      12.403 -10.356  22.874  1.00  0.00     0.037 A 
HETATM   11  C2  UNL     1      11.530 -10.595  23.912  1.00  0.00     0.068 A 
HETATM   12  C23 UNL     1      10.952 -11.844  23.980  1.00  0.00     0.037 A 
HETATM   13  C22 UNL     1      11.242 -12.814  23.039  1.00  0.00     0.010 A 
BRANCH  11  14
HETATM   14  O1  UNL     1      11.229  -9.629  24.866  1.00  0.00    -0.356 OA
HETATM   15  C1  UNL     1      11.923  -8.397  24.877  1.00  0.00     0.210 C 
ENDBRANCH  11  14
ENDBRANCH   7   8
ENDBRANCH   6   7
BRANCH   6  16
HETATM   16  C21 UNL     1      12.857 -15.896  21.528  1.00  0.00     0.254 C 
HETATM   17  N4  UNL     1      12.026 -16.548  20.599  1.00  0.00    -0.060 NA
HETATM   18  O4  UNL     1      13.083 -16.423  22.630  1.00  0.00    -0.275 OA
ENDBRANCH   6  16
ENDBRANCH   4   6
ENDBRANCH   1   4
BRANCH   1  19
HETATM   19  N2  UNL     1      17.038 -15.086  22.921  1.00  0.00    -0.252 N 
ATOM     20  H2  UNL     1      17.606 -14.490  23.523  1.00  0.00     0.182 HD
BRANCH  19  21
HETATM   21  C8  UNL     1      17.135 -16.332  23.112  1.00  0.00     0.122 A 
HETATM   22  N3  UNL     1      16.051 -17.127  23.191  1.00  0.00    -0.345 N 
HETATM   23  C9  UNL     1      16.145 -18.473  23.383  1.00  0.00     0.007 A 
ATOM     24  H3  UNL     1      15.126 -16.707  23.103  1.00  0.00     0.167 HD
HETATM   25  C10 UNL     1      14.906 -19.307  23.462  1.00  0.00     0.068 C 
HETATM   26  C11 UNL     1      17.375 -19.067  23.502  1.00  0.00     0.025 A 
HETATM   27  C12 UNL     1      18.496 -18.302  23.428  1.00  0.00     0.013 A 
HETATM   28  C13 UNL     1      18.373 -16.921  23.233  1.00  0.00    -0.009 A 
BRANCH  28  29
HETATM   29  C14 UNL     1      19.650 -16.176  23.206  1.00  0.00     0.081 C 
BRANCH  29  30
HETATM   30  C15 UNL     1      19.934 -15.517  24.518  1.00  0.00    -0.054 A 
HETATM   31  C16 UNL     1      20.411 -14.233  24.562  1.00  0.00     0.010 A 
HETATM   32  C17 UNL     1      20.665 -13.618  25.796  1.00  0.00     0.043 A 
HETATM   33  C18 UNL     1      20.446 -14.282  26.982  1.00  0.00     0.116 A 
HETATM   34  F1  UNL     1      20.686 -13.706  28.197  1.00  0.00    -0.206 F 
HETATM   35  C19 UNL     1      19.966 -15.576  26.909  1.00  0.00     0.043 A 
HETATM   36  C20 UNL     1      19.710 -16.196  25.710  1.00  0.00     0.010 A 
ENDBRANCH  29  30
ENDBRANCH  28  29
ENDBRANCH  19  21
ENDBRANCH   1  19
TORSDOF 10
ENDMDL
MODEL 2
REMARK VINA RESULT: -9.070777124      2.151      3.405
REMARK  10 active torsions:
REMARK  status: ('A' for Active; 'I' for Inactive)
REMARK    1  A    between atoms: O1_2  and  C2_3 
REMARK    2  A    between atoms: C5_6  and  C6_7 
REMARK    3  A    between atoms: C6_7  and  C7_8 
REMARK    4  A    between atoms: C7_8  and  N1_9 
REMARK    5  A    between atoms: C7_8  and  C21_32 
REMARK    6  A    between atoms: N1_9  and  S1_11 
REMARK    7  A    between atoms: S1_11  and  N2_14 
REMARK    8  A    between atoms: N2_14  and  C8_16 
REMARK    9  A    between atoms: C13_23  and  C14_24 
REMARK   10  A    between atoms: C14_24  and  C15_25 
ROOT
HETATM    1  S1  UNL     1      15.181 -15.928  21.286  1.00  0.00     0.321 S 
HETATM    2  O2  UNL     1      14.012 -16.524  22.061  1.00  0.00    -0.182 OA
HETATM    3  O3  UNL     1      15.944 -17.093  20.709  1.00  0.00    -0.182 OA
ENDROOT
BRANCH   1   4
HETATM    4  N1  UNL     1      14.556 -14.906  20.080  1.00  0.00    -0.289 N 
ATOM      5  H1  UNL     1      14.411 -15.216  19.119  1.00  0.00     0.174 HD
BRANCH   4   6
HETATM    6  C7  UNL     1      14.249 -13.588  20.511  1.00  0.00     0.187 C 
BRANCH   6   7
HETATM    7  C6  UNL     1      12.828 -13.199  20.636  1.00  0.00     0.073 C 
BRANCH   7   8
HETATM    8  C5  UNL     1      12.459 -12.300  21.730  1.00  0.00    -0.056 A 
HETATM    9  C4  UNL     1      12.995 -11.024  21.856  1.00  0.00     0.010 A 
HETATM   10  C3  UNL     1      12.608 -10.181  22.882  1.00  0.00     0.037 A 
HETATM   11  C2  UNL     1      11.677 -10.566  23.821  1.00  0.00     0.068 A 
HETATM   12  C23 UNL     1      11.141 -11.830  23.702  1.00  0.00     0.037 A 
HETATM   13  C22 UNL     1      11.529 -12.673  22.677  1.00  0.00     0.010 A 
BRANCH  11  14
HETATM   14  O1  UNL     1      11.278  -9.728  24.857  1.00  0.00    -0.356 OA
HETATM   15  C1  UNL     1      11.795  -8.416  24.952  1.00  0.00     0.210 C 
ENDBRANCH  11  14
ENDBRANCH   7   8
ENDBRANCH   6   7
BRANCH   6  16
HETATM   16  C21 UNL     1      14.864 -12.564  19.567  1.00  0.00     0.254 C 
HETATM   17  N4  UNL     1      16.086 -11.922  19.843  1.00  0.00    -0.060 NA
HETATM   18  O4  UNL     1      14.251 -12.298  18.520  1.00  0.00    -0.275 OA
ENDBRANCH   6  16
ENDBRANCH   4   6
ENDBRANCH   1   4
BRANCH   1  19
HETATM   19  N2  UNL     1      16.156 -15.093  22.390  1.00  0.00    -0.252 N 
ATOM     20  H2  UNL     1      15.737 -14.880  23.294  1.00  0.00     0.182 HD
BRANCH  19  21
HETATM   21  C8  UNL     1      17.347 -14.704  22.217  1.00  0.00     0.122 A 
HETATM   22  N3  UNL     1      17.784 -14.256  21.024  1.00  0.00    -0.345 N 
HETATM   23  C9  UNL     1      19.061 -13.822  20.832  1.00  0.00     0.007 A 
ATOM     24  H3  UNL     1      17.136 -14.240  20.237  1.00  0.00     0.167 HD
HETATM   25  C10 UNL     1      19.491 -13.334  19.485  1.00  0.00     0.068 C 
HETATM   26  C11 UNL     1      19.955 -13.829  21.872  1.00  0.00     0.025 A 
HETATM   27  C12 UNL     1      19.556 -14.274  23.092  1.00  0.00     0.013 A 
HETATM   28  C13 UNL     1      18.239 -14.716  23.265  1.00  0.00    -0.009 A 
BRANCH  28  29
HETATM   29  C14 UNL     1      17.918 -15.215  24.619  1.00  0.00     0.081 C 
BRANCH  29  30
HETATM   30  C15 UNL     1      19.112 -15.825  25.281  1.00  0.00    -0.054 A 
HETATM   31  C16 UNL     1      19.560 -17.063  24.902  1.00  0.00     0.010 A 
HETATM   32  C17 UNL     1      20.686 -17.625  25.521  1.00  0.00     0.043 A 
HETATM   33  C18 UNL     1      21.361 -16.955  26.515  1.00  0.00     0.116 A 
HETATM   34  F1  UNL     1      22.461 -17.480  27.134  1.00  0.00    -0.206 F 
HETATM   35  C19 UNL     1      20.888 -15.709  26.880  1.00  0.00     0.043 A 
HETATM   36  C20 UNL     1      19.787 -15.140  26.286  1.00  0.00     0.010 A 
ENDBRANCH  29  30
ENDBRANCH  28  29
ENDBRANCH  19  21
ENDBRANCH   1  19
TORSDOF 10
ENDMDL
MODEL 3
REMARK VINA RESULT: -8.948347588      2.716      4.226
REMARK  10 active torsions:
REMARK  status: ('A' for Active; 'I' for Inactive)
REMARK    1  A    between atoms: O1_2  and  C2_3 
REMARK    2  A    between atoms: C5_6  and  C6_7 
REMARK    3  A    between atoms: C6_7  and  C7_8 
REMARK    4  A    between atoms: C7_8  and  N1_9 
REMARK    5  A    between atoms: C7_8  and  C21_32 
REMARK    6  A    between atoms: N1_9  and  S1_11 
REMARK    7  A    between atoms: S1_11  and  N2_14 
REMARK    8  A    between atoms: N2_14  and  C8_16 
REMARK    9  A    between atoms: C13_23  and  C14_24 
REMARK   10  A    between atoms: C14_24  and  C15_25 
ROOT
HETATM    1  S1  UNL     1      13.679 -15.711  21.996  1.00  0.00     0.321 S 
HETATM    2  O2  UNL     1      13.244 -17.036  22.612  1.00  0.00    -0.182 OA
HETATM    3  O3  UNL     1      13.476 -15.851  20.509  1.00  0.00    -0.182 OA
ENDROOT
BRANCH   1   4
HETATM    4  N1  UNL     1      12.725 -14.474  22.664  1.00  0.00    -0.289 N 
ATOM      5  H1  UNL     1      12.219 -14.585  23.542  1.00  0.00     0.174 HD
BRANCH   4   6
HETATM    6  C7  UNL     1      12.686 -13.273  21.907  1.00  0.00     0.187 C 
BRANCH   6   7
HETATM    7  C6  UNL     1      13.933 -12.492  21.757  1.00  0.00     0.073 C 
BRANCH   7   8
HETATM    8  C5  UNL     1      14.602 -12.517  20.456  1.00  0.00    -0.056 A 
HETATM    9  C4  UNL     1      15.986 -12.522  20.332  1.00  0.00     0.010 A 
HETATM   10  C3  UNL     1      16.596 -12.577  19.092  1.00  0.00     0.037 A 
HETATM   11  C2  UNL     1      15.862 -12.628  17.928  1.00  0.00     0.068 A 
HETATM   12  C23 UNL     1      14.489 -12.621  18.042  1.00  0.00     0.037 A 
HETATM   13  C22 UNL     1      13.879 -12.567  19.282  1.00  0.00     0.010 A 
BRANCH  11  14
HETATM   14  O1  UNL     1      16.462 -12.683  16.674  1.00  0.00    -0.356 OA
HETATM   15  C1  UNL     1      16.822 -11.491  16.003  1.00  0.00     0.210 C 
ENDBRANCH  11  14
ENDBRANCH   7   8
ENDBRANCH   6   7
BRANCH   6  16
HETATM   16  C21 UNL     1      11.674 -12.302  22.502  1.00  0.00     0.254 C 
HETATM   17  N4  UNL     1      11.557 -10.971  22.061  1.00  0.00    -0.060 NA
HETATM   18  O4  UNL     1      10.935 -12.720  23.408  1.00  0.00    -0.275 OA
ENDBRANCH   6  16
ENDBRANCH   4   6
ENDBRANCH   1   4
BRANCH   1  19
HETATM   19  N2  UNL     1      15.325 -15.504  22.334  1.00  0.00    -0.252 N 
ATOM     20  H2  UNL     1      15.574 -14.687  22.891  1.00  0.00     0.182 HD
BRANCH  19  21
HETATM   21  C8  UNL     1      16.279 -16.250  21.972  1.00  0.00     0.122 A 
HETATM   22  N3  UNL     1      16.069 -17.457  21.413  1.00  0.00    -0.345 N 
HETATM   23  C9  UNL     1      17.090 -18.262  21.007  1.00  0.00     0.007 A 
ATOM     24  H3  UNL     1      15.110 -17.780  21.289  1.00  0.00     0.167 HD
HETATM   25  C10 UNL     1      16.796 -19.593  20.392  1.00  0.00     0.068 C 
HETATM   26  C11 UNL     1      18.391 -17.853  21.159  1.00  0.00     0.025 A 
HETATM   27  C12 UNL     1      18.649 -16.642  21.719  1.00  0.00     0.013 A 
HETATM   28  C13 UNL     1      17.582 -15.834  22.130  1.00  0.00    -0.009 A 
BRANCH  28  29
HETATM   29  C14 UNL     1      17.972 -14.555  22.760  1.00  0.00     0.081 C 
BRANCH  29  30
HETATM   30  C15 UNL     1      18.730 -14.773  24.031  1.00  0.00    -0.054 A 
HETATM   31  C16 UNL     1      19.906 -14.108  24.262  1.00  0.00     0.010 A 
HETATM   32  C17 UNL     1      20.606 -14.309  25.459  1.00  0.00     0.043 A 
HETATM   33  C18 UNL     1      20.136 -15.172  26.423  1.00  0.00     0.116 A 
HETATM   34  F1  UNL     1      20.799 -15.387  27.598  1.00  0.00    -0.206 F 
HETATM   35  C19 UNL     1      18.949 -15.831  26.165  1.00  0.00     0.043 A 
HETATM   36  C20 UNL     1      18.247 -15.647  24.998  1.00  0.00     0.010 A 
ENDBRANCH  29  30
ENDBRANCH  28  29
ENDBRANCH  19  21
ENDBRANCH   1  19
TORSDOF 10
ENDMDL
MODEL 4
REMARK VINA RESULT: -8.931374383      2.391      4.179
REMARK  10 active torsions:
REMARK  status: ('A' for Active; 'I' for Inactive)
REMARK    1  A    between atoms: O1_2  and  C2_3 
REMARK    2  A    between atoms: C5_6  and  C6_7 
REMARK    3  A    between atoms: C6_7  and  C7_8 
REMARK    4  A    between atoms: C7_8  and  N1_9 
REMARK    5  A    between atoms: C7_8  and  C21_32 
REMARK    6  A    between atoms: N1_9  and  S1_11 
REMARK    7  A    between atoms: S1_11  and  N2_14 
REMARK    8  A    between atoms: N2_14  and  C8_16 
REMARK    9  A    between atoms: C13_23  and  C14_24 
REMARK   10  A    between atoms: C14_24  and  C15_25 
ROOT
HETATM    1  S1  UNL     1      16.827 -12.648  20.316  1.00  0.00     0.321 S 
HETATM    2  O2  UNL     1      16.605 -13.348  18.981  1.00  0.00    -0.182 OA
HETATM    3  O3  UNL     1      18.199 -12.027  20.244  1.00  0.00    -0.182 OA
ENDROOT
BRANCH   1   4
HETATM    4  N1  UNL     1      15.604 -11.486  20.520  1.00  0.00    -0.289 N 
ATOM      5  H1  UNL     1      15.738 -10.502  20.288  1.00  0.00     0.174 HD
BRANCH   4   6
HETATM    6  C7  UNL     1      14.380 -11.989  21.036  1.00  0.00     0.187 C 
BRANCH   6   7
HETATM    7  C6  UNL     1      13.502 -12.768  20.137  1.00  0.00     0.073 C 
BRANCH   7   8
HETATM    8  C5  UNL     1      13.174 -14.141  20.524  1.00  0.00    -0.056 A 
HETATM    9  C4  UNL     1      12.825 -15.112  19.593  1.00  0.00     0.010 A 
HETATM   10  C3  UNL     1      12.549 -16.411  19.980  1.00  0.00     0.037 A 
HETATM   11  C2  UNL     1      12.606 -16.799  21.300  1.00  0.00     0.068 A 
HETATM   12  C23 UNL     1      12.949 -15.841  22.229  1.00  0.00     0.037 A 
HETATM   13  C22 UNL     1      13.226 -14.543  21.843  1.00  0.00     0.010 A 
BRANCH  11  14
HETATM   14  O1  UNL     1      12.330 -18.101  21.703  1.00  0.00    -0.356 OA
HETATM   15  C1  UNL     1      11.954 -19.078  20.752  1.00  0.00     0.210 C 
ENDBRANCH  11  14
ENDBRANCH   7   8
ENDBRANCH   6   7
BRANCH   6  16
HETATM   16  C21 UNL     1      13.514 -10.849  21.554  1.00  0.00     0.254 C 
HETATM   17  N4  UNL     1      12.686 -10.985  22.684  1.00  0.00    -0.060 NA
HETATM   18  O4  UNL     1      13.552  -9.768  20.944  1.00  0.00    -0.275 OA
ENDBRANCH   6  16
ENDBRANCH   4   6
ENDBRANCH   1   4
BRANCH   1  19
HETATM   19  N2  UNL     1      16.795 -13.831  21.527  1.00  0.00    -0.252 N 
ATOM     20  H2  UNL     1      16.415 -13.545  22.430  1.00  0.00     0.182 HD
BRANCH  19  21
HETATM   21  C8  UNL     1      17.190 -15.028  21.437  1.00  0.00     0.122 A 
HETATM   22  N3  UNL     1      16.372 -16.021  21.040  1.00  0.00    -0.345 N 
HETATM   23  C9  UNL     1      16.792 -17.312  20.926  1.00  0.00     0.007 A 
ATOM     24  H3  UNL     1      15.402 -15.799  20.816  1.00  0.00     0.167 HD
HETATM   25  C10 UNL     1      15.838 -18.373  20.480  1.00  0.00     0.068 C 
HETATM   26  C11 UNL     1      18.091 -17.641  21.218  1.00  0.00     0.025 A 
HETATM   27  C12 UNL     1      18.951 -16.670  21.622  1.00  0.00     0.013 A 
HETATM   28  C13 UNL     1      18.495 -15.352  21.733  1.00  0.00    -0.009 A 
BRANCH  28  29
HETATM   29  C14 UNL     1      19.499 -14.380  22.217  1.00  0.00     0.081 C 
BRANCH  29  30
HETATM   30  C15 UNL     1      19.800 -14.572  23.669  1.00  0.00    -0.054 A 
HETATM   31  C16 UNL     1      21.048 -14.296  24.164  1.00  0.00     0.010 A 
HETATM   32  C17 UNL     1      21.319 -14.469  25.528  1.00  0.00     0.043 A 
HETATM   33  C18 UNL     1      20.351 -14.918  26.396  1.00  0.00     0.116 A 
HETATM   34  F1  UNL     1      20.589 -15.095  27.730  1.00  0.00    -0.206 F 
HETATM   35  C19 UNL     1      19.101 -15.190  25.872  1.00  0.00     0.043 A 
HETATM   36  C20 UNL     1      18.814 -15.027  24.538  1.00  0.00     0.010 A 
ENDBRANCH  29  30
ENDBRANCH  28  29
ENDBRANCH  19  21
ENDBRANCH   1  19
TORSDOF 10
ENDMDL
MODEL 5
REMARK VINA RESULT: -8.880361728      2.003      2.973
REMARK  10 active torsions:
REMARK  status: ('A' for Active; 'I' for Inactive)
REMARK    1  A    between atoms: O1_2  and  C2_3 
REMARK    2  A    between atoms: C5_6  and  C6_7 
REMARK    3  A    between atoms: C6_7  and  C7_8 
REMARK    4  A    between atoms: C7_8  and  N1_9 
REMARK    5  A    between atoms: C7_8  and  C21_32 
REMARK    6  A    between atoms: N1_9  and  S1_11 
REMARK    7  A    between atoms: S1_11  and  N2_14 
REMARK    8  A    between atoms: N2_14  and  C8_16 
REMARK    9  A    between atoms: C13_23  and  C14_24 
REMARK   10  A    between atoms: C14_24  and  C15_25 
ROOT
HETATM    1  S1  UNL     1      14.968 -16.826  21.929  1.00  0.00     0.321 S 
HETATM    2  O2  UNL     1      15.098 -17.999  22.893  1.00  0.00    -0.182 OA
HETATM    3  O3  UNL     1      15.239 -17.379  20.553  1.00  0.00    -0.182 OA
ENDROOT
BRANCH   1   4
HETATM    4  N1  UNL     1      13.399 -16.190  22.071  1.00  0.00    -0.289 N 
ATOM      5  H1  UNL     1      12.673 -16.640  22.630  1.00  0.00     0.174 HD
BRANCH   4   6
HETATM    6  C7  UNL     1      13.173 -14.985  21.355  1.00  0.00     0.187 C 
BRANCH   6   7
HETATM    7  C6  UNL     1      11.985 -14.174  21.695  1.00  0.00     0.073 C 
BRANCH   7   8
HETATM    8  C5  UNL     1      12.205 -12.833  22.238  1.00  0.00    -0.056 A 
HETATM    9  C4  UNL     1      13.147 -11.961  21.705  1.00  0.00     0.010 A 
HETATM   10  C3  UNL     1      13.315 -10.687  22.215  1.00  0.00     0.037 A 
HETATM   11  C2  UNL     1      12.561 -10.225  23.271  1.00  0.00     0.068 A 
HETATM   12  C23 UNL     1      11.626 -11.085  23.806  1.00  0.00     0.037 A 
HETATM   13  C22 UNL     1      11.457 -12.359  23.295  1.00  0.00     0.010 A 
BRANCH  11  14
HETATM   14  O1  UNL     1      12.720  -8.947  23.794  1.00  0.00    -0.356 OA
HETATM   15  C1  UNL     1      11.908  -8.509  24.865  1.00  0.00     0.210 C 
ENDBRANCH  11  14
ENDBRANCH   7   8
ENDBRANCH   6   7
BRANCH   6  16
HETATM   16  C21 UNL     1      13.052 -15.268  19.864  1.00  0.00     0.254 C 
HETATM   17  N4  UNL     1      12.091 -16.152  19.340  1.00  0.00    -0.060 NA
HETATM   18  O4  UNL     1      13.839 -14.688  19.098  1.00  0.00    -0.275 OA
ENDBRANCH   6  16
ENDBRANCH   4   6
ENDBRANCH   1   4
BRANCH   1  19
HETATM   19  N2  UNL     1      16.158 -15.692  22.336  1.00  0.00    -0.252 N 
ATOM     20  H2  UNL     1      16.279 -15.499  23.331  1.00  0.00     0.182 HD
BRANCH  19  21
HETATM   21  C8  UNL     1      16.913 -15.059  21.545  1.00  0.00     0.122 A 
HETATM   22  N3  UNL     1      16.429 -14.174  20.652  1.00  0.00    -0.345 N 
HETATM   23  C9  UNL     1      17.235 -13.476  19.805  1.00  0.00     0.007 A 
ATOM     24  H3  UNL     1      15.421 -14.021  20.609  1.00  0.00     0.167 HD
HETATM   25  C10 UNL     1      16.641 -12.506  18.834  1.00  0.00     0.068 C 
HETATM   26  C11 UNL     1      18.594 -13.659  19.841  1.00  0.00     0.025 A 
HETATM   27  C12 UNL     1      19.126 -14.542  20.726  1.00  0.00     0.013 A 
HETATM   28  C13 UNL     1      18.276 -15.249  21.585  1.00  0.00    -0.009 A 
BRANCH  28  29
HETATM   29  C14 UNL     1      18.951 -16.211  22.482  1.00  0.00     0.081 C 
BRANCH  29  30
HETATM   30  C15 UNL     1      19.398 -15.564  23.753  1.00  0.00    -0.054 A 
HETATM   31  C16 UNL     1      20.378 -14.606  23.738  1.00  0.00     0.010 A 
HETATM   32  C17 UNL     1      20.785 -13.996  24.933  1.00  0.00     0.043 A 
HETATM   33  C18 UNL     1      20.219 -14.341  26.139  1.00  0.00     0.116 A 
HETATM   34  F1  UNL     1      20.597 -13.762  27.317  1.00  0.00    -0.206 F 
HETATM   35  C19 UNL     1      19.234 -15.310  26.127  1.00  0.00     0.043 A 
HETATM   36  C20 UNL     1      18.820 -15.920  24.967  1.00  0.00     0.010 A 
ENDBRANCH  29  30
ENDBRANCH  28  29
ENDBRANCH  19  21
ENDBRANCH   1  19
TORSDOF 10
ENDMDL
