MODEL 1
REMARK VINA RESULT: -7.844736233      0.000      0.000
REMARK  17 active torsions:
REMARK  status: ('A' for Active; 'I' for Inactive)
REMARK    1  A    between atoms: C2_2  and  C3_3 
REMARK    2  A    between atoms: C3_3  and  C4_4 
REMARK    3  A    between atoms: C4_4  and  C5_5 
REMARK    4  A    between atoms: C5_5  and  C6_6 
REMARK    5  A    between atoms: C6_6  and  C7_7 
REMARK    6  A    between atoms: C7_7  and  C8_8 
REMARK    7  A    between atoms: C8_8  and  C9_9 
REMARK    8  A    between atoms: C9_9  and  C10_10 
REMARK    9  A    between atoms: C10_10  and  C11_11 
REMARK   10  A    between atoms: C11_11  and  C12_12 
REMARK   11  A    between atoms: C11_11  and  N1_14 
REMARK   12  A    between atoms: N1_14  and  C14_16 
REMARK   13  A    between atoms: C14_16  and  O1_17 
REMARK   14  A    between atoms: C14_16  and  C15_19 
REMARK   15  A    between atoms: C20_24  and  O2_25 
REMARK   16  A    between atoms: C21_27  and  O3_28 
REMARK   17  A    between atoms: C30_39  and  O5_40 
ROOT
HETATM    1  C15 UNL     1      12.458  24.251   4.917  1.00  0.00     0.069 C 
HETATM    2  C16 UNL     1      13.604  25.253   4.858  1.00  0.00     0.014 C 
HETATM    3  C17 UNL     1      14.749  24.303   4.513  1.00  0.00     0.007 C 
HETATM    4  C18 UNL     1      14.318  22.926   5.050  1.00  0.00     0.002 C 
HETATM    5  C19 UNL     1      15.386  22.233   5.770  1.00  0.00     0.030 C 
HETATM    6  C20 UNL     1      15.574  20.828   5.197  1.00  0.00     0.156 C 
HETATM    7  C21 UNL     1      16.795  20.169   5.809  1.00  0.00     0.177 C 
HETATM    8  C22 UNL     1      17.229  20.944   7.021  1.00  0.00    -0.033 A 
HETATM    9  C23 UNL     1      18.511  21.172   7.144  1.00  0.00     0.061 A 
HETATM   10  C24 UNL     1      19.060  21.915   8.272  1.00  0.00     0.172 A 
HETATM   11  O4  UNL     1      20.287  22.141   8.405  1.00  0.00    -0.289 OA
HETATM   12  C25 UNL     1      18.100  22.395   9.262  1.00  0.00     0.052 A 
HETATM   13  C26 UNL     1      16.817  22.134   9.089  1.00  0.00    -0.008 A 
HETATM   14  C27 UNL     1      16.224  21.401   7.995  1.00  0.00     0.006 A 
HETATM   15  C28 UNL     1      15.662  20.103   8.646  1.00  0.00     0.025 C 
HETATM   16  C29 UNL     1      15.091  22.038   7.259  1.00  0.00     0.037 C 
HETATM   17  C30 UNL     1      14.526  23.278   7.853  1.00  0.00     0.124 C 
HETATM   18  C31 UNL     1      13.177  23.525   7.216  1.00  0.00     0.042 C 
HETATM   19  C32 UNL     1      13.018  23.177   5.804  1.00  0.00    -0.027 C 
HETATM   20  C33 UNL     1      12.095  21.975   5.560  1.00  0.00     0.016 C 
ENDROOT
BRANCH   1  21
HETATM   21  C14 UNL     1      11.159  24.807   5.166  1.00  0.00     0.116 C 
BRANCH  21  22
HETATM   22  N1  UNL     1       9.868  24.297   4.972  1.00  0.00    -0.370 N 
ATOM     23  H1  UNL     1       9.384  23.986   5.814  1.00  0.00     0.161 HD
BRANCH  22  24
HETATM   24  C11 UNL     1       9.137  24.154   3.745  1.00  0.00     0.083 C 
BRANCH  24  25
HETATM   25  C10 UNL     1       8.711  25.467   3.169  1.00  0.00     0.025 C 
BRANCH  25  26
HETATM   26  C9  UNL     1       7.721  26.204   4.060  1.00  0.00     0.002 C 
BRANCH  26  27
HETATM   27  C8  UNL     1       8.265  27.588   4.352  1.00  0.00     0.000 C 
BRANCH  27  28
HETATM   28  C7  UNL     1       7.607  28.207   5.580  1.00  0.00     0.000 C 
BRANCH  28  29
HETATM   29  C6  UNL     1       8.114  27.543   6.812  1.00  0.00     0.000 C 
BRANCH  29  30
HETATM   30  C5  UNL     1       8.789  28.538   7.711  1.00  0.00     0.000 C 
BRANCH  30  31
HETATM   31  C4  UNL     1       9.947  27.892   8.422  1.00  0.00     0.000 C 
BRANCH  31  32
HETATM   32  C3  UNL     1       9.602  26.398   8.586  1.00  0.00    -0.000 C 
BRANCH  32  33
HETATM   33  C2  UNL     1      10.782  25.731   9.220  1.00  0.00    -0.005 C 
HETATM   34  C1  UNL     1      12.000  26.577   8.958  1.00  0.00     0.005 C 
ENDBRANCH  32  33
ENDBRANCH  31  32
ENDBRANCH  30  31
ENDBRANCH  29  30
ENDBRANCH  28  29
ENDBRANCH  27  28
ENDBRANCH  26  27
ENDBRANCH  25  26
ENDBRANCH  24  25
BRANCH  24  35
HETATM   35  C12 UNL     1       9.799  23.277   2.699  1.00  0.00     0.021 C 
HETATM   36  C13 UNL     1      10.715  24.076   1.815  1.00  0.00     0.007 C 
ENDBRANCH  24  35
ENDBRANCH  22  24
ENDBRANCH  21  22
BRANCH  21  37
HETATM   37  O1  UNL     1      11.178  26.009   5.663  1.00  0.00    -0.349 OA
ATOM     38  H1  UNL     1      11.455  26.675   5.045  1.00  0.00     0.219 HD
ENDBRANCH  21  37
ENDBRANCH   1  21
BRANCH  17  39
HETATM   39  O5  UNL     1      15.273  24.402   7.840  1.00  0.00    -0.395 OA
ATOM     40  H5  UNL     1      16.049  24.440   8.387  1.00  0.00     0.210 HD
ENDBRANCH  17  39
BRANCH   6  41
HETATM   41  O2  UNL     1      15.628  20.821   3.824  1.00  0.00    -0.392 OA
ATOM     42  H2  UNL     1      14.833  20.480   3.430  1.00  0.00     0.210 HD
ENDBRANCH   6  41
BRANCH   7  43
HETATM   43  O3  UNL     1      16.513  18.880   6.221  1.00  0.00    -0.389 OA
ATOM     44  H3  UNL     1      17.274  18.318   6.136  1.00  0.00     0.210 HD
ENDBRANCH   7  43
TORSDOF 17
ENDMDL
MODEL 2
REMARK VINA RESULT: -7.655807703      2.584      9.351
REMARK  17 active torsions:
REMARK  status: ('A' for Active; 'I' for Inactive)
REMARK    1  A    between atoms: C2_2  and  C3_3 
REMARK    2  A    between atoms: C3_3  and  C4_4 
REMARK    3  A    between atoms: C4_4  and  C5_5 
REMARK    4  A    between atoms: C5_5  and  C6_6 
REMARK    5  A    between atoms: C6_6  and  C7_7 
REMARK    6  A    between atoms: C7_7  and  C8_8 
REMARK    7  A    between atoms: C8_8  and  C9_9 
REMARK    8  A    between atoms: C9_9  and  C10_10 
REMARK    9  A    between atoms: C10_10  and  C11_11 
REMARK   10  A    between atoms: C11_11  and  C12_12 
REMARK   11  A    between atoms: C11_11  and  N1_14 
REMARK   12  A    between atoms: N1_14  and  C14_16 
REMARK   13  A    between atoms: C14_16  and  O1_17 
REMARK   14  A    between atoms: C14_16  and  C15_19 
REMARK   15  A    between atoms: C20_24  and  O2_25 
REMARK   16  A    between atoms: C21_27  and  O3_28 
REMARK   17  A    between atoms: C30_39  and  O5_40 
ROOT
HETATM    1  C15 UNL     1      13.487  23.470   6.589  1.00  0.00     0.069 C 
HETATM    2  C16 UNL     1      14.184  24.338   5.549  1.00  0.00     0.014 C 
HETATM    3  C17 UNL     1      13.216  25.519   5.520  1.00  0.00     0.007 C 
HETATM    4  C18 UNL     1      11.857  24.949   5.967  1.00  0.00     0.002 C 
HETATM    5  C19 UNL     1      10.746  25.400   5.131  1.00  0.00     0.030 C 
HETATM    6  C20 UNL     1       9.645  26.000   6.007  1.00  0.00     0.156 C 
HETATM    7  C21 UNL     1       8.572  26.635   5.143  1.00  0.00     0.177 C 
HETATM    8  C22 UNL     1       8.739  26.181   3.720  1.00  0.00    -0.033 A 
HETATM    9  C23 UNL     1       8.638  27.100   2.796  1.00  0.00     0.061 A 
HETATM   10  C24 UNL     1       8.784  26.789   1.378  1.00  0.00     0.172 A 
HETATM   11  O4  UNL     1       8.690  27.659   0.479  1.00  0.00    -0.289 OA
HETATM   12  C25 UNL     1       9.049  25.393   1.043  1.00  0.00     0.052 A 
HETATM   13  C26 UNL     1       9.138  24.507   2.018  1.00  0.00    -0.008 A 
HETATM   14  C27 UNL     1       8.998  24.761   3.433  1.00  0.00     0.006 A 
HETATM   15  C28 UNL     1       7.695  24.014   3.843  1.00  0.00     0.025 C 
HETATM   16  C29 UNL     1      10.079  24.272   4.341  1.00  0.00     0.037 C 
HETATM   17  C30 UNL     1      11.098  23.374   3.738  1.00  0.00     0.124 C 
HETATM   18  C31 UNL     1      11.833  22.683   4.865  1.00  0.00     0.042 C 
HETATM   19  C32 UNL     1      12.071  23.446   6.090  1.00  0.00    -0.027 C 
HETATM   20  C33 UNL     1      11.260  22.953   7.296  1.00  0.00     0.016 C 
ENDROOT
BRANCH   1  21
HETATM   21  C14 UNL     1      14.164  22.254   6.939  1.00  0.00     0.116 C 
BRANCH  21  22
HETATM   22  N1  UNL     1      14.314  21.036   6.262  1.00  0.00    -0.370 N 
ATOM     23  H1  UNL     1      13.512  20.408   6.299  1.00  0.00     0.161 HD
BRANCH  22  24
HETATM   24  C11 UNL     1      15.447  20.556   5.523  1.00  0.00     0.083 C 
BRANCH  24  25
HETATM   25  C10 UNL     1      15.815  21.450   4.382  1.00  0.00     0.025 C 
BRANCH  25  26
HETATM   26  C9  UNL     1      14.757  21.471   3.288  1.00  0.00     0.002 C 
BRANCH  26  27
HETATM   27  C8  UNL     1      14.600  20.067   2.737  1.00  0.00     0.000 C 
BRANCH  27  28
HETATM   28  C7  UNL     1      15.653  19.753   1.681  1.00  0.00     0.000 C 
BRANCH  28  29
HETATM   29  C6  UNL     1      16.599  18.729   2.202  1.00  0.00     0.000 C 
BRANCH  29  30
HETATM   30  C5  UNL     1      15.935  17.874   3.242  1.00  0.00     0.000 C 
BRANCH  30  31
HETATM   31  C4  UNL     1      16.971  17.227   4.120  1.00  0.00     0.000 C 
BRANCH  31  32
HETATM   32  C3  UNL     1      18.349  17.552   3.510  1.00  0.00    -0.000 C 
BRANCH  32  33
HETATM   33  C2  UNL     1      19.391  17.064   4.467  1.00  0.00    -0.005 C 
HETATM   34  C1  UNL     1      18.701  16.614   5.729  1.00  0.00     0.005 C 
ENDBRANCH  32  33
ENDBRANCH  31  32
ENDBRANCH  30  31
ENDBRANCH  29  30
ENDBRANCH  28  29
ENDBRANCH  27  28
ENDBRANCH  26  27
ENDBRANCH  25  26
ENDBRANCH  24  25
BRANCH  24  35
HETATM   35  C12 UNL     1      16.659  20.199   6.363  1.00  0.00     0.021 C 
HETATM   36  C13 UNL     1      17.936  20.412   5.600  1.00  0.00     0.007 C 
ENDBRANCH  24  35
ENDBRANCH  22  24
ENDBRANCH  21  22
BRANCH  21  37
HETATM   37  O1  UNL     1      14.748  22.283   8.101  1.00  0.00    -0.349 OA
ATOM     38  H1  UNL     1      15.463  22.906   8.154  1.00  0.00     0.219 HD
ENDBRANCH  21  37
ENDBRANCH   1  21
BRANCH  17  39
HETATM   39  O5  UNL     1      11.970  23.890   2.846  1.00  0.00    -0.395 OA
ATOM     40  H5  UNL     1      12.374  24.729   3.035  1.00  0.00     0.210 HD
ENDBRANCH  17  39
BRANCH   6  41
HETATM   41  O2  UNL     1      10.135  26.882   6.939  1.00  0.00    -0.392 OA
ATOM     42  H2  UNL     1       9.470  27.168   7.555  1.00  0.00     0.210 HD
ENDBRANCH   6  41
BRANCH   7  43
HETATM   43  O3  UNL     1       7.309  26.254   5.555  1.00  0.00    -0.389 OA
ATOM     44  H3  UNL     1       7.316  25.377   5.920  1.00  0.00     0.210 HD
ENDBRANCH   7  43
TORSDOF 17
ENDMDL
MODEL 3
REMARK VINA RESULT: -7.575631051      2.403      9.516
REMARK  17 active torsions:
REMARK  status: ('A' for Active; 'I' for Inactive)
REMARK    1  A    between atoms: C2_2  and  C3_3 
REMARK    2  A    between atoms: C3_3  and  C4_4 
REMARK    3  A    between atoms: C4_4  and  C5_5 
REMARK    4  A    between atoms: C5_5  and  C6_6 
REMARK    5  A    between atoms: C6_6  and  C7_7 
REMARK    6  A    between atoms: C7_7  and  C8_8 
REMARK    7  A    between atoms: C8_8  and  C9_9 
REMARK    8  A    between atoms: C9_9  and  C10_10 
REMARK    9  A    between atoms: C10_10  and  C11_11 
REMARK   10  A    between atoms: C11_11  and  C12_12 
REMARK   11  A    between atoms: C11_11  and  N1_14 
REMARK   12  A    between atoms: N1_14  and  C14_16 
REMARK   13  A    between atoms: C14_16  and  O1_17 
REMARK   14  A    between atoms: C14_16  and  C15_19 
REMARK   15  A    between atoms: C20_24  and  O2_25 
REMARK   16  A    between atoms: C21_27  and  O3_28 
REMARK   17  A    between atoms: C30_39  and  O5_40 
ROOT
HETATM    1  C15 UNL     1      14.385  23.262   5.800  1.00  0.00     0.069 C 
HETATM    2  C16 UNL     1      14.883  24.239   4.742  1.00  0.00     0.014 C 
HETATM    3  C17 UNL     1      13.864  25.360   4.937  1.00  0.00     0.007 C 
HETATM    4  C18 UNL     1      12.612  24.681   5.522  1.00  0.00     0.002 C 
HETATM    5  C19 UNL     1      11.372  25.121   4.885  1.00  0.00     0.030 C 
HETATM    6  C20 UNL     1      10.378  25.593   5.948  1.00  0.00     0.156 C 
HETATM    7  C21 UNL     1       9.164  26.220   5.291  1.00  0.00     0.177 C 
HETATM    8  C22 UNL     1       9.149  25.875   3.829  1.00  0.00    -0.033 A 
HETATM    9  C23 UNL     1       8.873  26.847   3.000  1.00  0.00     0.061 A 
HETATM   10  C24 UNL     1       8.831  26.643   1.556  1.00  0.00     0.172 A 
HETATM   11  O4  UNL     1       8.566  27.565   0.747  1.00  0.00    -0.289 OA
HETATM   12  C25 UNL     1       9.114  25.292   1.082  1.00  0.00     0.052 A 
HETATM   13  C26 UNL     1       9.385  24.348   1.965  1.00  0.00    -0.008 A 
HETATM   14  C27 UNL     1       9.434  24.496   3.401  1.00  0.00     0.006 A 
HETATM   15  C28 UNL     1       8.242  23.646   3.929  1.00  0.00     0.025 C 
HETATM   16  C29 UNL     1      10.656  24.011   4.111  1.00  0.00     0.037 C 
HETATM   17  C30 UNL     1      11.623  23.220   3.307  1.00  0.00     0.124 C 
HETATM   18  C31 UNL     1      12.543  22.498   4.265  1.00  0.00     0.042 C 
HETATM   19  C32 UNL     1      12.916  23.188   5.500  1.00  0.00    -0.027 C 
HETATM   20  C33 UNL     1      12.309  22.567   6.766  1.00  0.00     0.016 C 
ENDROOT
BRANCH   1  21
HETATM   21  C14 UNL     1      15.164  22.068   5.959  1.00  0.00     0.116 C 
BRANCH  21  22
HETATM   22  N1  UNL     1      15.286  21.163   7.022  1.00  0.00    -0.370 N 
ATOM     23  H1  UNL     1      14.436  20.659   7.273  1.00  0.00     0.161 HD
BRANCH  22  24
HETATM   24  C11 UNL     1      16.449  20.850   7.803  1.00  0.00     0.083 C 
BRANCH  24  25
HETATM   25  C10 UNL     1      17.219  19.691   7.256  1.00  0.00     0.025 C 
BRANCH  25  26
HETATM   26  C9  UNL     1      18.556  20.105   6.660  1.00  0.00     0.002 C 
BRANCH  26  27
HETATM   27  C8  UNL     1      18.670  19.522   5.265  1.00  0.00     0.000 C 
BRANCH  27  28
HETATM   28  C7  UNL     1      18.393  18.024   5.254  1.00  0.00     0.000 C 
BRANCH  28  29
HETATM   29  C6  UNL     1      18.764  17.452   3.931  1.00  0.00     0.000 C 
BRANCH  29  30
HETATM   30  C5  UNL     1      18.115  18.224   2.819  1.00  0.00     0.000 C 
BRANCH  30  31
HETATM   31  C4  UNL     1      16.644  17.916   2.764  1.00  0.00     0.000 C 
BRANCH  31  32
HETATM   32  C3  UNL     1      15.911  19.249   2.512  1.00  0.00    -0.000 C 
BRANCH  32  33
HETATM   33  C2  UNL     1      14.581  19.168   3.196  1.00  0.00    -0.005 C 
HETATM   34  C1  UNL     1      14.753  18.382   4.470  1.00  0.00     0.005 C 
ENDBRANCH  32  33
ENDBRANCH  31  32
ENDBRANCH  30  31
ENDBRANCH  29  30
ENDBRANCH  28  29
ENDBRANCH  27  28
ENDBRANCH  26  27
ENDBRANCH  25  26
ENDBRANCH  24  25
BRANCH  24  35
HETATM   35  C12 UNL     1      17.356  22.028   8.105  1.00  0.00     0.021 C 
HETATM   36  C13 UNL     1      16.631  23.094   8.877  1.00  0.00     0.007 C 
ENDBRANCH  24  35
ENDBRANCH  22  24
ENDBRANCH  21  22
BRANCH  21  37
HETATM   37  O1  UNL     1      15.897  21.766   4.927  1.00  0.00    -0.349 OA
ATOM     38  H1  UNL     1      15.842  22.399   4.221  1.00  0.00     0.219 HD
ENDBRANCH  21  37
ENDBRANCH   1  21
BRANCH  17  39
HETATM   39  O5  UNL     1      12.333  23.846   2.345  1.00  0.00    -0.395 OA
ATOM     40  H5  UNL     1      13.278  23.753   2.341  1.00  0.00     0.210 HD
ENDBRANCH  17  39
BRANCH   6  41
HETATM   41  O2  UNL     1      10.952  26.437   6.868  1.00  0.00    -0.392 OA
ATOM     42  H2  UNL     1      11.433  25.969   7.540  1.00  0.00     0.210 HD
ENDBRANCH   6  41
BRANCH   7  43
HETATM   43  O3  UNL     1       7.992  25.737   5.843  1.00  0.00    -0.389 OA
ATOM     44  H3  UNL     1       7.261  26.314   5.657  1.00  0.00     0.210 HD
ENDBRANCH   7  43
TORSDOF 17
ENDMDL
MODEL 4
REMARK VINA RESULT: -7.531877646      0.968      3.399
REMARK  17 active torsions:
REMARK  status: ('A' for Active; 'I' for Inactive)
REMARK    1  A    between atoms: C2_2  and  C3_3 
REMARK    2  A    between atoms: C3_3  and  C4_4 
REMARK    3  A    between atoms: C4_4  and  C5_5 
REMARK    4  A    between atoms: C5_5  and  C6_6 
REMARK    5  A    between atoms: C6_6  and  C7_7 
REMARK    6  A    between atoms: C7_7  and  C8_8 
REMARK    7  A    between atoms: C8_8  and  C9_9 
REMARK    8  A    between atoms: C9_9  and  C10_10 
REMARK    9  A    between atoms: C10_10  and  C11_11 
REMARK   10  A    between atoms: C11_11  and  C12_12 
REMARK   11  A    between atoms: C11_11  and  N1_14 
REMARK   12  A    between atoms: N1_14  and  C14_16 
REMARK   13  A    between atoms: C14_16  and  O1_17 
REMARK   14  A    between atoms: C14_16  and  C15_19 
REMARK   15  A    between atoms: C20_24  and  O2_25 
REMARK   16  A    between atoms: C21_27  and  O3_28 
REMARK   17  A    between atoms: C30_39  and  O5_40 
ROOT
HETATM    1  C15 UNL     1      12.054  24.009   5.633  1.00  0.00     0.069 C 
HETATM    2  C16 UNL     1      13.127  25.070   5.420  1.00  0.00     0.014 C 
HETATM    3  C17 UNL     1      14.224  24.199   4.813  1.00  0.00     0.007 C 
HETATM    4  C18 UNL     1      13.959  22.776   5.339  1.00  0.00     0.002 C 
HETATM    5  C19 UNL     1      15.170  22.104   5.805  1.00  0.00     0.030 C 
HETATM    6  C20 UNL     1      15.305  20.741   5.125  1.00  0.00     0.156 C 
HETATM    7  C21 UNL     1      16.645  20.115   5.460  1.00  0.00     0.177 C 
HETATM    8  C22 UNL     1      17.268  20.850   6.613  1.00  0.00    -0.033 A 
HETATM    9  C23 UNL     1      18.540  21.136   6.508  1.00  0.00     0.061 A 
HETATM   10  C24 UNL     1      19.261  21.850   7.556  1.00  0.00     0.172 A 
HETATM   11  O4  UNL     1      20.480  22.131   7.471  1.00  0.00    -0.289 OA
HETATM   12  C25 UNL     1      18.486  22.230   8.734  1.00  0.00     0.052 A 
HETATM   13  C26 UNL     1      17.206  21.912   8.787  1.00  0.00    -0.008 A 
HETATM   14  C27 UNL     1      16.448  21.205   7.782  1.00  0.00     0.006 A 
HETATM   15  C28 UNL     1      16.072  19.849   8.448  1.00  0.00     0.025 C 
HETATM   16  C29 UNL     1      15.170  21.819   7.309  1.00  0.00     0.037 C 
HETATM   17  C30 UNL     1      14.677  22.997   8.070  1.00  0.00     0.124 C 
HETATM   18  C31 UNL     1      13.223  23.206   7.711  1.00  0.00     0.042 C 
HETATM   19  C32 UNL     1      12.815  22.922   6.335  1.00  0.00    -0.027 C 
HETATM   20  C33 UNL     1      11.913  21.688   6.197  1.00  0.00     0.016 C 
ENDROOT
BRANCH   1  21
HETATM   21  C14 UNL     1      10.804  24.485   6.151  1.00  0.00     0.116 C 
BRANCH  21  22
HETATM   22  N1  UNL     1      10.478  25.177   7.325  1.00  0.00    -0.370 N 
ATOM     23  H1  UNL     1      10.383  24.605   8.164  1.00  0.00     0.161 HD
BRANCH  22  24
HETATM   24  C11 UNL     1      10.260  26.584   7.504  1.00  0.00     0.083 C 
BRANCH  24  25
HETATM   25  C10 UNL     1       8.810  26.937   7.605  1.00  0.00     0.025 C 
BRANCH  25  26
HETATM   26  C9  UNL     1       8.424  28.094   6.695  1.00  0.00     0.002 C 
BRANCH  26  27
HETATM   27  C8  UNL     1       8.760  27.721   5.264  1.00  0.00     0.000 C 
BRANCH  27  28
HETATM   28  C7  UNL     1       7.639  26.923   4.610  1.00  0.00     0.000 C 
BRANCH  28  29
HETATM   29  C6  UNL     1       8.000  26.608   3.201  1.00  0.00     0.000 C 
BRANCH  29  30
HETATM   30  C5  UNL     1       7.490  25.249   2.814  1.00  0.00     0.000 C 
BRANCH  30  31
HETATM   31  C4  UNL     1       8.598  24.435   2.203  1.00  0.00     0.000 C 
BRANCH  31  32
HETATM   32  C3  UNL     1       9.786  25.389   1.968  1.00  0.00    -0.000 C 
BRANCH  32  33
HETATM   33  C2  UNL     1      11.041  24.583   2.084  1.00  0.00    -0.005 C 
HETATM   34  C1  UNL     1      10.659  23.151   2.354  1.00  0.00     0.005 C 
ENDBRANCH  32  33
ENDBRANCH  31  32
ENDBRANCH  30  31
ENDBRANCH  29  30
ENDBRANCH  28  29
ENDBRANCH  27  28
ENDBRANCH  26  27
ENDBRANCH  25  26
ENDBRANCH  24  25
BRANCH  24  35
HETATM   35  C12 UNL     1      11.067  27.224   8.619  1.00  0.00     0.021 C 
HETATM   36  C13 UNL     1      11.863  26.198   9.376  1.00  0.00     0.007 C 
ENDBRANCH  24  35
ENDBRANCH  22  24
ENDBRANCH  21  22
BRANCH  21  37
HETATM   37  O1  UNL     1       9.778  24.225   5.394  1.00  0.00    -0.349 OA
ATOM     38  H1  UNL     1       9.768  23.339   5.054  1.00  0.00     0.219 HD
ENDBRANCH  21  37
ENDBRANCH   1  21
BRANCH  17  39
HETATM   39  O5  UNL     1      15.362  24.157   7.985  1.00  0.00    -0.395 OA
ATOM     40  H5  UNL     1      15.141  24.768   7.291  1.00  0.00     0.210 HD
ENDBRANCH  17  39
BRANCH   6  41
HETATM   41  O2  UNL     1      15.098  20.806   3.769  1.00  0.00    -0.392 OA
ATOM     42  H2  UNL     1      15.806  21.246   3.313  1.00  0.00     0.210 HD
ENDBRANCH   6  41
BRANCH   7  43
HETATM   43  O3  UNL     1      16.499  18.794   5.840  1.00  0.00    -0.389 OA
ATOM     44  H3  UNL     1      17.343  18.384   5.990  1.00  0.00     0.210 HD
ENDBRANCH   7  43
TORSDOF 17
ENDMDL
MODEL 5
REMARK VINA RESULT: -7.501020400      2.709      9.272
REMARK  17 active torsions:
REMARK  status: ('A' for Active; 'I' for Inactive)
REMARK    1  A    between atoms: C2_2  and  C3_3 
REMARK    2  A    between atoms: C3_3  and  C4_4 
REMARK    3  A    between atoms: C4_4  and  C5_5 
REMARK    4  A    between atoms: C5_5  and  C6_6 
REMARK    5  A    between atoms: C6_6  and  C7_7 
REMARK    6  A    between atoms: C7_7  and  C8_8 
REMARK    7  A    between atoms: C8_8  and  C9_9 
REMARK    8  A    between atoms: C9_9  and  C10_10 
REMARK    9  A    between atoms: C10_10  and  C11_11 
REMARK   10  A    between atoms: C11_11  and  C12_12 
REMARK   11  A    between atoms: C11_11  and  N1_14 
REMARK   12  A    between atoms: N1_14  and  C14_16 
REMARK   13  A    between atoms: C14_16  and  O1_17 
REMARK   14  A    between atoms: C14_16  and  C15_19 
REMARK   15  A    between atoms: C20_24  and  O2_25 
REMARK   16  A    between atoms: C21_27  and  O3_28 
REMARK   17  A    between atoms: C30_39  and  O5_40 
ROOT
HETATM    1  C15 UNL     1      12.872  23.676   6.227  1.00  0.00     0.069 C 
HETATM    2  C16 UNL     1      11.751  22.753   6.687  1.00  0.00     0.014 C 
HETATM    3  C17 UNL     1      10.937  22.685   5.397  1.00  0.00     0.007 C 
HETATM    4  C18 UNL     1      11.253  23.989   4.642  1.00  0.00     0.002 C 
HETATM    5  C19 UNL     1      10.061  24.636   4.094  1.00  0.00     0.030 C 
HETATM    6  C20 UNL     1      10.255  24.910   2.602  1.00  0.00     0.156 C 
HETATM    7  C21 UNL     1       8.963  25.411   1.987  1.00  0.00     0.177 C 
HETATM    8  C22 UNL     1       8.009  25.811   3.077  1.00  0.00    -0.033 A 
HETATM    9  C23 UNL     1       6.768  25.420   2.943  1.00  0.00     0.061 A 
HETATM   10  C24 UNL     1       5.746  25.739   3.933  1.00  0.00     0.172 A 
HETATM   11  O4  UNL     1       4.551  25.372   3.819  1.00  0.00    -0.289 OA
HETATM   12  C25 UNL     1       6.181  26.520   5.087  1.00  0.00     0.052 A 
HETATM   13  C26 UNL     1       7.446  26.890   5.169  1.00  0.00    -0.008 A 
HETATM   14  C27 UNL     1       8.494  26.605   4.217  1.00  0.00     0.006 A 
HETATM   15  C28 UNL     1       8.876  27.991   3.620  1.00  0.00     0.025 C 
HETATM   16  C29 UNL     1       9.757  25.995   4.730  1.00  0.00     0.037 C 
HETATM   17  C30 UNL     1       9.915  25.934   6.207  1.00  0.00     0.124 C 
HETATM   18  C31 UNL     1      11.374  25.678   6.508  1.00  0.00     0.042 C 
HETATM   19  C32 UNL     1      12.115  24.808   5.594  1.00  0.00    -0.027 C 
HETATM   20  C33 UNL     1      13.172  25.542   4.757  1.00  0.00     0.016 C 
ENDROOT
BRANCH   1  21
HETATM   21  C14 UNL     1      13.904  23.930   7.191  1.00  0.00     0.116 C 
BRANCH  21  22
HETATM   22  N1  UNL     1      15.016  23.178   7.594  1.00  0.00    -0.370 N 
ATOM     23  H1  UNL     1      15.892  23.694   7.678  1.00  0.00     0.161 HD
BRANCH  22  24
HETATM   24  C11 UNL     1      15.085  21.779   7.904  1.00  0.00     0.083 C 
BRANCH  24  25
HETATM   25  C10 UNL     1      15.862  20.999   6.892  1.00  0.00     0.025 C 
BRANCH  25  26
HETATM   26  C9  UNL     1      15.045  20.672   5.650  1.00  0.00     0.002 C 
BRANCH  26  27
HETATM   27  C8  UNL     1      15.437  21.630   4.543  1.00  0.00     0.000 C 
BRANCH  27  28
HETATM   28  C7  UNL     1      14.526  21.495   3.329  1.00  0.00     0.000 C 
BRANCH  28  29
HETATM   29  C6  UNL     1      14.469  20.072   2.897  1.00  0.00     0.000 C 
BRANCH  29  30
HETATM   30  C5  UNL     1      15.466  19.809   1.805  1.00  0.00     0.000 C 
BRANCH  30  31
HETATM   31  C4  UNL     1      16.564  18.914   2.311  1.00  0.00     0.000 C 
BRANCH  31  32
HETATM   32  C3  UNL     1      15.920  17.920   3.297  1.00  0.00    -0.000 C 
BRANCH  32  33
HETATM   33  C2  UNL     1      16.910  17.666   4.391  1.00  0.00    -0.005 C 
HETATM   34  C1  UNL     1      17.989  18.714   4.304  1.00  0.00     0.005 C 
ENDBRANCH  32  33
ENDBRANCH  31  32
ENDBRANCH  30  31
ENDBRANCH  29  30
ENDBRANCH  28  29
ENDBRANCH  27  28
ENDBRANCH  26  27
ENDBRANCH  25  26
ENDBRANCH  24  25
BRANCH  24  35
HETATM   35  C12 UNL     1      15.532  21.455   9.318  1.00  0.00     0.021 C 
HETATM   36  C13 UNL     1      16.180  20.100   9.390  1.00  0.00     0.007 C 
ENDBRANCH  24  35
ENDBRANCH  22  24
ENDBRANCH  21  22
BRANCH  21  37
HETATM   37  O1  UNL     1      13.790  25.069   7.809  1.00  0.00    -0.349 OA
ATOM     38  H1  UNL     1      14.180  25.798   7.343  1.00  0.00     0.219 HD
ENDBRANCH  21  37
ENDBRANCH   1  21
BRANCH  17  39
HETATM   39  O5  UNL     1       9.128  25.092   6.909  1.00  0.00    -0.395 OA
ATOM     40  H5  UNL     1       8.499  25.458   7.520  1.00  0.00     0.210 HD
ENDBRANCH  17  39
BRANCH   6  41
HETATM   41  O2  UNL     1      10.752  23.822   1.926  1.00  0.00    -0.392 OA
ATOM     42  H2  UNL     1      11.699  23.841   1.854  1.00  0.00     0.210 HD
ENDBRANCH   6  41
BRANCH   7  43
HETATM   43  O3  UNL     1       9.183  26.526   1.200  1.00  0.00    -0.389 OA
ATOM     44  H3  UNL     1       8.602  26.537   0.448  1.00  0.00     0.210 HD
ENDBRANCH   7  43
TORSDOF 17
ENDMDL
