MODEL 1
REMARK VINA RESULT: -7.324610321      0.000      0.000
REMARK  4 active torsions:
REMARK  status: ('A' for Active; 'I' for Inactive)
REMARK    1  A    between atoms: C4_4  and  C5_5 
REMARK    2  A    between atoms: C5_5  and  C6_6 
REMARK    3  A    between atoms: C6_6  and  C7_8 
REMARK    4  A    between atoms: C11_17  and  O2_18 
ROOT
HETATM    1  C7  UNL     1      10.977  13.891   2.707  1.00  0.00     0.084 A 
HETATM    2  C8  UNL     1      12.027  14.438   3.416  1.00  0.00     0.121 A 
HETATM    3 CL1  UNL     1      12.452  13.691   4.942  1.00  0.00    -0.063 Cl
HETATM    4  N1  UNL     1      12.723  15.506   2.987  1.00  0.00    -0.333 N 
ATOM      5  H1  UNL     1      13.488  15.860   3.561  1.00  0.00     0.168 HD
HETATM    6  C9  UNL     1      12.442  16.127   1.819  1.00  0.00     0.142 A 
HETATM    7  N2  UNL     1      13.195  17.254   1.388  1.00  0.00    -0.081 NA
HETATM    8  C10 UNL     1      11.399  15.611   1.077  1.00  0.00     0.109 A 
HETATM    9 CL2  UNL     1      11.028  16.411  -0.439  1.00  0.00    -0.078 Cl
HETATM   10  C11 UNL     1      10.672  14.509   1.509  1.00  0.00     0.107 A 
ENDROOT
BRANCH   1  11
HETATM   11  C6  UNL     1      10.241  12.722   3.211  1.00  0.00     0.168 C 
HETATM   12  O1  UNL     1      10.700  11.590   2.915  1.00  0.00    -0.292 OA
BRANCH  11  13
HETATM   13  C5  UNL     1       9.034  12.797   4.018  1.00  0.00     0.111 C 
BRANCH  13  14
HETATM   14  C4  UNL     1       7.860  13.013   3.131  1.00  0.00    -0.017 C 
HETATM   15  C2  UNL     1       7.202  14.161   3.107  1.00  0.00    -0.091 C 
HETATM   16  C1  UNL     1       6.026  14.343   2.200  1.00  0.00     0.042 C 
HETATM   17  C3  UNL     1       7.665  15.256   4.000  1.00  0.00     0.042 C 
ENDBRANCH  13  14
ENDBRANCH  11  13
ENDBRANCH   1  11
BRANCH  10  18
HETATM   18  O2  UNL     1       9.634  14.028   0.732  1.00  0.00    -0.358 OA
ATOM     19  H2  UNL     1       9.822  13.592  -0.090  1.00  0.00     0.217 HD
ENDBRANCH  10  18
TORSDOF 4
ENDMDL
MODEL 2
REMARK VINA RESULT: -7.119675120      2.703      3.882
REMARK  4 active torsions:
REMARK  status: ('A' for Active; 'I' for Inactive)
REMARK    1  A    between atoms: C4_4  and  C5_5 
REMARK    2  A    between atoms: C5_5  and  C6_6 
REMARK    3  A    between atoms: C6_6  and  C7_8 
REMARK    4  A    between atoms: C11_17  and  O2_18 
ROOT
HETATM    1  C7  UNL     1       9.049  14.587   2.302  1.00  0.00     0.084 A 
HETATM    2  C8  UNL     1       8.521  14.469   1.033  1.00  0.00     0.121 A 
HETATM    3 CL1  UNL     1       6.932  13.748   0.879  1.00  0.00    -0.063 Cl
HETATM    4  N1  UNL     1       9.169  14.881  -0.071  1.00  0.00    -0.333 N 
ATOM      5  H1  UNL     1       8.720  14.764  -0.980  1.00  0.00     0.168 HD
HETATM    6  C9  UNL     1      10.397  15.444  -0.018  1.00  0.00     0.142 A 
HETATM    7  N2  UNL     1      11.060  15.872  -1.201  1.00  0.00    -0.081 NA
HETATM    8  C10 UNL     1      10.963  15.582   1.233  1.00  0.00     0.109 A 
HETATM    9 CL2  UNL     1      12.555  16.312   1.311  1.00  0.00    -0.078 Cl
HETATM   10  C11 UNL     1      10.304  15.160   2.382  1.00  0.00     0.107 A 
ENDROOT
BRANCH   1  11
HETATM   11  C6  UNL     1       8.307  14.125   3.485  1.00  0.00     0.168 C 
HETATM   12  O1  UNL     1       7.713  15.001   4.162  1.00  0.00    -0.292 OA
BRANCH  11  13
HETATM   13  C5  UNL     1       8.222  12.737   3.910  1.00  0.00     0.111 C 
BRANCH  13  14
HETATM   14  C4  UNL     1       9.190  12.499   5.014  1.00  0.00    -0.017 C 
HETATM   15  C2  UNL     1      10.357  11.910   4.807  1.00  0.00    -0.091 C 
HETATM   16  C1  UNL     1      11.307  11.688   5.941  1.00  0.00     0.042 C 
HETATM   17  C3  UNL     1      10.693  11.480   3.423  1.00  0.00     0.042 C 
ENDBRANCH  13  14
ENDBRANCH  11  13
ENDBRANCH   1  11
BRANCH  10  18
HETATM   18  O2  UNL     1      10.911  15.317   3.614  1.00  0.00    -0.358 OA
ATOM     19  H2  UNL     1      11.815  15.050   3.732  1.00  0.00     0.217 HD
ENDBRANCH  10  18
TORSDOF 4
ENDMDL
MODEL 3
REMARK VINA RESULT: -6.949375338      2.809      3.891
REMARK  4 active torsions:
REMARK  status: ('A' for Active; 'I' for Inactive)
REMARK    1  A    between atoms: C4_4  and  C5_5 
REMARK    2  A    between atoms: C5_5  and  C6_6 
REMARK    3  A    between atoms: C6_6  and  C7_8 
REMARK    4  A    between atoms: C11_17  and  O2_18 
ROOT
HETATM    1  C7  UNL     1       9.006  14.587   2.438  1.00  0.00     0.084 A 
HETATM    2  C8  UNL     1       8.448  14.383   1.193  1.00  0.00     0.121 A 
HETATM    3 CL1  UNL     1       6.870  13.625   1.126  1.00  0.00    -0.063 Cl
HETATM    4  N1  UNL     1       9.060  14.737   0.049  1.00  0.00    -0.333 N 
ATOM      5  H1  UNL     1       8.590  14.556  -0.839  1.00  0.00     0.168 HD
HETATM    6  C9  UNL     1      10.277  15.324   0.035  1.00  0.00     0.142 A 
HETATM    7  N2  UNL     1      10.902  15.689  -1.190  1.00  0.00    -0.081 NA
HETATM    8  C10 UNL     1      10.873  15.548   1.259  1.00  0.00     0.109 A 
HETATM    9 CL2  UNL     1      12.453  16.309   1.250  1.00  0.00    -0.078 Cl
HETATM   10  C11 UNL     1      10.252  15.186   2.449  1.00  0.00     0.107 A 
ENDROOT
BRANCH   1  11
HETATM   11  C6  UNL     1       8.304  14.186   3.666  1.00  0.00     0.168 C 
HETATM   12  O1  UNL     1       7.702  15.089   4.299  1.00  0.00    -0.292 OA
BRANCH  11  13
HETATM   13  C5  UNL     1       8.266  12.827   4.183  1.00  0.00     0.111 C 
BRANCH  13  14
HETATM   14  C4  UNL     1       9.504  12.110   3.777  1.00  0.00    -0.017 C 
HETATM   15  C2  UNL     1       9.822  10.925   4.274  1.00  0.00    -0.091 C 
HETATM   16  C1  UNL     1      11.075  10.232   3.842  1.00  0.00     0.042 C 
HETATM   17  C3  UNL     1       8.902  10.308   5.266  1.00  0.00     0.042 C 
ENDBRANCH  13  14
ENDBRANCH  11  13
ENDBRANCH   1  11
BRANCH  10  18
HETATM   18  O2  UNL     1      10.887  15.429   3.653  1.00  0.00    -0.358 OA
ATOM     19  H2  UNL     1      11.420  14.750   4.050  1.00  0.00     0.217 HD
ENDBRANCH  10  18
TORSDOF 4
ENDMDL
MODEL 4
REMARK VINA RESULT: -6.430699632      1.818      2.911
REMARK  4 active torsions:
REMARK  status: ('A' for Active; 'I' for Inactive)
REMARK    1  A    between atoms: C4_4  and  C5_5 
REMARK    2  A    between atoms: C5_5  and  C6_6 
REMARK    3  A    between atoms: C6_6  and  C7_8 
REMARK    4  A    between atoms: C11_17  and  O2_18 
ROOT
HETATM    1  C7  UNL     1       9.721  14.475   2.444  1.00  0.00     0.084 A 
HETATM    2  C8  UNL     1      11.012  14.756   2.843  1.00  0.00     0.121 A 
HETATM    3 CL1  UNL     1      11.473  14.310   4.472  1.00  0.00    -0.063 Cl
HETATM    4  N1  UNL     1      11.913  15.350   2.040  1.00  0.00    -0.333 N 
ATOM      5  H1  UNL     1      12.851  15.529   2.399  1.00  0.00     0.168 HD
HETATM    6  C9  UNL     1      11.618  15.718   0.774  1.00  0.00     0.142 A 
HETATM    7  N2  UNL     1      12.591  16.344  -0.054  1.00  0.00    -0.081 NA
HETATM    8  C10 UNL     1      10.337  15.455   0.333  1.00  0.00     0.109 A 
HETATM    9 CL2  UNL     1       9.946  15.929  -1.309  1.00  0.00    -0.078 Cl
HETATM   10  C11 UNL     1       9.396  14.842   1.152  1.00  0.00     0.107 A 
ENDROOT
BRANCH   1  11
HETATM   11  C6  UNL     1       8.766  13.823   3.352  1.00  0.00     0.168 C 
HETATM   12  O1  UNL     1       8.118  14.569   4.128  1.00  0.00    -0.292 OA
BRANCH  11  13
HETATM   13  C5  UNL     1       8.530  12.389   3.403  1.00  0.00     0.111 C 
BRANCH  13  14
HETATM   14  C4  UNL     1       8.792  11.895   4.781  1.00  0.00    -0.017 C 
HETATM   15  C2  UNL     1       9.832  11.125   5.063  1.00  0.00    -0.091 C 
HETATM   16  C1  UNL     1      10.066  10.648   6.461  1.00  0.00     0.042 C 
HETATM   17  C3  UNL     1      10.753  10.754   3.956  1.00  0.00     0.042 C 
ENDBRANCH  13  14
ENDBRANCH  11  13
ENDBRANCH   1  11
BRANCH  10  18
HETATM   18  O2  UNL     1       8.124  14.599   0.668  1.00  0.00    -0.358 OA
ATOM     19  H2  UNL     1       7.403  15.157   0.935  1.00  0.00     0.217 HD
ENDBRANCH  10  18
TORSDOF 4
ENDMDL
MODEL 5
REMARK VINA RESULT: -6.417264305      1.808      2.226
REMARK  4 active torsions:
REMARK  status: ('A' for Active; 'I' for Inactive)
REMARK    1  A    between atoms: C4_4  and  C5_5 
REMARK    2  A    between atoms: C5_5  and  C6_6 
REMARK    3  A    between atoms: C6_6  and  C7_8 
REMARK    4  A    between atoms: C11_17  and  O2_18 
ROOT
HETATM    1  C7  UNL     1      11.139  15.156   1.960  1.00  0.00     0.084 A 
HETATM    2  C8  UNL     1      11.659  16.433   1.982  1.00  0.00     0.121 A 
HETATM    3 CL1  UNL     1      12.392  16.986   3.474  1.00  0.00    -0.063 Cl
HETATM    4  N1  UNL     1      11.625  17.257   0.918  1.00  0.00    -0.333 N 
ATOM      5  H1  UNL     1      12.028  18.190   1.004  1.00  0.00     0.168 HD
HETATM    6  C9  UNL     1      11.073  16.889  -0.260  1.00  0.00     0.142 A 
HETATM    7  N2  UNL     1      11.051  17.779  -1.369  1.00  0.00    -0.081 NA
HETATM    8  C10 UNL     1      10.541  15.617  -0.326  1.00  0.00     0.109 A 
HETATM    9 CL2  UNL     1       9.823  15.132  -1.851  1.00  0.00    -0.078 Cl
HETATM   10  C11 UNL     1      10.570  14.757   0.766  1.00  0.00     0.107 A 
ENDROOT
BRANCH   1  11
HETATM   11  C6  UNL     1      11.198  14.286   3.144  1.00  0.00     0.168 C 
HETATM   12  O1  UNL     1      12.257  13.635   3.321  1.00  0.00    -0.292 OA
BRANCH  11  13
HETATM   13  C5  UNL     1      10.119  14.139   4.108  1.00  0.00     0.111 C 
BRANCH  13  14
HETATM   14  C4  UNL     1       8.919  14.871   3.621  1.00  0.00    -0.017 C 
HETATM   15  C2  UNL     1       7.819  14.240   3.240  1.00  0.00    -0.091 C 
HETATM   16  C1  UNL     1       6.631  15.009   2.757  1.00  0.00     0.042 C 
HETATM   17  C3  UNL     1       7.802  12.754   3.308  1.00  0.00     0.042 C 
ENDBRANCH  13  14
ENDBRANCH  11  13
ENDBRANCH   1  11
BRANCH  10  18
HETATM   18  O2  UNL     1      10.023  13.492   0.653  1.00  0.00    -0.358 OA
ATOM     19  H2  UNL     1       9.491  13.143   1.359  1.00  0.00     0.217 HD
ENDBRANCH  10  18
TORSDOF 4
ENDMDL
