MODEL 1
REMARK VINA RESULT: -7.219151468      0.000      0.000
REMARK  5 active torsions:
REMARK  status: ('A' for Active; 'I' for Inactive)
REMARK    1  A    between atoms: C4_5  and  O1_6 
REMARK    2  A    between atoms: C5_8  and  C6_9 
REMARK    3  A    between atoms: C6_9  and  C7_11 
REMARK    4  A    between atoms: C7_11  and  C8_12 
REMARK    5  A    between atoms: C8_12  and  O3_13 
ROOT
HETATM    1  C1  UNL     1       8.755  12.117   3.876  1.00  0.00     0.052 C 
HETATM    2  C2  UNL     1       9.399  13.197   3.077  1.00  0.00    -0.014 A 
HETATM    3  C3  UNL     1      10.636  13.703   3.412  1.00  0.00     0.075 A 
HETATM    4 CL1  UNL     1      11.432  13.035   4.815  1.00  0.00    -0.081 Cl
HETATM    5  C4  UNL     1      11.213  14.701   2.660  1.00  0.00     0.103 A 
HETATM    6  C5  UNL     1      10.589  15.251   1.528  1.00  0.00     0.068 A 
HETATM    7  C9  UNL     1       9.361  14.735   1.211  1.00  0.00     0.073 A 
HETATM    8 CL2  UNL     1       8.465  15.316  -0.163  1.00  0.00    -0.081 Cl
HETATM    9  C10 UNL     1       8.774  13.724   1.972  1.00  0.00     0.064 A 
HETATM   10 CL3  UNL     1       7.202  13.071   1.556  1.00  0.00    -0.082 Cl
ENDROOT
BRANCH   6  11
HETATM   11  C6  UNL     1      11.268  16.308   0.784  1.00  0.00     0.166 C 
HETATM   12  O2  UNL     1      11.766  17.296   1.436  1.00  0.00    -0.292 OA
BRANCH  11  13
HETATM   13  C7  UNL     1      11.450  16.364  -0.672  1.00  0.00     0.110 C 
BRANCH  13  14
HETATM   14  C8  UNL     1      12.849  16.927  -1.001  1.00  0.00     0.171 C 
BRANCH  14  15
HETATM   15  O3  UNL     1      13.799  16.248  -0.237  1.00  0.00    -0.400 OA
ATOM     16  H3  UNL     1      13.939  16.725   0.572  1.00  0.00     0.209 HD
ENDBRANCH  14  15
ENDBRANCH  13  14
ENDBRANCH  11  13
ENDBRANCH   6  11
BRANCH   5  17
HETATM   17  O1  UNL     1      12.453  15.198   3.009  1.00  0.00    -0.358 OA
ATOM     18  H1  UNL     1      13.217  14.971   2.492  1.00  0.00     0.217 HD
ENDBRANCH   5  17
TORSDOF 5
ENDMDL
MODEL 2
REMARK VINA RESULT: -7.036053359      0.997      1.079
REMARK  5 active torsions:
REMARK  status: ('A' for Active; 'I' for Inactive)
REMARK    1  A    between atoms: C4_5  and  O1_6 
REMARK    2  A    between atoms: C5_8  and  C6_9 
REMARK    3  A    between atoms: C6_9  and  C7_11 
REMARK    4  A    between atoms: C7_11  and  C8_12 
REMARK    5  A    between atoms: C8_12  and  O3_13 
ROOT
HETATM    1  C1  UNL     1      10.239  11.894   4.783  1.00  0.00     0.052 C 
HETATM    2  C2  UNL     1      10.528  13.027   3.859  1.00  0.00    -0.014 A 
HETATM    3  C3  UNL     1      11.755  13.652   3.846  1.00  0.00     0.075 A 
HETATM    4 CL1  UNL     1      12.973  13.073   4.954  1.00  0.00    -0.081 Cl
HETATM    5  C4  UNL     1      12.001  14.697   2.984  1.00  0.00     0.103 A 
HETATM    6  C5  UNL     1      11.035  15.178   2.084  1.00  0.00     0.068 A 
HETATM    7  C9  UNL     1       9.822  14.544   2.113  1.00  0.00     0.073 A 
HETATM    8 CL2  UNL     1       8.525  15.026   1.057  1.00  0.00    -0.081 Cl
HETATM    9  C10 UNL     1       9.571  13.485   2.985  1.00  0.00     0.064 A 
HETATM   10 CL3  UNL     1       8.014  12.680   3.012  1.00  0.00    -0.082 Cl
ENDROOT
BRANCH   6  11
HETATM   11  C6  UNL     1      11.375  16.291   1.203  1.00  0.00     0.166 C 
HETATM   12  O2  UNL     1      11.663  17.426   1.730  1.00  0.00    -0.292 OA
BRANCH  11  13
HETATM   13  C7  UNL     1      11.425  16.251  -0.265  1.00  0.00     0.110 C 
BRANCH  13  14
HETATM   14  C8  UNL     1      12.792  16.775  -0.753  1.00  0.00     0.171 C 
BRANCH  14  15
HETATM   15  O3  UNL     1      13.802  16.154  -0.018  1.00  0.00    -0.400 OA
ATOM     16  H3  UNL     1      13.914  15.267  -0.338  1.00  0.00     0.209 HD
ENDBRANCH  14  15
ENDBRANCH  13  14
ENDBRANCH  11  13
ENDBRANCH   6  11
BRANCH   5  17
HETATM   17  O1  UNL     1      13.236  15.314   2.982  1.00  0.00    -0.358 OA
ATOM     18  H1  UNL     1      13.927  14.991   2.414  1.00  0.00     0.217 HD
ENDBRANCH   5  17
TORSDOF 5
ENDMDL
MODEL 3
REMARK VINA RESULT: -6.984658800      1.732      3.064
REMARK  5 active torsions:
REMARK  status: ('A' for Active; 'I' for Inactive)
REMARK    1  A    between atoms: C4_5  and  O1_6 
REMARK    2  A    between atoms: C5_8  and  C6_9 
REMARK    3  A    between atoms: C6_9  and  C7_11 
REMARK    4  A    between atoms: C7_11  and  C8_12 
REMARK    5  A    between atoms: C8_12  and  O3_13 
ROOT
HETATM    1  C1  UNL     1       7.997  12.799   3.991  1.00  0.00     0.052 C 
HETATM    2  C2  UNL     1       8.753  13.568   2.963  1.00  0.00    -0.014 A 
HETATM    3  C3  UNL     1       8.178  13.929   1.764  1.00  0.00     0.075 A 
HETATM    4 CL1  UNL     1       6.522  13.455   1.484  1.00  0.00    -0.081 Cl
HETATM    5  C4  UNL     1       8.895  14.640   0.828  1.00  0.00     0.103 A 
HETATM    6  C5  UNL     1      10.228  15.031   1.035  1.00  0.00     0.068 A 
HETATM    7  C9  UNL     1      10.782  14.663   2.231  1.00  0.00     0.073 A 
HETATM    8 CL2  UNL     1      12.424  15.075   2.632  1.00  0.00    -0.081 Cl
HETATM    9  C10 UNL     1      10.058  13.942   3.181  1.00  0.00     0.064 A 
HETATM   10 CL3  UNL     1      10.777  13.477   4.710  1.00  0.00    -0.082 Cl
ENDROOT
BRANCH   6  11
HETATM   11  C6  UNL     1      10.919  15.783  -0.009  1.00  0.00     0.166 C 
HETATM   12  O2  UNL     1      10.846  15.362  -1.220  1.00  0.00    -0.292 OA
BRANCH  11  13
HETATM   13  C7  UNL     1      11.710  17.006   0.182  1.00  0.00     0.110 C 
BRANCH  13  14
HETATM   14  C8  UNL     1      12.864  17.044  -0.841  1.00  0.00     0.171 C 
BRANCH  14  15
HETATM   15  O3  UNL     1      13.889  16.209  -0.396  1.00  0.00    -0.400 OA
ATOM     16  H3  UNL     1      13.945  15.457  -0.974  1.00  0.00     0.209 HD
ENDBRANCH  14  15
ENDBRANCH  13  14
ENDBRANCH  11  13
ENDBRANCH   6  11
BRANCH   5  17
HETATM   17  O1  UNL     1       8.304  14.995  -0.368  1.00  0.00    -0.358 OA
ATOM     18  H1  UNL     1       8.653  14.662  -1.187  1.00  0.00     0.217 HD
ENDBRANCH   5  17
TORSDOF 5
ENDMDL
MODEL 4
REMARK VINA RESULT: -6.863451052      1.828      2.642
REMARK  5 active torsions:
REMARK  status: ('A' for Active; 'I' for Inactive)
REMARK    1  A    between atoms: C4_5  and  O1_6 
REMARK    2  A    between atoms: C5_8  and  C6_9 
REMARK    3  A    between atoms: C6_9  and  C7_11 
REMARK    4  A    between atoms: C7_11  and  C8_12 
REMARK    5  A    between atoms: C8_12  and  O3_13 
ROOT
HETATM    1  C1  UNL     1       7.060  13.453   1.140  1.00  0.00     0.052 C 
HETATM    2  C2  UNL     1       8.351  14.048   1.588  1.00  0.00    -0.014 A 
HETATM    3  C3  UNL     1       8.889  13.761   2.823  1.00  0.00     0.075 A 
HETATM    4 CL1  UNL     1       8.005  12.668   3.858  1.00  0.00    -0.081 Cl
HETATM    5  C4  UNL     1      10.084  14.322   3.215  1.00  0.00     0.103 A 
HETATM    6  C5  UNL     1      10.811  15.202   2.397  1.00  0.00     0.068 A 
HETATM    7  C9  UNL     1      10.260  15.475   1.174  1.00  0.00     0.073 A 
HETATM    8 CL2  UNL     1      11.044  16.547   0.050  1.00  0.00    -0.081 Cl
HETATM    9  C10 UNL     1       9.049  14.908   0.774  1.00  0.00     0.064 A 
HETATM   10 CL3  UNL     1       8.354  15.265  -0.795  1.00  0.00    -0.082 Cl
ENDROOT
BRANCH   6  11
HETATM   11  C6  UNL     1      12.070  15.753   2.888  1.00  0.00     0.166 C 
HETATM   12  O2  UNL     1      13.016  14.943   3.201  1.00  0.00    -0.292 OA
BRANCH  11  13
HETATM   13  C7  UNL     1      12.380  17.178   3.069  1.00  0.00     0.110 C 
BRANCH  13  14
HETATM   14  C8  UNL     1      13.691  17.522   2.332  1.00  0.00     0.171 C 
BRANCH  14  15
HETATM   15  O3  UNL     1      13.872  16.617   1.287  1.00  0.00    -0.400 OA
ATOM     16  H3  UNL     1      14.665  16.119   1.446  1.00  0.00     0.209 HD
ENDBRANCH  14  15
ENDBRANCH  13  14
ENDBRANCH  11  13
ENDBRANCH   6  11
BRANCH   5  17
HETATM   17  O1  UNL     1      10.610  14.023   4.457  1.00  0.00    -0.358 OA
ATOM     18  H1  UNL     1      10.040  13.717   5.153  1.00  0.00     0.217 HD
ENDBRANCH   5  17
TORSDOF 5
ENDMDL
MODEL 5
REMARK VINA RESULT: -6.489014075      1.541      3.319
REMARK  5 active torsions:
REMARK  status: ('A' for Active; 'I' for Inactive)
REMARK    1  A    between atoms: C4_5  and  O1_6 
REMARK    2  A    between atoms: C5_8  and  C6_9 
REMARK    3  A    between atoms: C6_9  and  C7_11 
REMARK    4  A    between atoms: C7_11  and  C8_12 
REMARK    5  A    between atoms: C8_12  and  O3_13 
ROOT
HETATM    1  C1  UNL     1       7.108  13.378   1.146  1.00  0.00     0.052 C 
HETATM    2  C2  UNL     1       8.397  13.963   1.610  1.00  0.00    -0.014 A 
HETATM    3  C3  UNL     1       9.084  14.888   0.855  1.00  0.00     0.075 A 
HETATM    4 CL1  UNL     1       8.393  15.358  -0.678  1.00  0.00    -0.081 Cl
HETATM    5  C4  UNL     1      10.274  15.416   1.303  1.00  0.00     0.103 A 
HETATM    6  C5  UNL     1      10.846  15.052   2.533  1.00  0.00     0.068 A 
HETATM    7  C9  UNL     1      10.149  14.132   3.269  1.00  0.00     0.073 A 
HETATM    8 CL2  UNL     1      10.731  13.582   4.814  1.00  0.00    -0.081 Cl
HETATM    9  C10 UNL     1       8.943  13.595   2.817  1.00  0.00     0.064 A 
HETATM   10 CL3  UNL     1       8.058  12.419   3.768  1.00  0.00    -0.082 Cl
ENDROOT
BRANCH   6  11
HETATM   11  C6  UNL     1      12.111  15.658   2.936  1.00  0.00     0.166 C 
HETATM   12  O2  UNL     1      13.126  14.894   3.129  1.00  0.00    -0.292 OA
BRANCH  11  13
HETATM   13  C7  UNL     1      12.357  17.090   3.151  1.00  0.00     0.110 C 
BRANCH  13  14
HETATM   14  C8  UNL     1      13.595  17.533   2.343  1.00  0.00     0.171 C 
BRANCH  14  15
HETATM   15  O3  UNL     1      13.716  16.716   1.219  1.00  0.00    -0.400 OA
ATOM     16  H3  UNL     1      13.089  16.999   0.564  1.00  0.00     0.209 HD
ENDBRANCH  14  15
ENDBRANCH  13  14
ENDBRANCH  11  13
ENDBRANCH   6  11
BRANCH   5  17
HETATM   17  O1  UNL     1      10.951  16.342   0.534  1.00  0.00    -0.358 OA
ATOM     18  H1  UNL     1      11.141  17.203   0.887  1.00  0.00     0.217 HD
ENDBRANCH   5  17
TORSDOF 5
ENDMDL
