MODEL 1
REMARK VINA RESULT: -7.775137783      0.000      0.000
REMARK  5 active torsions:
REMARK  status: ('A' for Active; 'I' for Inactive)
REMARK    1  A    between atoms: C2_2  and  O1_3 
REMARK    2  A    between atoms: O1_3  and  C3_4 
REMARK    3  A    between atoms: C14_22  and  O4_23 
REMARK    4  A    between atoms: O4_23  and  C15_24 
REMARK    5  A    between atoms: N4_30  and  C21_31 
ROOT
HETATM    1  C3  UNL     1      41.529  40.059  54.384  1.00  0.00     0.104 A 
HETATM    2  C4  UNL     1      40.794  41.077  55.014  1.00  0.00     0.043 A 
HETATM    3  C5  UNL     1      41.301  42.495  55.059  1.00  0.00     0.071 C 
HETATM    4  N1  UNL     1      39.622  40.750  55.560  1.00  0.00    -0.323 N 
ATOM      5  H1  UNL     1      39.078  41.479  56.023  1.00  0.00     0.169 HD
HETATM    6  C6  UNL     1      39.123  39.488  55.527  1.00  0.00     0.273 A 
HETATM    7  O2  UNL     1      38.032  39.342  56.072  1.00  0.00    -0.266 OA
HETATM    8  C7  UNL     1      39.772  38.449  54.935  1.00  0.00     0.118 A 
HETATM    9  C8  UNL     1      41.009  38.772  54.351  1.00  0.00     0.044 A 
HETATM   10  C9  UNL     1      41.457  37.633  53.775  1.00  0.00     0.012 A 
HETATM   11  C10 UNL     1      42.631  37.517  53.053  1.00  0.00     0.043 C 
HETATM   12  C11 UNL     1      43.351  36.333  52.912  1.00  0.00     0.113 C 
HETATM   13  C12 UNL     1      44.681  36.520  52.458  1.00  0.00     0.105 C 
HETATM   14  N2  UNL     1      45.757  36.668  52.105  1.00  0.00    -0.191 NA
HETATM   15  C13 UNL     1      42.933  35.028  53.156  1.00  0.00     0.268 C 
HETATM   16  O3  UNL     1      43.769  34.131  53.024  1.00  0.00    -0.266 OA
HETATM   17  N3  UNL     1      41.692  34.597  53.529  1.00  0.00    -0.301 N 
ATOM     18  H3  UNL     1      41.604  33.620  53.806  1.00  0.00     0.171 HD
HETATM   19  C14 UNL     1      40.569  35.349  53.566  1.00  0.00     0.174 C 
HETATM   20  C20 UNL     1      40.496  36.648  54.023  1.00  0.00     0.098 A 
HETATM   21  N4  UNL     1      39.472  37.154  54.737  1.00  0.00    -0.333 N 
ENDROOT
BRANCH  19  22
HETATM   22  O4  UNL     1      39.368  34.835  53.123  1.00  0.00    -0.329 OA
BRANCH  22  23
HETATM   23  C15 UNL     1      39.039  34.714  51.751  1.00  0.00     0.130 C 
HETATM   24  C16 UNL     1      38.093  35.777  51.291  1.00  0.00     0.032 C 
HETATM   25  C17 UNL     1      36.827  35.117  50.865  1.00  0.00     0.002 C 
HETATM   26  C18 UNL     1      37.039  33.642  50.967  1.00  0.00     0.002 C 
HETATM   27  C19 UNL     1      38.476  33.392  51.365  1.00  0.00     0.032 C 
ENDBRANCH  22  23
ENDBRANCH  19  22
BRANCH   1  28
HETATM   28  O1  UNL     1      42.712  40.468  53.855  1.00  0.00    -0.349 OA
BRANCH  28  29
HETATM   29  C2  UNL     1      43.921  40.458  54.556  1.00  0.00     0.171 C 
HETATM   30  C1  UNL     1      45.169  40.109  53.844  1.00  0.00     0.034 C 
ENDBRANCH  28  29
ENDBRANCH   1  28
BRANCH  21  31
HETATM   31  C21 UNL     1      38.361  36.435  55.202  1.00  0.00     0.091 C 
HETATM   32  C22 UNL     1      36.992  36.710  54.714  1.00  0.00     0.026 C 
HETATM   33  C23 UNL     1      36.028  36.360  55.840  1.00  0.00     0.002 C 
HETATM   34  C24 UNL     1      36.847  36.118  57.078  1.00  0.00     0.002 C 
HETATM   35  C25 UNL     1      38.284  36.300  56.745  1.00  0.00     0.026 C 
ENDBRANCH  21  31
TORSDOF 5
ENDMDL
MODEL 2
REMARK VINA RESULT: -7.639960874      2.423      6.111
REMARK  5 active torsions:
REMARK  status: ('A' for Active; 'I' for Inactive)
REMARK    1  A    between atoms: C2_2  and  O1_3 
REMARK    2  A    between atoms: O1_3  and  C3_4 
REMARK    3  A    between atoms: C14_22  and  O4_23 
REMARK    4  A    between atoms: O4_23  and  C15_24 
REMARK    5  A    between atoms: N4_30  and  C21_31 
ROOT
HETATM    1  C3  UNL     1      38.167  37.444  56.708  1.00  0.00     0.104 A 
HETATM    2  C4  UNL     1      38.397  37.948  57.999  1.00  0.00     0.043 A 
HETATM    3  C5  UNL     1      37.656  37.407  59.194  1.00  0.00     0.071 C 
HETATM    4  N1  UNL     1      39.306  38.914  58.136  1.00  0.00    -0.323 N 
ATOM      5  H1  UNL     1      39.483  39.291  59.068  1.00  0.00     0.169 HD
HETATM    6  C6  UNL     1      40.006  39.417  57.087  1.00  0.00     0.273 A 
HETATM    7  O2  UNL     1      40.809  40.303  57.370  1.00  0.00    -0.266 OA
HETATM    8  C7  UNL     1      39.843  38.981  55.809  1.00  0.00     0.118 A 
HETATM    9  C8  UNL     1      38.890  37.961  55.643  1.00  0.00     0.044 A 
HETATM   10  C9  UNL     1      38.921  37.634  54.330  1.00  0.00     0.012 A 
HETATM   11  C10 UNL     1      38.161  36.640  53.742  1.00  0.00     0.043 C 
HETATM   12  C11 UNL     1      37.787  36.630  52.400  1.00  0.00     0.113 C 
HETATM   13  C12 UNL     1      36.726  35.737  52.107  1.00  0.00     0.105 C 
HETATM   14  N2  UNL     1      35.862  35.028  51.869  1.00  0.00    -0.191 NA
HETATM   15  C13 UNL     1      38.315  37.369  51.346  1.00  0.00     0.268 C 
HETATM   16  O3  UNL     1      37.778  37.244  50.241  1.00  0.00    -0.266 OA
HETATM   17  N3  UNL     1      39.372  38.233  51.368  1.00  0.00    -0.301 N 
ATOM     18  H3  UNL     1      39.528  38.798  50.534  1.00  0.00     0.171 HD
HETATM   19  C14 UNL     1      40.232  38.407  52.397  1.00  0.00     0.174 C 
HETATM   20  C20 UNL     1      39.878  38.459  53.729  1.00  0.00     0.098 A 
HETATM   21  N4  UNL     1      40.433  39.281  54.639  1.00  0.00    -0.333 N 
ENDROOT
BRANCH  19  22
HETATM   22  O4  UNL     1      41.583  38.548  52.164  1.00  0.00    -0.329 OA
BRANCH  22  23
HETATM   23  C15 UNL     1      42.382  37.520  51.606  1.00  0.00     0.130 C 
HETATM   24  C16 UNL     1      42.179  36.202  52.282  1.00  0.00     0.032 C 
HETATM   25  C17 UNL     1      43.467  35.806  52.918  1.00  0.00     0.002 C 
HETATM   26  C18 UNL     1      44.484  36.832  52.540  1.00  0.00     0.002 C 
HETATM   27  C19 UNL     1      43.841  37.813  51.586  1.00  0.00     0.032 C 
ENDBRANCH  22  23
ENDBRANCH  19  22
BRANCH   1  28
HETATM   28  O1  UNL     1      37.226  36.465  56.649  1.00  0.00    -0.349 OA
BRANCH  28  29
HETATM   29  C2  UNL     1      35.865  36.708  56.437  1.00  0.00     0.171 C 
HETATM   30  C1  UNL     1      35.099  35.808  55.548  1.00  0.00     0.034 C 
ENDBRANCH  28  29
ENDBRANCH   1  28
BRANCH  21  31
HETATM   31  C21 UNL     1      41.392  40.271  54.375  1.00  0.00     0.091 C 
HETATM   32  C22 UNL     1      42.784  40.160  54.861  1.00  0.00     0.026 C 
HETATM   33  C23 UNL     1      43.308  41.574  55.071  1.00  0.00     0.002 C 
HETATM   34  C24 UNL     1      42.140  42.513  54.948  1.00  0.00     0.002 C 
HETATM   35  C25 UNL     1      40.916  41.719  54.661  1.00  0.00     0.026 C 
ENDBRANCH  21  31
TORSDOF 5
ENDMDL
MODEL 3
REMARK VINA RESULT: -7.562183740      2.763      5.472
REMARK  5 active torsions:
REMARK  status: ('A' for Active; 'I' for Inactive)
REMARK    1  A    between atoms: C2_2  and  O1_3 
REMARK    2  A    between atoms: O1_3  and  C3_4 
REMARK    3  A    between atoms: C14_22  and  O4_23 
REMARK    4  A    between atoms: O4_23  and  C15_24 
REMARK    5  A    between atoms: N4_30  and  C21_31 
ROOT
HETATM    1  C3  UNL     1      38.680  38.031  58.445  1.00  0.00     0.104 A 
HETATM    2  C4  UNL     1      38.115  38.906  59.387  1.00  0.00     0.043 A 
HETATM    3  C5  UNL     1      38.331  38.711  60.866  1.00  0.00     0.071 C 
HETATM    4  N1  UNL     1      37.389  39.927  58.929  1.00  0.00    -0.323 N 
ATOM      5  H1  UNL     1      36.970  40.570  59.602  1.00  0.00     0.169 HD
HETATM    6  C6  UNL     1      37.183  40.146  57.605  1.00  0.00     0.273 A 
HETATM    7  O2  UNL     1      36.494  41.127  57.338  1.00  0.00    -0.266 OA
HETATM    8  C7  UNL     1      37.699  39.346  56.633  1.00  0.00     0.118 A 
HETATM    9  C8  UNL     1      38.469  38.265  57.094  1.00  0.00     0.044 A 
HETATM   10  C9  UNL     1      38.930  37.638  55.988  1.00  0.00     0.012 A 
HETATM   11  C10 UNL     1      39.767  36.536  55.989  1.00  0.00     0.043 C 
HETATM   12  C11 UNL     1      39.827  35.596  54.963  1.00  0.00     0.113 C 
HETATM   13  C12 UNL     1      40.462  34.384  55.333  1.00  0.00     0.105 C 
HETATM   14  N2  UNL     1      40.961  33.400  55.630  1.00  0.00    -0.191 NA
HETATM   15  C13 UNL     1      39.353  35.702  53.659  1.00  0.00     0.268 C 
HETATM   16  O3  UNL     1      39.460  34.709  52.935  1.00  0.00    -0.266 OA
HETATM   17  N3  UNL     1      38.774  36.784  53.058  1.00  0.00    -0.301 N 
ATOM     18  H3  UNL     1      38.355  36.635  52.141  1.00  0.00     0.171 HD
HETATM   19  C14 UNL     1      38.706  38.033  53.570  1.00  0.00     0.174 C 
HETATM   20  C20 UNL     1      38.430  38.339  54.886  1.00  0.00     0.098 A 
HETATM   21  N4  UNL     1      37.675  39.379  55.289  1.00  0.00    -0.333 N 
ENDROOT
BRANCH  19  22
HETATM   22  O4  UNL     1      38.922  39.131  52.765  1.00  0.00    -0.329 OA
BRANCH  22  23
HETATM   23  C15 UNL     1      40.202  39.707  52.571  1.00  0.00     0.130 C 
HETATM   24  C16 UNL     1      41.196  38.731  52.030  1.00  0.00     0.032 C 
HETATM   25  C17 UNL     1      42.274  38.558  53.045  1.00  0.00     0.002 C 
HETATM   26  C18 UNL     1      41.990  39.510  54.161  1.00  0.00     0.002 C 
HETATM   27  C19 UNL     1      40.785  40.341  53.784  1.00  0.00     0.032 C 
ENDBRANCH  22  23
ENDBRANCH  19  22
BRANCH   1  28
HETATM   28  O1  UNL     1      39.403  37.015  58.988  1.00  0.00    -0.349 OA
BRANCH  28  29
HETATM   29  C2  UNL     1      38.962  35.689  59.038  1.00  0.00     0.171 C 
HETATM   30  C1  UNL     1      38.021  35.278  60.102  1.00  0.00     0.034 C 
ENDBRANCH  28  29
ENDBRANCH   1  28
BRANCH  21  31
HETATM   31  C21 UNL     1      36.982  40.265  54.451  1.00  0.00     0.091 C 
HETATM   32  C22 UNL     1      37.272  41.715  54.433  1.00  0.00     0.026 C 
HETATM   33  C23 UNL     1      35.984  42.434  54.057  1.00  0.00     0.002 C 
HETATM   34  C24 UNL     1      34.872  41.422  54.098  1.00  0.00     0.002 C 
HETATM   35  C25 UNL     1      35.440  40.103  54.482  1.00  0.00     0.026 C 
ENDBRANCH  21  31
TORSDOF 5
ENDMDL
MODEL 4
REMARK VINA RESULT: -7.531925794      2.407      5.979
REMARK  5 active torsions:
REMARK  status: ('A' for Active; 'I' for Inactive)
REMARK    1  A    between atoms: C2_2  and  O1_3 
REMARK    2  A    between atoms: O1_3  and  C3_4 
REMARK    3  A    between atoms: C14_22  and  O4_23 
REMARK    4  A    between atoms: O4_23  and  C15_24 
REMARK    5  A    between atoms: N4_30  and  C21_31 
ROOT
HETATM    1  C3  UNL     1      38.395  38.222  57.544  1.00  0.00     0.104 A 
HETATM    2  C4  UNL     1      38.704  38.970  58.691  1.00  0.00     0.043 A 
HETATM    3  C5  UNL     1      38.007  38.717  60.003  1.00  0.00     0.071 C 
HETATM    4  N1  UNL     1      39.647  39.907  58.586  1.00  0.00    -0.323 N 
ATOM      5  H1  UNL     1      39.881  40.460  59.411  1.00  0.00     0.169 HD
HETATM    6  C6  UNL     1      40.309  40.156  57.427  1.00  0.00     0.273 A 
HETATM    7  O2  UNL     1      41.151  41.048  57.486  1.00  0.00    -0.266 OA
HETATM    8  C7  UNL     1      40.069  39.473  56.275  1.00  0.00     0.118 A 
HETATM    9  C8  UNL     1      39.079  38.479  56.365  1.00  0.00     0.044 A 
HETATM   10  C9  UNL     1      39.034  37.888  55.149  1.00  0.00     0.012 A 
HETATM   11  C10 UNL     1      38.216  36.825  54.812  1.00  0.00     0.043 C 
HETATM   12  C11 UNL     1      37.776  36.553  53.519  1.00  0.00     0.113 C 
HETATM   13  C12 UNL     1      36.675  35.662  53.463  1.00  0.00     0.105 C 
HETATM   14  N2  UNL     1      35.779  34.954  53.414  1.00  0.00    -0.191 NA
HETATM   15  C13 UNL     1      38.273  37.038  52.313  1.00  0.00     0.268 C 
HETATM   16  O3  UNL     1      37.678  36.710  51.282  1.00  0.00    -0.266 OA
HETATM   17  N3  UNL     1      39.356  37.845  52.111  1.00  0.00    -0.301 N 
ATOM     18  H3  UNL     1      39.486  38.220  51.172  1.00  0.00     0.171 HD
HETATM   19  C14 UNL     1      40.270  38.193  53.044  1.00  0.00     0.174 C 
HETATM   20  C20 UNL     1      39.984  38.532  54.349  1.00  0.00     0.098 A 
HETATM   21  N4  UNL     1      40.609  39.502  55.045  1.00  0.00    -0.333 N 
ENDROOT
BRANCH  19  22
HETATM   22  O4  UNL     1      41.612  38.229  52.729  1.00  0.00    -0.329 OA
BRANCH  22  23
HETATM   23  C15 UNL     1      42.265  37.197  52.012  1.00  0.00     0.130 C 
HETATM   24  C16 UNL     1      42.166  35.871  52.696  1.00  0.00     0.032 C 
HETATM   25  C17 UNL     1      43.543  35.438  53.066  1.00  0.00     0.002 C 
HETATM   26  C18 UNL     1      44.492  36.451  52.514  1.00  0.00     0.002 C 
HETATM   27  C19 UNL     1      43.700  37.461  51.716  1.00  0.00     0.032 C 
ENDBRANCH  22  23
ENDBRANCH  19  22
BRANCH   1  28
HETATM   28  O1  UNL     1      37.422  37.289  57.729  1.00  0.00    -0.349 OA
BRANCH  28  29
HETATM   29  C2  UNL     1      37.670  35.985  58.166  1.00  0.00     0.171 C 
HETATM   30  C1  UNL     1      39.067  35.514  58.283  1.00  0.00     0.034 C 
ENDBRANCH  28  29
ENDBRANCH   1  28
BRANCH  21  31
HETATM   31  C21 UNL     1      41.582  40.377  54.540  1.00  0.00     0.091 C 
HETATM   32  C22 UNL     1      43.009  40.256  54.911  1.00  0.00     0.026 C 
HETATM   33  C23 UNL     1      43.618  41.650  54.843  1.00  0.00     0.002 C 
HETATM   34  C24 UNL     1      42.488  42.630  54.677  1.00  0.00     0.002 C 
HETATM   35  C25 UNL     1      41.207  41.878  54.632  1.00  0.00     0.026 C 
ENDBRANCH  21  31
TORSDOF 5
ENDMDL
MODEL 5
REMARK VINA RESULT: -7.415698801      2.910      8.254
REMARK  5 active torsions:
REMARK  status: ('A' for Active; 'I' for Inactive)
REMARK    1  A    between atoms: C2_2  and  O1_3 
REMARK    2  A    between atoms: O1_3  and  C3_4 
REMARK    3  A    between atoms: C14_22  and  O4_23 
REMARK    4  A    between atoms: O4_23  and  C15_24 
REMARK    5  A    between atoms: N4_30  and  C21_31 
ROOT
HETATM    1  C3  UNL     1      35.755  33.400  51.329  1.00  0.00     0.104 A 
HETATM    2  C4  UNL     1      36.458  32.244  50.952  1.00  0.00     0.043 A 
HETATM    3  C5  UNL     1      35.763  31.093  50.271  1.00  0.00     0.071 C 
HETATM    4  N1  UNL     1      37.766  32.202  51.205  1.00  0.00    -0.323 N 
ATOM      5  H1  UNL     1      38.290  31.368  50.938  1.00  0.00     0.169 HD
HETATM    6  C6  UNL     1      38.431  33.224  51.802  1.00  0.00     0.273 A 
HETATM    7  O2  UNL     1      39.635  33.040  51.968  1.00  0.00    -0.266 OA
HETATM    8  C7  UNL     1      37.823  34.376  52.193  1.00  0.00     0.118 A 
HETATM    9  C8  UNL     1      36.443  34.442  51.934  1.00  0.00     0.044 A 
HETATM   10  C9  UNL     1      36.047  35.670  52.339  1.00  0.00     0.012 A 
HETATM   11  C10 UNL     1      34.760  36.166  52.228  1.00  0.00     0.043 C 
HETATM   12  C11 UNL     1      34.223  37.145  53.061  1.00  0.00     0.113 C 
HETATM   13  C12 UNL     1      32.809  37.230  53.008  1.00  0.00     0.105 C 
HETATM   14  N2  UNL     1      31.668  37.293  52.978  1.00  0.00    -0.191 NA
HETATM   15  C13 UNL     1      34.888  38.022  53.912  1.00  0.00     0.268 C 
HETATM   16  O3  UNL     1      34.197  38.768  54.611  1.00  0.00    -0.266 OA
HETATM   17  N3  UNL     1      36.235  38.173  54.081  1.00  0.00    -0.301 N 
ATOM     18  H3  UNL     1      36.542  38.762  54.855  1.00  0.00     0.171 HD
HETATM   19  C14 UNL     1      37.198  37.612  53.316  1.00  0.00     0.174 C 
HETATM   20  C20 UNL     1      37.181  36.319  52.838  1.00  0.00     0.098 A 
HETATM   21  N4  UNL     1      38.261  35.519  52.749  1.00  0.00    -0.333 N 
ENDROOT
BRANCH  19  22
HETATM   22  O4  UNL     1      38.310  38.339  52.948  1.00  0.00    -0.329 OA
BRANCH  22  23
HETATM   23  C15 UNL     1      38.921  39.299  53.792  1.00  0.00     0.130 C 
HETATM   24  C16 UNL     1      39.918  40.147  53.070  1.00  0.00     0.032 C 
HETATM   25  C17 UNL     1      41.259  39.895  53.669  1.00  0.00     0.002 C 
HETATM   26  C18 UNL     1      41.062  38.971  54.827  1.00  0.00     0.002 C 
HETATM   27  C19 UNL     1      39.580  38.732  54.999  1.00  0.00     0.032 C 
ENDBRANCH  22  23
ENDBRANCH  19  22
BRANCH   1  28
HETATM   28  O1  UNL     1      34.426  33.367  51.041  1.00  0.00    -0.349 OA
BRANCH  28  29
HETATM   29  C2  UNL     1      33.885  33.785  49.822  1.00  0.00     0.171 C 
HETATM   30  C1  UNL     1      34.754  34.470  48.841  1.00  0.00     0.034 C 
ENDBRANCH  28  29
ENDBRANCH   1  28
BRANCH  21  31
HETATM   31  C21 UNL     1      39.553  35.831  53.200  1.00  0.00     0.091 C 
HETATM   32  C22 UNL     1      40.691  35.982  52.267  1.00  0.00     0.026 C 
HETATM   33  C23 UNL     1      41.953  35.585  53.020  1.00  0.00     0.002 C 
HETATM   34  C24 UNL     1      41.528  34.960  54.320  1.00  0.00     0.002 C 
HETATM   35  C25 UNL     1      40.043  34.968  54.391  1.00  0.00     0.026 C 
ENDBRANCH  21  31
TORSDOF 5
ENDMDL
