MODEL 1
REMARK VINA RESULT: -8.823871091      0.000      0.000
REMARK  5 active torsions:
REMARK  status: ('A' for Active; 'I' for Inactive)
REMARK    1  A    between atoms: C2_2  and  N1_3 
REMARK    2  A    between atoms: N1_3  and  C3_5 
REMARK    3  A    between atoms: C3_5  and  C4_6 
REMARK    4  A    between atoms: N2_9  and  C7_10 
REMARK    5  A    between atoms: C8_13  and  N4_14 
ROOT
HETATM    1  C7  UNL     1      41.156  36.674  52.543  1.00  0.00     0.131 A 
HETATM    2  N3  UNL     1      40.312  35.867  51.829  1.00  0.00    -0.176 N 
ATOM      3  H3  UNL     1      40.694  35.262  51.102  1.00  0.00     0.186 HD
HETATM    4  C8  UNL     1      38.999  35.854  52.063  1.00  0.00     0.682 A 
HETATM    5  N5  UNL     1      38.550  36.670  53.028  1.00  0.00    -0.191 N 
ATOM      6  H5  UNL     1      37.547  36.671  53.217  1.00  0.00     0.184 HD
HETATM    7  C16 UNL     1      39.321  37.485  53.763  1.00  0.00     0.065 A 
HETATM    8  C17 UNL     1      38.772  38.289  54.719  1.00  0.00     0.063 A 
HETATM    9  C18 UNL     1      39.613  39.118  55.436  1.00  0.00     0.064 A 
HETATM   10  C19 UNL     1      40.968  39.134  55.197  1.00  0.00     0.061 A 
HETATM   11  C20 UNL     1      41.539  38.317  54.226  1.00  0.00     0.049 A 
HETATM   12  C21 UNL     1      40.693  37.495  53.516  1.00  0.00     0.038 A 
HETATM   13  N6  UNL     1      41.535  40.029  56.037  1.00  0.00    -0.350 N 
ATOM     14  H6  UNL     1      42.526  40.262  56.098  1.00  0.00     0.166 HD
HETATM   15  C22 UNL     1      40.535  40.554  56.779  1.00  0.00     0.183 A 
HETATM   16  N7  UNL     1      39.363  40.004  56.417  1.00  0.00    -0.345 N 
HETATM   17  C23 UNL     1      38.048  40.278  56.953  1.00  0.00     0.157 C 
ENDROOT
BRANCH   1  18
HETATM   18  N2  UNL     1      42.557  36.607  52.270  1.00  0.00    -0.366 N 
HETATM   19  C6  UNL     1      43.436  35.613  52.828  1.00  0.00     0.125 C 
HETATM   20  C5  UNL     1      44.883  35.831  52.635  1.00  0.00     0.030 C 
HETATM   21  C4  UNL     1      45.356  37.186  52.251  1.00  0.00     0.026 C 
HETATM   22  C25 UNL     1      44.267  38.227  52.076  1.00  0.00     0.030 C 
HETATM   23  C24 UNL     1      43.115  37.588  51.371  1.00  0.00     0.125 C 
BRANCH  21  24
HETATM   24  C3  UNL     1      46.349  37.773  53.199  1.00  0.00     0.060 C 
BRANCH  24  25
HETATM   25  N1  UNL     1      47.689  37.897  52.806  1.00  0.00    -0.402 N 
ATOM     26  H1  UNL     1      48.388  38.216  53.477  1.00  0.00     0.158 HD
BRANCH  25  27
HETATM   27  C2  UNL     1      48.076  37.582  51.481  1.00  0.00     0.114 C 
HETATM   28  C1  UNL     1      48.915  36.364  51.255  1.00  0.00     0.026 C 
ENDBRANCH  25  27
ENDBRANCH  24  25
ENDBRANCH  21  24
ENDBRANCH   1  18
BRANCH   4  29
HETATM   29  N4  UNL     1      38.097  35.022  51.326  1.00  0.00    -0.217 N 
HETATM   30  C9  UNL     1      37.149  35.604  50.447  1.00  0.00     0.145 C 
HETATM   31  C10 UNL     1      36.497  34.714  49.457  1.00  0.00     0.000 C 
HETATM   32  C11 UNL     1      34.979  34.764  49.679  1.00  0.00     0.011 C 
HETATM   33  C12 UNL     1      36.870  33.277  49.489  1.00  0.00     0.011 C 
HETATM   34  C13 UNL     1      38.241  33.025  50.069  1.00  0.00     0.000 C 
HETATM   35  C14 UNL     1      38.480  31.543  50.075  1.00  0.00     0.011 C 
HETATM   36  C15 UNL     1      38.174  33.592  51.493  1.00  0.00     0.145 C 
ENDBRANCH   4  29
TORSDOF 5
ENDMDL
MODEL 2
REMARK VINA RESULT: -8.762405300      0.982      1.023
REMARK  5 active torsions:
REMARK  status: ('A' for Active; 'I' for Inactive)
REMARK    1  A    between atoms: C2_2  and  N1_3 
REMARK    2  A    between atoms: N1_3  and  C3_5 
REMARK    3  A    between atoms: C3_5  and  C4_6 
REMARK    4  A    between atoms: N2_9  and  C7_10 
REMARK    5  A    between atoms: C8_13  and  N4_14 
ROOT
HETATM    1  C7  UNL     1      41.040  36.362  52.883  1.00  0.00     0.131 A 
HETATM    2  N3  UNL     1      40.227  35.399  52.349  1.00  0.00    -0.176 N 
ATOM      3  H3  UNL     1      40.601  34.764  51.644  1.00  0.00     0.186 HD
HETATM    4  C8  UNL     1      38.956  35.274  52.730  1.00  0.00     0.682 A 
HETATM    5  N5  UNL     1      38.515  36.137  53.657  1.00  0.00    -0.191 N 
ATOM      6  H5  UNL     1      37.543  36.053  53.957  1.00  0.00     0.184 HD
HETATM    7  C16 UNL     1      39.257  37.103  54.220  1.00  0.00     0.065 A 
HETATM    8  C17 UNL     1      38.718  37.943  55.150  1.00  0.00     0.063 A 
HETATM    9  C18 UNL     1      39.526  38.927  55.685  1.00  0.00     0.064 A 
HETATM   10  C19 UNL     1      40.839  39.060  55.294  1.00  0.00     0.061 A 
HETATM   11  C20 UNL     1      41.399  38.209  54.347  1.00  0.00     0.049 A 
HETATM   12  C21 UNL     1      40.587  37.230  53.819  1.00  0.00     0.038 A 
HETATM   13  N6  UNL     1      41.380  40.094  55.975  1.00  0.00    -0.350 N 
ATOM     14  H6  UNL     1      42.339  40.436  55.902  1.00  0.00     0.166 HD
HETATM   15  C22 UNL     1      40.407  40.589  56.772  1.00  0.00     0.183 A 
HETATM   16  N7  UNL     1      39.276  39.882  56.599  1.00  0.00    -0.345 N 
HETATM   17  C23 UNL     1      37.999  40.073  57.251  1.00  0.00     0.157 C 
ENDROOT
BRANCH   1  18
HETATM   18  N2  UNL     1      42.404  36.414  52.461  1.00  0.00    -0.366 N 
HETATM   19  C6  UNL     1      43.416  35.491  52.904  1.00  0.00     0.125 C 
HETATM   20  C5  UNL     1      44.811  35.830  52.562  1.00  0.00     0.030 C 
HETATM   21  C4  UNL     1      45.128  37.223  52.155  1.00  0.00     0.026 C 
HETATM   22  C25 UNL     1      43.947  38.172  52.116  1.00  0.00     0.030 C 
HETATM   23  C24 UNL     1      42.781  37.447  51.526  1.00  0.00     0.125 C 
BRANCH  21  24
HETATM   24  C3  UNL     1      46.167  37.880  53.003  1.00  0.00     0.060 C 
BRANCH  24  25
HETATM   25  N1  UNL     1      47.459  38.069  52.490  1.00  0.00    -0.402 N 
ATOM     26  H1  UNL     1      47.791  39.012  52.286  1.00  0.00     0.158 HD
BRANCH  25  27
HETATM   27  C2  UNL     1      48.303  36.957  52.257  1.00  0.00     0.114 C 
HETATM   28  C1  UNL     1      48.757  36.689  50.857  1.00  0.00     0.026 C 
ENDBRANCH  25  27
ENDBRANCH  24  25
ENDBRANCH  21  24
ENDBRANCH   1  18
BRANCH   4  29
HETATM   29  N4  UNL     1      38.085  34.277  52.183  1.00  0.00    -0.217 N 
HETATM   30  C9  UNL     1      36.684  34.377  52.370  1.00  0.00     0.145 C 
HETATM   31  C10 UNL     1      35.817  33.544  51.501  1.00  0.00     0.000 C 
HETATM   32  C11 UNL     1      34.963  32.631  52.393  1.00  0.00     0.011 C 
HETATM   33  C12 UNL     1      36.492  32.652  50.526  1.00  0.00     0.011 C 
HETATM   34  C13 UNL     1      37.869  33.129  50.128  1.00  0.00     0.000 C 
HETATM   35  C14 UNL     1      38.451  32.129  49.172  1.00  0.00     0.011 C 
HETATM   36  C15 UNL     1      38.660  33.183  51.441  1.00  0.00     0.145 C 
ENDBRANCH   4  29
TORSDOF 5
ENDMDL
MODEL 3
REMARK VINA RESULT: -8.747279981      1.507      1.846
REMARK  5 active torsions:
REMARK  status: ('A' for Active; 'I' for Inactive)
REMARK    1  A    between atoms: C2_2  and  N1_3 
REMARK    2  A    between atoms: N1_3  and  C3_5 
REMARK    3  A    between atoms: C3_5  and  C4_6 
REMARK    4  A    between atoms: N2_9  and  C7_10 
REMARK    5  A    between atoms: C8_13  and  N4_14 
ROOT
HETATM    1  C7  UNL     1      41.359  36.811  52.673  1.00  0.00     0.131 A 
HETATM    2  N3  UNL     1      40.569  35.835  52.129  1.00  0.00    -0.176 N 
ATOM      3  H3  UNL     1      40.984  34.937  51.880  1.00  0.00     0.186 HD
HETATM    4  C8  UNL     1      39.268  36.033  51.917  1.00  0.00     0.682 A 
HETATM    5  N5  UNL     1      38.775  37.232  52.261  1.00  0.00    -0.191 N 
ATOM      6  H5  UNL     1      37.780  37.396  52.103  1.00  0.00     0.184 HD
HETATM    7  C16 UNL     1      39.492  38.230  52.796  1.00  0.00     0.065 A 
HETATM    8  C17 UNL     1      38.905  39.422  53.105  1.00  0.00     0.063 A 
HETATM    9  C18 UNL     1      39.696  40.419  53.641  1.00  0.00     0.064 A 
HETATM   10  C19 UNL     1      41.040  40.220  53.862  1.00  0.00     0.061 A 
HETATM   11  C20 UNL     1      41.649  39.008  53.552  1.00  0.00     0.049 A 
HETATM   12  C21 UNL     1      40.853  38.020  53.017  1.00  0.00     0.038 A 
HETATM   13  N6  UNL     1      41.555  41.353  54.388  1.00  0.00    -0.350 N 
ATOM     14  H6  UNL     1      42.525  41.511  54.659  1.00  0.00     0.166 HD
HETATM   15  C22 UNL     1      40.536  42.235  54.486  1.00  0.00     0.183 A 
HETATM   16  N7  UNL     1      39.402  41.673  54.033  1.00  0.00    -0.345 N 
HETATM   17  C23 UNL     1      38.084  42.262  53.959  1.00  0.00     0.157 C 
ENDROOT
BRANCH   1  18
HETATM   18  N2  UNL     1      42.737  36.519  52.913  1.00  0.00    -0.366 N 
HETATM   19  C6  UNL     1      43.818  37.401  52.558  1.00  0.00     0.125 C 
HETATM   20  C5  UNL     1      45.181  36.844  52.657  1.00  0.00     0.030 C 
HETATM   21  C4  UNL     1      45.347  35.370  52.725  1.00  0.00     0.026 C 
HETATM   22  C25 UNL     1      44.059  34.570  52.703  1.00  0.00     0.030 C 
HETATM   23  C24 UNL     1      43.057  35.270  53.562  1.00  0.00     0.125 C 
BRANCH  21  24
HETATM   24  C3  UNL     1      46.210  34.807  51.643  1.00  0.00     0.060 C 
BRANCH  24  25
HETATM   25  N1  UNL     1      47.601  34.954  51.723  1.00  0.00    -0.402 N 
ATOM     26  H1  UNL     1      48.168  34.213  52.136  1.00  0.00     0.158 HD
BRANCH  25  27
HETATM   27  C2  UNL     1      48.224  36.127  51.230  1.00  0.00     0.114 C 
HETATM   28  C1  UNL     1      49.697  36.096  50.972  1.00  0.00     0.026 C 
ENDBRANCH  25  27
ENDBRANCH  24  25
ENDBRANCH  21  24
ENDBRANCH   1  18
BRANCH   4  29
HETATM   29  N4  UNL     1      38.423  35.028  51.346  1.00  0.00    -0.217 N 
HETATM   30  C9  UNL     1      37.396  35.394  50.439  1.00  0.00     0.145 C 
HETATM   31  C10 UNL     1      36.798  34.317  49.613  1.00  0.00     0.000 C 
HETATM   32  C11 UNL     1      35.289  34.265  49.896  1.00  0.00     0.011 C 
HETATM   33  C12 UNL     1      37.303  32.938  49.827  1.00  0.00     0.011 C 
HETATM   34  C13 UNL     1      38.710  32.892  50.373  1.00  0.00     0.000 C 
HETATM   35  C14 UNL     1      39.087  31.453  50.573  1.00  0.00     0.011 C 
HETATM   36  C15 UNL     1      38.639  33.648  51.706  1.00  0.00     0.145 C 
ENDBRANCH   4  29
TORSDOF 5
ENDMDL
MODEL 4
REMARK VINA RESULT: -8.746851097      1.598      6.336
REMARK  5 active torsions:
REMARK  status: ('A' for Active; 'I' for Inactive)
REMARK    1  A    between atoms: C2_2  and  N1_3 
REMARK    2  A    between atoms: N1_3  and  C3_5 
REMARK    3  A    between atoms: C3_5  and  C4_6 
REMARK    4  A    between atoms: N2_9  and  C7_10 
REMARK    5  A    between atoms: C8_13  and  N4_14 
ROOT
HETATM    1  C7  UNL     1      40.921  36.216  53.473  1.00  0.00     0.131 A 
HETATM    2  N3  UNL     1      40.893  37.227  54.397  1.00  0.00    -0.176 N 
ATOM      3  H3  UNL     1      41.769  37.655  54.695  1.00  0.00     0.186 HD
HETATM    4  C8  UNL     1      39.744  37.662  54.914  1.00  0.00     0.682 A 
HETATM    5  N5  UNL     1      38.623  37.063  54.488  1.00  0.00    -0.191 N 
ATOM      6  H5  UNL     1      37.737  37.386  54.877  1.00  0.00     0.184 HD
HETATM    7  C16 UNL     1      38.580  36.069  53.589  1.00  0.00     0.065 A 
HETATM    8  C17 UNL     1      37.391  35.511  53.223  1.00  0.00     0.063 A 
HETATM    9  C18 UNL     1      37.409  34.481  52.302  1.00  0.00     0.064 A 
HETATM   10  C19 UNL     1      38.592  34.028  51.765  1.00  0.00     0.061 A 
HETATM   11  C20 UNL     1      39.811  34.590  52.130  1.00  0.00     0.049 A 
HETATM   12  C21 UNL     1      39.784  35.616  53.048  1.00  0.00     0.038 A 
HETATM   13  N6  UNL     1      38.309  33.027  50.903  1.00  0.00    -0.350 N 
ATOM     14  H6  UNL     1      38.980  32.493  50.350  1.00  0.00     0.166 HD
HETATM   15  C22 UNL     1      36.967  32.869  50.915  1.00  0.00     0.183 A 
HETATM   16  N7  UNL     1      36.414  33.752  51.765  1.00  0.00    -0.345 N 
HETATM   17  C23 UNL     1      35.013  33.926  52.079  1.00  0.00     0.157 C 
ENDROOT
BRANCH   1  18
HETATM   18  N2  UNL     1      42.183  35.827  52.927  1.00  0.00    -0.366 N 
HETATM   19  C6  UNL     1      42.957  34.714  53.412  1.00  0.00     0.125 C 
HETATM   20  C5  UNL     1      44.336  34.598  52.898  1.00  0.00     0.030 C 
HETATM   21  C4  UNL     1      44.961  35.783  52.257  1.00  0.00     0.026 C 
HETATM   22  C25 UNL     1      44.083  37.018  52.180  1.00  0.00     0.030 C 
HETATM   23  C24 UNL     1      42.700  36.589  51.816  1.00  0.00     0.125 C 
BRANCH  21  24
HETATM   24  C3  UNL     1      46.239  36.215  52.898  1.00  0.00     0.060 C 
BRANCH  24  25
HETATM   25  N1  UNL     1      47.377  35.405  52.784  1.00  0.00    -0.402 N 
ATOM     26  H1  UNL     1      47.734  34.913  53.603  1.00  0.00     0.158 HD
BRANCH  25  27
HETATM   27  C2  UNL     1      48.032  35.266  51.536  1.00  0.00     0.114 C 
HETATM   28  C1  UNL     1      48.788  36.438  50.995  1.00  0.00     0.026 C 
ENDBRANCH  25  27
ENDBRANCH  24  25
ENDBRANCH  21  24
ENDBRANCH   1  18
BRANCH   4  29
HETATM   29  N4  UNL     1      39.691  38.715  55.884  1.00  0.00    -0.217 N 
HETATM   30  C9  UNL     1      39.241  38.446  57.201  1.00  0.00     0.145 C 
HETATM   31  C10 UNL     1      39.538  39.456  58.245  1.00  0.00     0.000 C 
HETATM   32  C11 UNL     1      38.212  39.932  58.856  1.00  0.00     0.011 C 
HETATM   33  C12 UNL     1      40.257  40.681  57.817  1.00  0.00     0.011 C 
HETATM   34  C13 UNL     1      41.098  40.483  56.578  1.00  0.00     0.000 C 
HETATM   35  C14 UNL     1      41.741  41.795  56.235  1.00  0.00     0.011 C 
HETATM   36  C15 UNL     1      40.104  40.041  55.496  1.00  0.00     0.145 C 
ENDBRANCH   4  29
TORSDOF 5
ENDMDL
MODEL 5
REMARK VINA RESULT: -8.744103996      1.660      1.890
REMARK  5 active torsions:
REMARK  status: ('A' for Active; 'I' for Inactive)
REMARK    1  A    between atoms: C2_2  and  N1_3 
REMARK    2  A    between atoms: N1_3  and  C3_5 
REMARK    3  A    between atoms: C3_5  and  C4_6 
REMARK    4  A    between atoms: N2_9  and  C7_10 
REMARK    5  A    between atoms: C8_13  and  N4_14 
ROOT
HETATM    1  C7  UNL     1      42.304  36.656  52.593  1.00  0.00     0.131 A 
HETATM    2  N3  UNL     1      41.271  35.876  52.146  1.00  0.00    -0.176 N 
ATOM      3  H3  UNL     1      41.473  34.957  51.753  1.00  0.00     0.186 HD
HETATM    4  C8  UNL     1      40.007  36.294  52.213  1.00  0.00     0.682 A 
HETATM    5  N5  UNL     1      39.799  37.511  52.736  1.00  0.00    -0.191 N 
ATOM      6  H5  UNL     1      38.836  37.843  52.792  1.00  0.00     0.184 HD
HETATM    7  C16 UNL     1      40.763  38.324  53.191  1.00  0.00     0.065 A 
HETATM    8  C17 UNL     1      40.457  39.553  53.699  1.00  0.00     0.063 A 
HETATM    9  C18 UNL     1      41.493  40.353  54.141  1.00  0.00     0.064 A 
HETATM   10  C19 UNL     1      42.800  39.926  54.074  1.00  0.00     0.061 A 
HETATM   11  C20 UNL     1      43.124  38.675  53.559  1.00  0.00     0.049 A 
HETATM   12  C21 UNL     1      42.085  37.884  53.121  1.00  0.00     0.038 A 
HETATM   13  N6  UNL     1      43.590  40.903  54.570  1.00  0.00    -0.350 N 
ATOM     14  H6  UNL     1      44.606  40.880  54.654  1.00  0.00     0.166 HD
HETATM   15  C22 UNL     1      42.774  41.917  54.935  1.00  0.00     0.183 A 
HETATM   16  N7  UNL     1      41.497  41.588  54.676  1.00  0.00    -0.345 N 
HETATM   17  C23 UNL     1      40.309  42.378  54.910  1.00  0.00     0.157 C 
ENDROOT
BRANCH   1  18
HETATM   18  N2  UNL     1      43.631  36.130  52.531  1.00  0.00    -0.366 N 
HETATM   19  C6  UNL     1      44.063  34.955  53.242  1.00  0.00     0.125 C 
HETATM   20  C5  UNL     1      45.514  34.691  53.257  1.00  0.00     0.030 C 
HETATM   21  C4  UNL     1      46.445  35.795  52.906  1.00  0.00     0.026 C 
HETATM   22  C25 UNL     1      45.783  37.109  52.541  1.00  0.00     0.030 C 
HETATM   23  C24 UNL     1      44.588  36.815  51.695  1.00  0.00     0.125 C 
BRANCH  21  24
HETATM   24  C3  UNL     1      47.443  36.108  53.972  1.00  0.00     0.060 C 
BRANCH  24  25
HETATM   25  N1  UNL     1      48.802  36.199  53.641  1.00  0.00    -0.402 N 
ATOM     26  H1  UNL     1      49.408  36.837  54.155  1.00  0.00     0.158 HD
BRANCH  25  27
HETATM   27  C2  UNL     1      49.335  35.408  52.594  1.00  0.00     0.114 C 
HETATM   28  C1  UNL     1      49.840  36.098  51.366  1.00  0.00     0.026 C 
ENDBRANCH  25  27
ENDBRANCH  24  25
ENDBRANCH  21  24
ENDBRANCH   1  18
BRANCH   4  29
HETATM   29  N4  UNL     1      38.911  35.499  51.747  1.00  0.00    -0.217 N 
HETATM   30  C9  UNL     1      37.847  36.103  51.030  1.00  0.00     0.145 C 
HETATM   31  C10 UNL     1      36.939  35.209  50.272  1.00  0.00     0.000 C 
HETATM   32  C11 UNL     1      35.508  35.413  50.790  1.00  0.00     0.011 C 
HETATM   33  C12 UNL     1      37.201  33.751  50.352  1.00  0.00     0.011 C 
HETATM   34  C13 UNL     1      38.640  33.415  50.664  1.00  0.00     0.000 C 
HETATM   35  C14 UNL     1      38.764  31.921  50.749  1.00  0.00     0.011 C 
HETATM   36  C15 UNL     1      38.914  34.082  52.018  1.00  0.00     0.145 C 
ENDBRANCH   4  29
TORSDOF 5
ENDMDL
