MODEL 1
REMARK VINA RESULT: -8.712341597      0.000      0.000
REMARK  7 active torsions:
REMARK  status: ('A' for Active; 'I' for Inactive)
REMARK    1  A    between atoms: N1_1  and  C1_4 
REMARK    2  A    between atoms: N3_8  and  N4_10 
REMARK    3  A    between atoms: N4_10  and  C3_12 
REMARK    4  A    between atoms: C3_12  and  C4_13 
REMARK    5  A    between atoms: C9_18  and  N5_19 
REMARK    6  A    between atoms: C11_26  and  S1_27 
REMARK    7  A    between atoms: S1_27  and  N8_28 
ROOT
HETATM    1  C1  UNL     1      13.504  20.528  30.767  1.00  0.00     0.141 A 
HETATM    2  N2  UNL     1      13.652  19.562  31.741  1.00  0.00    -0.174 N 
ATOM      3  H2  UNL     1      12.870  18.958  31.997  1.00  0.00     0.186 HD
HETATM    4  C2  UNL     1      14.819  19.433  32.334  1.00  0.00     0.700 A 
HETATM    5  N3  UNL     1      15.052  18.617  33.277  1.00  0.00    -0.125 N 
ATOM      6  H3  UNL     1      15.999  18.622  33.655  1.00  0.00     0.206 HD
HETATM    7  N6  UNL     1      15.863  20.257  31.977  1.00  0.00    -0.176 N 
ATOM      8  H6  UNL     1      16.765  20.147  32.440  1.00  0.00     0.185 HD
HETATM    9  C10 UNL     1      15.719  21.210  31.023  1.00  0.00     0.159 A 
HETATM   10  N7  UNL     1      16.804  22.033  30.658  1.00  0.00    -0.080 NA
HETATM   11  C11 UNL     1      14.515  21.362  30.392  1.00  0.00     0.164 A 
ENDROOT
BRANCH   5  12
HETATM   12  N4  UNL     1      14.140  17.696  33.866  1.00  0.00    -0.250 N 
ATOM     13  H4  UNL     1      13.166  17.852  34.122  1.00  0.00     0.197 HD
BRANCH  12  14
HETATM   14  C3  UNL     1      14.874  16.560  34.007  1.00  0.00    -0.011 C 
BRANCH  14  15
HETATM   15  C4  UNL     1      15.583  15.483  34.123  1.00  0.00     0.061 A 
HETATM   16  C5  UNL     1      15.396  14.608  35.264  1.00  0.00     0.024 A 
HETATM   17  C6  UNL     1      16.322  13.616  35.500  1.00  0.00     0.002 A 
HETATM   18  C7  UNL     1      17.406  13.417  34.709  1.00  0.00     0.003 A 
HETATM   19  C8  UNL     1      17.583  14.233  33.644  1.00  0.00     0.037 A 
HETATM   20  C9  UNL     1      16.715  15.252  33.315  1.00  0.00     0.122 A 
BRANCH  20  21
HETATM   21  N5  UNL     1      17.021  15.966  32.129  1.00  0.00    -0.114 N 
HETATM   22  O1  UNL     1      16.904  15.265  31.046  1.00  0.00    -0.532 OA
HETATM   23  O2  UNL     1      17.458  17.244  31.989  1.00  0.00    -0.532 OA
ENDBRANCH  20  21
ENDBRANCH  14  15
ENDBRANCH  12  14
ENDBRANCH   5  12
BRANCH   1  24
HETATM   24  N1  UNL     1      12.363  20.634  30.155  1.00  0.00    -0.384 N 
ATOM     25  H12 UNL     1      12.059  19.859  29.565  1.00  0.00     0.157 HD
ATOM     26  H11 UNL     1      11.800  21.473  30.302  1.00  0.00     0.157 HD
ENDBRANCH   1  24
BRANCH  11  27
HETATM   27  S1  UNL     1      14.287  22.715  29.298  1.00  0.00     0.263 S 
HETATM   28  O3  UNL     1      14.253  24.037  30.061  1.00  0.00    -0.200 OA
HETATM   29  O4  UNL     1      12.913  22.635  28.656  1.00  0.00    -0.200 OA
BRANCH  27  30
HETATM   30  N8  UNL     1      15.567  22.767  28.140  1.00  0.00    -0.324 N 
ATOM     31  H82 UNL     1      16.537  22.536  28.350  1.00  0.00     0.169 HD
ATOM     32  H81 UNL     1      15.207  23.060  27.231  1.00  0.00     0.169 HD
ENDBRANCH  27  30
ENDBRANCH  11  27
TORSDOF 7
ENDMDL
MODEL 2
REMARK VINA RESULT: -8.664116595      1.762      2.436
REMARK  7 active torsions:
REMARK  status: ('A' for Active; 'I' for Inactive)
REMARK    1  A    between atoms: N1_1  and  C1_4 
REMARK    2  A    between atoms: N3_8  and  N4_10 
REMARK    3  A    between atoms: N4_10  and  C3_12 
REMARK    4  A    between atoms: C3_12  and  C4_13 
REMARK    5  A    between atoms: C9_18  and  N5_19 
REMARK    6  A    between atoms: C11_26  and  S1_27 
REMARK    7  A    between atoms: S1_27  and  N8_28 
ROOT
HETATM    1  C1  UNL     1      15.223  20.174  29.203  1.00  0.00     0.141 A 
HETATM    2  N2  UNL     1      15.866  19.069  29.721  1.00  0.00    -0.174 N 
ATOM      3  H2  UNL     1      15.747  18.150  29.293  1.00  0.00     0.186 HD
HETATM    4  C2  UNL     1      16.637  19.220  30.776  1.00  0.00     0.700 A 
HETATM    5  N3  UNL     1      17.232  18.268  31.365  1.00  0.00    -0.125 N 
ATOM      6  H3  UNL     1      17.795  18.520  32.178  1.00  0.00     0.206 HD
HETATM    7  N6  UNL     1      16.788  20.467  31.340  1.00  0.00    -0.176 N 
ATOM      8  H6  UNL     1      17.390  20.576  32.157  1.00  0.00     0.185 HD
HETATM    9  C10 UNL     1      16.153  21.555  30.836  1.00  0.00     0.159 A 
HETATM   10  N7  UNL     1      16.332  22.826  31.417  1.00  0.00    -0.080 NA
HETATM   11  C11 UNL     1      15.347  21.421  29.738  1.00  0.00     0.164 A 
ENDROOT
BRANCH   5  12
HETATM   12  N4  UNL     1      17.203  16.888  31.020  1.00  0.00    -0.250 N 
ATOM     13  H4  UNL     1      17.317  16.466  30.099  1.00  0.00     0.197 HD
BRANCH  12  14
HETATM   14  C3  UNL     1      16.986  16.261  32.209  1.00  0.00    -0.011 C 
BRANCH  14  15
HETATM   15  C4  UNL     1      16.772  15.684  33.347  1.00  0.00     0.061 A 
HETATM   16  C5  UNL     1      17.655  14.628  33.805  1.00  0.00     0.024 A 
HETATM   17  C6  UNL     1      17.271  13.861  34.882  1.00  0.00     0.002 A 
HETATM   18  C7  UNL     1      16.099  14.049  35.540  1.00  0.00     0.003 A 
HETATM   19  C8  UNL     1      15.273  15.033  35.114  1.00  0.00     0.037 A 
HETATM   20  C9  UNL     1      15.563  15.861  34.050  1.00  0.00     0.122 A 
BRANCH  20  21
HETATM   21  N5  UNL     1      14.614  16.878  33.783  1.00  0.00    -0.114 N 
HETATM   22  O1  UNL     1      14.887  18.014  34.342  1.00  0.00    -0.532 OA
HETATM   23  O2  UNL     1      13.458  16.804  33.074  1.00  0.00    -0.532 OA
ENDBRANCH  20  21
ENDBRANCH  14  15
ENDBRANCH  12  14
ENDBRANCH   5  12
BRANCH   1  24
HETATM   24  N1  UNL     1      14.490  20.034  28.140  1.00  0.00    -0.384 N 
ATOM     25  H12 UNL     1      14.084  20.871  27.721  1.00  0.00     0.157 HD
ATOM     26  H11 UNL     1      14.363  19.100  27.748  1.00  0.00     0.157 HD
ENDBRANCH   1  24
BRANCH  11  27
HETATM   27  S1  UNL     1      14.388  22.792  29.210  1.00  0.00     0.263 S 
HETATM   28  O3  UNL     1      14.093  23.737  30.373  1.00  0.00    -0.200 OA
HETATM   29  O4  UNL     1      13.013  22.323  28.770  1.00  0.00    -0.200 OA
BRANCH  27  30
HETATM   30  N8  UNL     1      15.225  23.665  27.976  1.00  0.00    -0.324 N 
ATOM     31  H82 UNL     1      16.108  23.366  27.563  1.00  0.00     0.169 HD
ATOM     32  H81 UNL     1      14.709  24.509  27.731  1.00  0.00     0.169 HD
ENDBRANCH  27  30
ENDBRANCH  11  27
TORSDOF 7
ENDMDL
MODEL 3
REMARK VINA RESULT: -8.648938811      3.653      7.561
REMARK  7 active torsions:
REMARK  status: ('A' for Active; 'I' for Inactive)
REMARK    1  A    between atoms: N1_1  and  C1_4 
REMARK    2  A    between atoms: N3_8  and  N4_10 
REMARK    3  A    between atoms: N4_10  and  C3_12 
REMARK    4  A    between atoms: C3_12  and  C4_13 
REMARK    5  A    between atoms: C9_18  and  N5_19 
REMARK    6  A    between atoms: C11_26  and  S1_27 
REMARK    7  A    between atoms: S1_27  and  N8_28 
ROOT
HETATM    1  C1  UNL     1      18.671  17.603  30.509  1.00  0.00     0.141 A 
HETATM    2  N2  UNL     1      18.177  18.866  30.767  1.00  0.00    -0.174 N 
ATOM      3  H2  UNL     1      17.975  19.511  30.002  1.00  0.00     0.186 HD
HETATM    4  C2  UNL     1      17.972  19.223  32.016  1.00  0.00     0.700 A 
HETATM    5  N3  UNL     1      17.572  20.373  32.370  1.00  0.00    -0.125 N 
ATOM      6  H3  UNL     1      17.458  20.523  33.372  1.00  0.00     0.206 HD
HETATM    7  N6  UNL     1      18.250  18.340  33.035  1.00  0.00    -0.176 N 
ATOM      8  H6  UNL     1      18.083  18.624  34.001  1.00  0.00     0.185 HD
HETATM    9  C10 UNL     1      18.740  17.100  32.785  1.00  0.00     0.159 A 
HETATM   10  N7  UNL     1      19.002  16.203  33.840  1.00  0.00    -0.080 NA
HETATM   11  C11 UNL     1      18.961  16.706  31.493  1.00  0.00     0.164 A 
ENDROOT
BRANCH   5  12
HETATM   12  N4  UNL     1      17.264  21.477  31.527  1.00  0.00    -0.250 N 
ATOM     13  H4  UNL     1      17.822  22.312  31.354  1.00  0.00     0.197 HD
BRANCH  12  14
HETATM   14  C3  UNL     1      16.048  21.157  31.005  1.00  0.00    -0.011 C 
BRANCH  14  15
HETATM   15  C4  UNL     1      14.894  20.833  30.518  1.00  0.00     0.061 A 
HETATM   16  C5  UNL     1      14.420  19.465  30.615  1.00  0.00     0.024 A 
HETATM   17  C6  UNL     1      13.320  19.089  29.877  1.00  0.00     0.002 A 
HETATM   18  C7  UNL     1      12.655  19.942  29.059  1.00  0.00     0.003 A 
HETATM   19  C8  UNL     1      13.096  21.219  28.965  1.00  0.00     0.037 A 
HETATM   20  C9  UNL     1      14.182  21.700  29.665  1.00  0.00     0.122 A 
BRANCH  20  21
HETATM   21  N5  UNL     1      14.464  23.079  29.496  1.00  0.00    -0.114 N 
HETATM   22  O1  UNL     1      14.046  23.826  30.468  1.00  0.00    -0.532 OA
HETATM   23  O2  UNL     1      15.057  23.708  28.449  1.00  0.00    -0.532 OA
ENDBRANCH  20  21
ENDBRANCH  14  15
ENDBRANCH  12  14
ENDBRANCH   5  12
BRANCH   1  24
HETATM   24  N1  UNL     1      18.842  17.235  29.275  1.00  0.00    -0.384 N 
ATOM     25  H12 UNL     1      19.175  16.287  29.097  1.00  0.00     0.157 HD
ATOM     26  H11 UNL     1      18.618  17.893  28.528  1.00  0.00     0.157 HD
ENDBRANCH   1  24
BRANCH  11  27
HETATM   27  S1  UNL     1      19.767  15.177  31.192  1.00  0.00     0.263 S 
HETATM   28  O3  UNL     1      20.948  14.983  32.140  1.00  0.00    -0.200 OA
HETATM   29  O4  UNL     1      20.408  15.193  29.816  1.00  0.00    -0.200 OA
BRANCH  27  30
HETATM   30  N8  UNL     1      18.659  13.868  31.399  1.00  0.00    -0.324 N 
ATOM     31  H82 UNL     1      18.791  12.939  31.001  1.00  0.00     0.169 HD
ATOM     32  H81 UNL     1      17.868  14.164  31.970  1.00  0.00     0.169 HD
ENDBRANCH  27  30
ENDBRANCH  11  27
TORSDOF 7
ENDMDL
MODEL 4
REMARK VINA RESULT: -8.575538382      1.740      2.392
REMARK  7 active torsions:
REMARK  status: ('A' for Active; 'I' for Inactive)
REMARK    1  A    between atoms: N1_1  and  C1_4 
REMARK    2  A    between atoms: N3_8  and  N4_10 
REMARK    3  A    between atoms: N4_10  and  C3_12 
REMARK    4  A    between atoms: C3_12  and  C4_13 
REMARK    5  A    between atoms: C9_18  and  N5_19 
REMARK    6  A    between atoms: C11_26  and  S1_27 
REMARK    7  A    between atoms: S1_27  and  N8_28 
ROOT
HETATM    1  C1  UNL     1      15.801  21.359  30.708  1.00  0.00     0.141 A 
HETATM    2  N2  UNL     1      16.358  20.316  31.418  1.00  0.00    -0.174 N 
ATOM      3  H2  UNL     1      16.984  20.497  32.204  1.00  0.00     0.186 HD
HETATM    4  C2  UNL     1      16.069  19.082  31.064  1.00  0.00     0.700 A 
HETATM    5  N3  UNL     1      16.564  18.050  31.610  1.00  0.00    -0.125 N 
ATOM      6  H3  UNL     1      16.261  17.151  31.237  1.00  0.00     0.206 HD
HETATM    7  N6  UNL     1      15.223  18.856  30.002  1.00  0.00    -0.176 N 
ATOM      8  H6  UNL     1      15.001  17.896  29.736  1.00  0.00     0.185 HD
HETATM    9  C10 UNL     1      14.677  19.880  29.299  1.00  0.00     0.159 A 
HETATM   10  N7  UNL     1      13.800  19.629  28.225  1.00  0.00    -0.080 NA
HETATM   11  C11 UNL     1      14.963  21.171  29.650  1.00  0.00     0.164 A 
ENDROOT
BRANCH   5  12
HETATM   12  N4  UNL     1      17.495  18.006  32.686  1.00  0.00    -0.250 N 
ATOM     13  H4  UNL     1      18.051  18.770  33.069  1.00  0.00     0.197 HD
BRANCH  12  14
HETATM   14  C3  UNL     1      17.468  16.706  33.084  1.00  0.00    -0.011 C 
BRANCH  14  15
HETATM   15  C4  UNL     1      17.432  15.464  33.445  1.00  0.00     0.061 A 
HETATM   16  C5  UNL     1      16.517  15.035  34.486  1.00  0.00     0.024 A 
HETATM   17  C6  UNL     1      16.669  13.778  35.029  1.00  0.00     0.002 A 
HETATM   18  C7  UNL     1      17.640  12.917  34.632  1.00  0.00     0.003 A 
HETATM   19  C8  UNL     1      18.496  13.316  33.662  1.00  0.00     0.037 A 
HETATM   20  C9  UNL     1      18.428  14.549  33.049  1.00  0.00     0.122 A 
BRANCH  20  21
HETATM   21  N5  UNL     1      19.364  14.773  32.009  1.00  0.00    -0.114 N 
HETATM   22  O1  UNL     1      18.861  14.683  30.818  1.00  0.00    -0.532 OA
HETATM   23  O2  UNL     1      20.697  15.017  32.096  1.00  0.00    -0.532 OA
ENDBRANCH  20  21
ENDBRANCH  14  15
ENDBRANCH  12  14
ENDBRANCH   5  12
BRANCH   1  24
HETATM   24  N1  UNL     1      16.057  22.578  31.078  1.00  0.00    -0.384 N 
ATOM     25  H12 UNL     1      16.469  22.726  32.000  1.00  0.00     0.157 HD
ATOM     26  H11 UNL     1      15.863  23.342  30.429  1.00  0.00     0.157 HD
ENDBRANCH   1  24
BRANCH  11  27
HETATM   27  S1  UNL     1      14.404  22.480  28.623  1.00  0.00     0.263 S 
HETATM   28  O3  UNL     1      14.951  23.823  29.101  1.00  0.00    -0.200 OA
HETATM   29  O4  UNL     1      12.900  22.635  28.757  1.00  0.00    -0.200 OA
BRANCH  27  30
HETATM   30  N8  UNL     1      14.909  22.215  26.993  1.00  0.00    -0.324 N 
ATOM     31  H82 UNL     1      14.890  21.308  26.528  1.00  0.00     0.169 HD
ATOM     32  H81 UNL     1      15.224  23.091  26.576  1.00  0.00     0.169 HD
ENDBRANCH  27  30
ENDBRANCH  11  27
TORSDOF 7
ENDMDL
MODEL 5
REMARK VINA RESULT: -8.508080936      1.919      3.132
REMARK  7 active torsions:
REMARK  status: ('A' for Active; 'I' for Inactive)
REMARK    1  A    between atoms: N1_1  and  C1_4 
REMARK    2  A    between atoms: N3_8  and  N4_10 
REMARK    3  A    between atoms: N4_10  and  C3_12 
REMARK    4  A    between atoms: C3_12  and  C4_13 
REMARK    5  A    between atoms: C9_18  and  N5_19 
REMARK    6  A    between atoms: C11_26  and  S1_27 
REMARK    7  A    between atoms: S1_27  and  N8_28 
ROOT
HETATM    1  C1  UNL     1      16.911  19.908  31.366  1.00  0.00     0.141 A 
HETATM    2  N2  UNL     1      17.243  18.569  31.370  1.00  0.00    -0.174 N 
ATOM      3  H2  UNL     1      18.079  18.243  31.856  1.00  0.00     0.186 HD
HETATM    4  C2  UNL     1      16.464  17.721  30.735  1.00  0.00     0.700 A 
HETATM    5  N3  UNL     1      16.701  16.479  30.629  1.00  0.00    -0.125 N 
ATOM      6  H3  UNL     1      16.019  15.932  30.105  1.00  0.00     0.206 HD
HETATM    7  N6  UNL     1      15.340  18.178  30.084  1.00  0.00    -0.176 N 
ATOM      8  H6  UNL     1      14.739  17.512  29.598  1.00  0.00     0.185 HD
HETATM    9  C10 UNL     1      15.013  19.495  30.075  1.00  0.00     0.159 A 
HETATM   10  N7  UNL     1      13.850  19.942  29.417  1.00  0.00    -0.080 NA
HETATM   11  C11 UNL     1      15.809  20.396  30.729  1.00  0.00     0.164 A 
ENDROOT
BRANCH   5  12
HETATM   12  N4  UNL     1      17.811  15.765  31.160  1.00  0.00    -0.250 N 
ATOM     13  H4  UNL     1      18.725  15.614  30.733  1.00  0.00     0.197 HD
BRANCH  12  14
HETATM   14  C3  UNL     1      17.368  15.330  32.371  1.00  0.00    -0.011 C 
BRANCH  14  15
HETATM   15  C4  UNL     1      16.933  14.933  33.522  1.00  0.00     0.061 A 
HETATM   16  C5  UNL     1      17.461  13.723  34.123  1.00  0.00     0.024 A 
HETATM   17  C6  UNL     1      16.814  13.184  35.213  1.00  0.00     0.002 A 
HETATM   18  C7  UNL     1      15.698  13.736  35.754  1.00  0.00     0.003 A 
HETATM   19  C8  UNL     1      15.202  14.864  35.195  1.00  0.00     0.037 A 
HETATM   20  C9  UNL     1      15.776  15.488  34.107  1.00  0.00     0.122 A 
BRANCH  20  21
HETATM   21  N5  UNL     1      15.160  16.695  33.692  1.00  0.00    -0.114 N 
HETATM   22  O1  UNL     1      14.229  16.535  32.806  1.00  0.00    -0.532 OA
HETATM   23  O2  UNL     1      15.446  17.971  34.059  1.00  0.00    -0.532 OA
ENDBRANCH  20  21
ENDBRANCH  14  15
ENDBRANCH  12  14
ENDBRANCH   5  12
BRANCH   1  24
HETATM   24  N1  UNL     1      17.659  20.744  32.021  1.00  0.00    -0.384 N 
ATOM     25  H12 UNL     1      18.657  20.544  32.091  1.00  0.00     0.157 HD
ATOM     26  H11 UNL     1      17.232  21.580  32.421  1.00  0.00     0.157 HD
ENDBRANCH   1  24
BRANCH  11  27
HETATM   27  S1  UNL     1      15.481  22.110  30.554  1.00  0.00     0.263 S 
HETATM   28  O3  UNL     1      15.800  22.589  29.139  1.00  0.00    -0.200 OA
HETATM   29  O4  UNL     1      16.431  22.910  31.427  1.00  0.00    -0.200 OA
BRANCH  27  30
HETATM   30  N8  UNL     1      13.820  22.438  30.896  1.00  0.00    -0.324 N 
ATOM     31  H82 UNL     1      13.126  21.719  31.101  1.00  0.00     0.169 HD
ATOM     32  H81 UNL     1      13.645  23.441  30.861  1.00  0.00     0.169 HD
ENDBRANCH  27  30
ENDBRANCH  11  27
TORSDOF 7
ENDMDL
