MODEL 1
REMARK VINA RESULT: -3.890805819      0.000      0.000
REMARK  1 active torsions:
REMARK  status: ('A' for Active; 'I' for Inactive)
REMARK    1  A    between atoms: C1_2  and  C2_4 
ROOT
HETATM    1  C2  UNL     1      28.953  13.933  17.823  1.00  0.00     0.095 A 
HETATM    2  C3  UNL     1      30.254  13.115  17.652  1.00  0.00     0.036 A 
HETATM    3  C4  UNL     1      29.043  12.840  16.829  1.00  0.00     0.096 A 
HETATM    4 CL1  UNL     1      28.112  11.369  17.132  1.00  0.00    -0.124 Cl
ENDROOT
BRANCH   1   5
HETATM    5  C1  UNL     1      29.047  15.349  17.430  1.00  0.00     0.236 C 
HETATM    6  N1  UNL     1      28.853  15.840  16.129  1.00  0.00    -0.062 NA
HETATM    7  O1  UNL     1      29.324  16.194  18.326  1.00  0.00    -0.276 OA
ENDBRANCH   1   5
TORSDOF 1
ENDMDL
MODEL 2
REMARK VINA RESULT: -3.861246312      1.838      2.135
REMARK  1 active torsions:
REMARK  status: ('A' for Active; 'I' for Inactive)
REMARK    1  A    between atoms: C1_2  and  C2_4 
ROOT
HETATM    1  C2  UNL     1      27.923  14.692  18.397  1.00  0.00     0.095 A 
HETATM    2  C3  UNL     1      28.669  15.012  19.714  1.00  0.00     0.036 A 
HETATM    3  C4  UNL     1      29.179  13.995  18.753  1.00  0.00     0.096 A 
HETATM    4 CL1  UNL     1      29.082  12.283  19.179  1.00  0.00    -0.124 Cl
ENDROOT
BRANCH   1   5
HETATM    5  C1  UNL     1      27.895  15.785  17.412  1.00  0.00     0.236 C 
HETATM    6  N1  UNL     1      28.901  16.046  16.467  1.00  0.00    -0.062 NA
HETATM    7  O1  UNL     1      26.892  16.553  17.408  1.00  0.00    -0.276 OA
ENDBRANCH   1   5
TORSDOF 1
ENDMDL
MODEL 3
REMARK VINA RESULT: -3.845998084      2.870      3.071
REMARK  1 active torsions:
REMARK  status: ('A' for Active; 'I' for Inactive)
REMARK    1  A    between atoms: C1_2  and  C2_4 
ROOT
HETATM    1  C2  UNL     1      28.438  14.200  17.827  1.00  0.00     0.095 A 
HETATM    2  C3  UNL     1      29.865  13.796  17.388  1.00  0.00     0.036 A 
HETATM    3  C4  UNL     1      29.358  15.186  17.217  1.00  0.00     0.096 A 
HETATM    4 CL1  UNL     1      28.983  15.771  15.592  1.00  0.00    -0.124 Cl
ENDROOT
BRANCH   1   5
HETATM    5  C1  UNL     1      28.194  14.162  19.278  1.00  0.00     0.236 C 
HETATM    6  N1  UNL     1      28.528  15.185  20.180  1.00  0.00    -0.062 NA
HETATM    7  O1  UNL     1      27.642  13.133  19.758  1.00  0.00    -0.276 OA
ENDBRANCH   1   5
TORSDOF 1
ENDMDL
MODEL 4
REMARK VINA RESULT: -3.832124429      1.229      1.568
REMARK  1 active torsions:
REMARK  status: ('A' for Active; 'I' for Inactive)
REMARK    1  A    between atoms: C1_2  and  C2_4 
ROOT
HETATM    1  C2  UNL     1      28.982  13.943  17.473  1.00  0.00     0.095 A 
HETATM    2  C3  UNL     1      27.920  13.441  18.480  1.00  0.00     0.036 A 
HETATM    3  C4  UNL     1      29.379  13.321  18.756  1.00  0.00     0.096 A 
HETATM    4 CL1  UNL     1      30.136  11.725  18.700  1.00  0.00    -0.124 Cl
ENDROOT
BRANCH   1   5
HETATM    5  C1  UNL     1      29.017  15.401  17.275  1.00  0.00     0.236 C 
HETATM    6  N1  UNL     1      28.715  16.060  16.072  1.00  0.00    -0.062 NA
HETATM    7  O1  UNL     1      29.344  16.125  18.258  1.00  0.00    -0.276 OA
ENDBRANCH   1   5
TORSDOF 1
ENDMDL
MODEL 5
REMARK VINA RESULT: -3.827922675      1.667      1.814
REMARK  1 active torsions:
REMARK  status: ('A' for Active; 'I' for Inactive)
REMARK    1  A    between atoms: C1_2  and  C2_4 
ROOT
HETATM    1  C2  UNL     1      29.141  14.683  17.607  1.00  0.00     0.095 A 
HETATM    2  C3  UNL     1      28.960  13.253  17.045  1.00  0.00     0.036 A 
HETATM    3  C4  UNL     1      28.354  13.667  18.341  1.00  0.00     0.096 A 
HETATM    4 CL1  UNL     1      29.025  13.031  19.847  1.00  0.00    -0.124 Cl
ENDROOT
BRANCH   1   5
HETATM    5  C1  UNL     1      28.494  15.750  16.826  1.00  0.00     0.236 C 
HETATM    6  N1  UNL     1      28.957  16.243  15.595  1.00  0.00    -0.062 NA
HETATM    7  O1  UNL     1      27.441  16.268  17.292  1.00  0.00    -0.276 OA
ENDBRANCH   1   5
TORSDOF 1
ENDMDL
