MODEL 1
REMARK VINA RESULT: -5.166598066      0.000      0.000
REMARK  3 active torsions:
REMARK  status: ('A' for Active; 'I' for Inactive)
REMARK    1  A    between atoms: C3_3  and  C4_4 
REMARK    2  A    between atoms: C6_6  and  C7_7 
REMARK    3  A    between atoms: C7_7  and  N1_8 
ROOT
HETATM    1  C1  UNL     1      78.606  50.539  36.704  1.00  0.00     0.096 C 
HETATM    2  C2  UNL     1      78.984  51.116  35.575  1.00  0.00    -0.187 C 
HETATM    3  C3  UNL     1      79.307  51.734  34.476  1.00  0.00     0.084 C 
ENDROOT
BRANCH   3   4
HETATM    4  C4  UNL     1      78.934  53.138  34.396  1.00  0.00    -0.004 C 
HETATM    5  C5  UNL     1      77.435  53.307  34.661  1.00  0.00     0.011 C 
HETATM    6  C6  UNL     1      77.418  54.313  33.535  1.00  0.00     0.015 C 
HETATM    7  C10 UNL     1      78.657  53.585  32.973  1.00  0.00     0.011 C 
BRANCH   6   8
HETATM    8  C7  UNL     1      77.774  55.680  34.073  1.00  0.00     0.275 C 
BRANCH   8   9
HETATM    9  N1  UNL     1      76.803  56.700  33.776  1.00  0.00     0.080 N 
HETATM   10  C8  UNL     1      76.894  56.917  32.311  1.00  0.00     0.309 C 
HETATM   11  C9  UNL     1      77.328  57.976  34.318  1.00  0.00     0.309 C 
ENDBRANCH   8   9
ENDBRANCH   6   8
ENDBRANCH   3   4
TORSDOF 3
ENDMDL
MODEL 2
REMARK VINA RESULT: -5.094273601      0.417      1.020
REMARK  3 active torsions:
REMARK  status: ('A' for Active; 'I' for Inactive)
REMARK    1  A    between atoms: C3_3  and  C4_4 
REMARK    2  A    between atoms: C6_6  and  C7_7 
REMARK    3  A    between atoms: C7_7  and  N1_8 
ROOT
HETATM    1  C1  UNL     1      78.602  50.509  36.761  1.00  0.00     0.096 C 
HETATM    2  C2  UNL     1      78.969  51.066  35.619  1.00  0.00    -0.187 C 
HETATM    3  C3  UNL     1      79.283  51.667  34.507  1.00  0.00     0.084 C 
ENDROOT
BRANCH   3   4
HETATM    4  C4  UNL     1      78.967  53.084  34.433  1.00  0.00    -0.004 C 
HETATM    5  C5  UNL     1      77.468  53.309  34.656  1.00  0.00     0.011 C 
HETATM    6  C6  UNL     1      77.524  54.326  33.542  1.00  0.00     0.015 C 
HETATM    7  C10 UNL     1      78.750  53.557  33.007  1.00  0.00     0.011 C 
BRANCH   6   8
HETATM    8  C7  UNL     1      77.916  55.673  34.106  1.00  0.00     0.275 C 
BRANCH   8   9
HETATM    9  N1  UNL     1      77.476  56.792  33.315  1.00  0.00     0.080 N 
HETATM   10  C8  UNL     1      77.301  57.910  34.274  1.00  0.00     0.309 C 
HETATM   11  C9  UNL     1      76.081  56.512  32.898  1.00  0.00     0.309 C 
ENDBRANCH   8   9
ENDBRANCH   6   8
ENDBRANCH   3   4
TORSDOF 3
ENDMDL
MODEL 3
REMARK VINA RESULT: -5.023290633      2.316      3.131
REMARK  3 active torsions:
REMARK  status: ('A' for Active; 'I' for Inactive)
REMARK    1  A    between atoms: C3_3  and  C4_4 
REMARK    2  A    between atoms: C6_6  and  C7_7 
REMARK    3  A    between atoms: C7_7  and  N1_8 
ROOT
HETATM    1  C1  UNL     1      78.824  50.750  35.973  1.00  0.00     0.096 C 
HETATM    2  C2  UNL     1      78.428  51.953  35.590  1.00  0.00    -0.187 C 
HETATM    3  C3  UNL     1      78.071  53.125  35.151  1.00  0.00     0.084 C 
ENDROOT
BRANCH   3   4
HETATM    4  C4  UNL     1      78.052  53.291  33.706  1.00  0.00    -0.004 C 
HETATM    5  C5  UNL     1      79.426  52.959  33.114  1.00  0.00     0.011 C 
HETATM    6  C6  UNL     1      79.250  54.155  32.209  1.00  0.00     0.015 C 
HETATM    7  C10 UNL     1      78.300  54.727  33.283  1.00  0.00     0.011 C 
BRANCH   6   8
HETATM    8  C7  UNL     1      78.497  53.741  30.965  1.00  0.00     0.275 C 
BRANCH   8   9
HETATM    9  N1  UNL     1      78.921  54.420  29.769  1.00  0.00     0.080 N 
HETATM   10  C8  UNL     1      80.311  54.862  30.037  1.00  0.00     0.309 C 
HETATM   11  C9  UNL     1      78.186  55.705  29.710  1.00  0.00     0.309 C 
ENDBRANCH   8   9
ENDBRANCH   6   8
ENDBRANCH   3   4
TORSDOF 3
ENDMDL
MODEL 4
REMARK VINA RESULT: -4.901357523      1.038      1.502
REMARK  3 active torsions:
REMARK  status: ('A' for Active; 'I' for Inactive)
REMARK    1  A    between atoms: C3_3  and  C4_4 
REMARK    2  A    between atoms: C6_6  and  C7_7 
REMARK    3  A    between atoms: C7_7  and  N1_8 
ROOT
HETATM    1  C1  UNL     1      78.524  50.703  36.498  1.00  0.00     0.096 C 
HETATM    2  C2  UNL     1      79.013  51.356  35.457  1.00  0.00    -0.187 C 
HETATM    3  C3  UNL     1      79.429  52.007  34.409  1.00  0.00     0.084 C 
ENDROOT
BRANCH   3   4
HETATM    4  C4  UNL     1      78.451  52.863  33.757  1.00  0.00    -0.004 C 
HETATM    5  C5  UNL     1      79.148  53.828  32.791  1.00  0.00     0.011 C 
HETATM    6  C6  UNL     1      78.210  54.900  33.292  1.00  0.00     0.015 C 
HETATM    7  C10 UNL     1      78.093  54.078  34.593  1.00  0.00     0.011 C 
BRANCH   6   8
HETATM    8  C7  UNL     1      76.927  54.863  32.494  1.00  0.00     0.275 C 
BRANCH   8   9
HETATM    9  N1  UNL     1      76.516  56.144  31.982  1.00  0.00     0.080 N 
HETATM   10  C8  UNL     1      77.376  56.391  30.800  1.00  0.00     0.309 C 
HETATM   11  C9  UNL     1      76.990  57.170  32.940  1.00  0.00     0.309 C 
ENDBRANCH   8   9
ENDBRANCH   6   8
ENDBRANCH   3   4
TORSDOF 3
ENDMDL
MODEL 5
REMARK VINA RESULT: -4.901184369      2.421      3.153
REMARK  3 active torsions:
REMARK  status: ('A' for Active; 'I' for Inactive)
REMARK    1  A    between atoms: C3_3  and  C4_4 
REMARK    2  A    between atoms: C6_6  and  C7_7 
REMARK    3  A    between atoms: C7_7  and  N1_8 
ROOT
HETATM    1  C1  UNL     1      79.024  51.355  35.616  1.00  0.00     0.096 C 
HETATM    2  C2  UNL     1      78.233  52.349  35.248  1.00  0.00    -0.187 C 
HETATM    3  C3  UNL     1      77.510  53.358  34.855  1.00  0.00     0.084 C 
ENDROOT
BRANCH   3   4
HETATM    4  C4  UNL     1      78.040  54.133  33.744  1.00  0.00    -0.004 C 
HETATM    5  C5  UNL     1      77.016  54.202  32.607  1.00  0.00     0.011 C 
HETATM    6  C6  UNL     1      78.165  53.992  31.650  1.00  0.00     0.015 C 
HETATM    7  C10 UNL     1      78.904  53.300  32.815  1.00  0.00     0.011 C 
BRANCH   6   8
HETATM    8  C7  UNL     1      78.790  55.325  31.309  1.00  0.00     0.275 C 
BRANCH   8   9
HETATM    9  N1  UNL     1      79.035  55.517  29.904  1.00  0.00     0.080 N 
HETATM   10  C8  UNL     1      78.021  54.687  29.209  1.00  0.00     0.309 C 
HETATM   11  C9  UNL     1      80.298  54.813  29.579  1.00  0.00     0.309 C 
ENDBRANCH   8   9
ENDBRANCH   6   8
ENDBRANCH   3   4
TORSDOF 3
ENDMDL
