MODEL 1
REMARK VINA RESULT: -7.417116271      0.000      0.000
REMARK  7 active torsions:
REMARK  status: ('A' for Active; 'I' for Inactive)
REMARK    1  A    between atoms: C2_2  and  C3_3 
REMARK    2  A    between atoms: C3_3  and  C4_4 
REMARK    3  A    between atoms: C4_4  and  C5_5 
REMARK    4  A    between atoms: C5_5  and  N1_6 
REMARK    5  A    between atoms: C7_8  and  C8_9 
REMARK    6  A    between atoms: C18_24  and  C19_25 
REMARK    7  A    between atoms: C19_25  and  N6_26 
ROOT
HETATM    1  N1  UNL     1      16.228 -14.726  21.105  1.00  0.00    -0.358 N 
HETATM    2  C6  UNL     1      17.268 -15.184  21.864  1.00  0.00     0.104 A 
HETATM    3  C7  UNL     1      18.354 -14.451  22.246  1.00  0.00     0.006 A 
HETATM    4  C16 UNL     1      18.392 -13.123  21.810  1.00  0.00     0.017 A 
HETATM    5  C17 UNL     1      17.351 -12.657  21.048  1.00  0.00     0.028 A 
HETATM    6  C18 UNL     1      16.258 -13.461  20.692  1.00  0.00     0.031 A 
ENDROOT
BRANCH   3   7
HETATM    7  C8  UNL     1      19.417 -14.925  23.120  1.00  0.00     0.048 A 
HETATM    8  C9  UNL     1      19.713 -14.208  24.290  1.00  0.00     0.049 A 
HETATM    9  C10 UNL     1      20.726 -14.842  24.957  1.00  0.00     0.052 A 
HETATM   10  C11 UNL     1      21.397 -14.567  26.128  1.00  0.00     0.131 A 
HETATM   11  C14 UNL     1      21.041 -16.015  24.112  1.00  0.00     0.124 A 
HETATM   12  N2  UNL     1      21.077 -13.432  26.931  1.00  0.00    -0.082 NA
HETATM   13  N3  UNL     1      22.366 -15.436  26.460  1.00  0.00    -0.340 N 
HETATM   14  C12 UNL     1      22.663 -16.495  25.707  1.00  0.00     0.185 A 
ATOM     15  H3  UNL     1      22.894 -15.280  27.319  1.00  0.00     0.167 HD
HETATM   16  N4  UNL     1      22.016 -16.802  24.534  1.00  0.00    -0.333 N 
HETATM   17  C13 UNL     1      22.451 -17.955  23.782  1.00  0.00     0.158 C 
HETATM   18  N5  UNL     1      20.202 -15.988  23.029  1.00  0.00    -0.336 N 
HETATM   19  C15 UNL     1      20.174 -17.057  22.030  1.00  0.00     0.158 C 
ENDBRANCH   3   7
BRANCH   1  20
HETATM   20  C5  UNL     1      15.159 -15.615  20.717  1.00  0.00     0.128 C 
BRANCH  20  21
HETATM   21  C4  UNL     1      14.275 -16.073  21.818  1.00  0.00     0.020 C 
BRANCH  21  22
HETATM   22  C3  UNL     1      12.801 -15.936  21.608  1.00  0.00     0.001 C 
BRANCH  22  23
HETATM   23  C2  UNL     1      12.502 -15.446  20.181  1.00  0.00    -0.004 C 
HETATM   24  C1  UNL     1      11.548 -16.379  19.487  1.00  0.00     0.005 C 
ENDBRANCH  22  23
ENDBRANCH  21  22
ENDBRANCH  20  21
ENDBRANCH   1  20
BRANCH   6  25
HETATM   25  C19 UNL     1      15.216 -12.752  19.927  1.00  0.00     0.207 C 
BRANCH  25  26
HETATM   26  N6  UNL     1      14.509 -11.923  20.929  1.00  0.00    -0.281 N 
HETATM   27  C20 UNL     1      13.710 -12.370  21.894  1.00  0.00     0.201 A 
HETATM   28  N7  UNL     1      13.271 -11.277  22.584  1.00  0.00    -0.346 N 
HETATM   29  C21 UNL     1      13.809 -10.186  22.033  1.00  0.00     0.198 A 
ATOM     30  H7  UNL     1      12.640 -11.292  23.385  1.00  0.00     0.167 HD
HETATM   31  N8  UNL     1      14.572 -10.603  21.011  1.00  0.00    -0.293 N 
ATOM     32  H8  UNL     1      15.114  -9.998  20.394  1.00  0.00     0.188 HD
ENDBRANCH  25  26
ENDBRANCH   6  25
TORSDOF 7
ENDMDL
MODEL 2
REMARK VINA RESULT: -7.411009848      2.175      3.531
REMARK  7 active torsions:
REMARK  status: ('A' for Active; 'I' for Inactive)
REMARK    1  A    between atoms: C2_2  and  C3_3 
REMARK    2  A    between atoms: C3_3  and  C4_4 
REMARK    3  A    between atoms: C4_4  and  C5_5 
REMARK    4  A    between atoms: C5_5  and  N1_6 
REMARK    5  A    between atoms: C7_8  and  C8_9 
REMARK    6  A    between atoms: C18_24  and  C19_25 
REMARK    7  A    between atoms: C19_25  and  N6_26 
ROOT
HETATM    1  N1  UNL     1      13.292 -14.553  21.901  1.00  0.00    -0.358 N 
HETATM    2  C6  UNL     1      14.649 -14.685  21.983  1.00  0.00     0.104 A 
HETATM    3  C7  UNL     1      15.542 -13.658  22.080  1.00  0.00     0.006 A 
HETATM    4  C16 UNL     1      15.005 -12.367  22.089  1.00  0.00     0.017 A 
HETATM    5  C17 UNL     1      13.643 -12.227  22.007  1.00  0.00     0.028 A 
HETATM    6  C18 UNL     1      12.776 -13.325  21.914  1.00  0.00     0.031 A 
ENDROOT
BRANCH   3   7
HETATM    7  C8  UNL     1      16.979 -13.812  22.246  1.00  0.00     0.048 A 
HETATM    8  C9  UNL     1      17.475 -14.398  23.422  1.00  0.00     0.049 A 
HETATM    9  C10 UNL     1      18.841 -14.453  23.351  1.00  0.00     0.052 A 
HETATM   10  C11 UNL     1      19.809 -14.912  24.217  1.00  0.00     0.131 A 
HETATM   11  C14 UNL     1      19.162 -13.857  22.035  1.00  0.00     0.124 A 
HETATM   12  N2  UNL     1      19.479 -15.486  25.480  1.00  0.00    -0.082 NA
HETATM   13  N3  UNL     1      21.077 -14.782  23.791  1.00  0.00    -0.340 N 
HETATM   14  C12 UNL     1      21.381 -14.244  22.611  1.00  0.00     0.185 A 
ATOM     15  H3  UNL     1      21.834 -15.107  24.393  1.00  0.00     0.167 HD
HETATM   16  N4  UNL     1      20.444 -13.777  21.721  1.00  0.00    -0.333 N 
HETATM   17  C13 UNL     1      20.895 -13.177  20.488  1.00  0.00     0.158 C 
HETATM   18  N5  UNL     1      17.982 -13.503  21.436  1.00  0.00    -0.336 N 
HETATM   19  C15 UNL     1      17.920 -12.966  20.076  1.00  0.00     0.158 C 
ENDBRANCH   3   7
BRANCH   1  20
HETATM   20  C5  UNL     1      12.451 -15.716  21.745  1.00  0.00     0.128 C 
BRANCH  20  21
HETATM   21  C4  UNL     1      12.813 -16.622  20.626  1.00  0.00     0.020 C 
BRANCH  21  22
HETATM   22  C3  UNL     1      12.725 -16.062  19.242  1.00  0.00     0.001 C 
BRANCH  22  23
HETATM   23  C2  UNL     1      14.049 -16.271  18.491  1.00  0.00    -0.004 C 
HETATM   24  C1  UNL     1      14.829 -14.986  18.419  1.00  0.00     0.005 C 
ENDBRANCH  22  23
ENDBRANCH  21  22
ENDBRANCH  20  21
ENDBRANCH   1  20
BRANCH   6  25
HETATM   25  C19 UNL     1      11.347 -12.963  21.903  1.00  0.00     0.207 C 
BRANCH  25  26
HETATM   26  N6  UNL     1      11.165 -12.106  23.096  1.00  0.00    -0.281 N 
HETATM   27  C20 UNL     1      11.023 -12.527  24.350  1.00  0.00     0.201 A 
HETATM   28  N7  UNL     1      10.883 -11.414  25.129  1.00  0.00    -0.346 N 
HETATM   29  C21 UNL     1      10.943 -10.337  24.341  1.00  0.00     0.198 A 
ATOM     30  H7  UNL     1      10.754 -11.407  26.141  1.00  0.00     0.167 HD
HETATM   31  N8  UNL     1      11.118 -10.783  23.088  1.00  0.00    -0.293 N 
ATOM     32  H8  UNL     1      11.200 -10.195  22.258  1.00  0.00     0.188 HD
ENDBRANCH  25  26
ENDBRANCH   6  25
TORSDOF 7
ENDMDL
MODEL 3
REMARK VINA RESULT: -7.410634506      1.104      1.532
REMARK  7 active torsions:
REMARK  status: ('A' for Active; 'I' for Inactive)
REMARK    1  A    between atoms: C2_2  and  C3_3 
REMARK    2  A    between atoms: C3_3  and  C4_4 
REMARK    3  A    between atoms: C4_4  and  C5_5 
REMARK    4  A    between atoms: C5_5  and  N1_6 
REMARK    5  A    between atoms: C7_8  and  C8_9 
REMARK    6  A    between atoms: C18_24  and  C19_25 
REMARK    7  A    between atoms: C19_25  and  N6_26 
ROOT
HETATM    1  N1  UNL     1      16.286 -14.747  21.129  1.00  0.00    -0.358 N 
HETATM    2  C6  UNL     1      17.325 -15.207  21.887  1.00  0.00     0.104 A 
HETATM    3  C7  UNL     1      18.412 -14.476  22.270  1.00  0.00     0.006 A 
HETATM    4  C16 UNL     1      18.450 -13.147  21.836  1.00  0.00     0.017 A 
HETATM    5  C17 UNL     1      17.410 -12.678  21.075  1.00  0.00     0.028 A 
HETATM    6  C18 UNL     1      16.317 -13.481  20.718  1.00  0.00     0.031 A 
ENDROOT
BRANCH   3   7
HETATM    7  C8  UNL     1      19.474 -14.951  23.143  1.00  0.00     0.048 A 
HETATM    8  C9  UNL     1      19.776 -14.232  24.311  1.00  0.00     0.049 A 
HETATM    9  C10 UNL     1      20.788 -14.869  24.977  1.00  0.00     0.052 A 
HETATM   10  C11 UNL     1      21.463 -14.593  26.145  1.00  0.00     0.131 A 
HETATM   11  C14 UNL     1      21.095 -16.046  24.135  1.00  0.00     0.124 A 
HETATM   12  N2  UNL     1      21.151 -13.453  26.945  1.00  0.00    -0.082 NA
HETATM   13  N3  UNL     1      22.428 -15.466  26.478  1.00  0.00    -0.340 N 
HETATM   14  C12 UNL     1      22.718 -16.528  25.729  1.00  0.00     0.185 A 
ATOM     15  H3  UNL     1      22.959 -15.310  27.335  1.00  0.00     0.167 HD
HETATM   16  N4  UNL     1      22.067 -16.837  24.558  1.00  0.00    -0.333 N 
HETATM   17  C13 UNL     1      22.495 -17.994  23.809  1.00  0.00     0.158 C 
HETATM   18  N5  UNL     1      20.253 -16.019  23.054  1.00  0.00    -0.336 N 
HETATM   19  C15 UNL     1      20.217 -17.091  22.059  1.00  0.00     0.158 C 
ENDBRANCH   3   7
BRANCH   1  20
HETATM   20  C5  UNL     1      15.215 -15.634  20.739  1.00  0.00     0.128 C 
BRANCH  20  21
HETATM   21  C4  UNL     1      15.472 -16.455  19.529  1.00  0.00     0.020 C 
BRANCH  21  22
HETATM   22  C3  UNL     1      14.604 -16.201  18.339  1.00  0.00     0.001 C 
BRANCH  22  23
HETATM   23  C2  UNL     1      15.460 -16.025  17.074  1.00  0.00    -0.004 C 
HETATM   24  C1  UNL     1      15.807 -14.577  16.863  1.00  0.00     0.005 C 
ENDBRANCH  22  23
ENDBRANCH  21  22
ENDBRANCH  20  21
ENDBRANCH   1  20
BRANCH   6  25
HETATM   25  C19 UNL     1      15.275 -12.770  19.954  1.00  0.00     0.207 C 
BRANCH  25  26
HETATM   26  N6  UNL     1      14.519 -12.002  20.969  1.00  0.00    -0.281 N 
HETATM   27  C20 UNL     1      13.678 -12.508  21.868  1.00  0.00     0.201 A 
HETATM   28  N7  UNL     1      13.202 -11.458  22.600  1.00  0.00    -0.346 N 
HETATM   29  C21 UNL     1      13.760 -10.335  22.139  1.00  0.00     0.198 A 
ATOM     30  H7  UNL     1      12.535 -11.521  23.369  1.00  0.00     0.167 HD
HETATM   31  N8  UNL     1      14.570 -10.690  21.131  1.00  0.00    -0.293 N 
ATOM     32  H8  UNL     1      15.137 -10.049  20.576  1.00  0.00     0.188 HD
ENDBRANCH  25  26
ENDBRANCH   6  25
TORSDOF 7
ENDMDL
MODEL 4
REMARK VINA RESULT: -7.380904669      2.503      3.672
REMARK  7 active torsions:
REMARK  status: ('A' for Active; 'I' for Inactive)
REMARK    1  A    between atoms: C2_2  and  C3_3 
REMARK    2  A    between atoms: C3_3  and  C4_4 
REMARK    3  A    between atoms: C4_4  and  C5_5 
REMARK    4  A    between atoms: C5_5  and  N1_6 
REMARK    5  A    between atoms: C7_8  and  C8_9 
REMARK    6  A    between atoms: C18_24  and  C19_25 
REMARK    7  A    between atoms: C19_25  and  N6_26 
ROOT
HETATM    1  N1  UNL     1      13.080 -13.962  21.049  1.00  0.00    -0.358 N 
HETATM    2  C6  UNL     1      14.218 -14.714  21.117  1.00  0.00     0.104 A 
HETATM    3  C7  UNL     1      15.441 -14.266  21.526  1.00  0.00     0.006 A 
HETATM    4  C16 UNL     1      15.517 -12.921  21.899  1.00  0.00     0.017 A 
HETATM    5  C17 UNL     1      14.377 -12.160  21.834  1.00  0.00     0.028 A 
HETATM    6  C18 UNL     1      13.147 -12.682  21.408  1.00  0.00     0.031 A 
ENDROOT
BRANCH   3   7
HETATM    7  C8  UNL     1      16.629 -15.094  21.670  1.00  0.00     0.048 A 
HETATM    8  C9  UNL     1      17.891 -14.480  21.721  1.00  0.00     0.049 A 
HETATM    9  C10 UNL     1      18.850 -15.444  21.875  1.00  0.00     0.052 A 
HETATM   10  C11 UNL     1      20.223 -15.398  21.968  1.00  0.00     0.131 A 
HETATM   11  C14 UNL     1      18.088 -16.712  21.919  1.00  0.00     0.124 A 
HETATM   12  N2  UNL     1      20.939 -14.164  21.927  1.00  0.00    -0.082 NA
HETATM   13  N3  UNL     1      20.837 -16.585  22.102  1.00  0.00    -0.340 N 
HETATM   14  C12 UNL     1      20.165 -17.734  22.139  1.00  0.00     0.185 A 
ATOM     15  H3  UNL     1      21.854 -16.608  22.177  1.00  0.00     0.167 HD
HETATM   16  N4  UNL     1      18.796 -17.822  22.050  1.00  0.00    -0.333 N 
HETATM   17  C13 UNL     1      18.180 -19.127  22.062  1.00  0.00     0.158 C 
HETATM   18  N5  UNL     1      16.758 -16.407  21.793  1.00  0.00    -0.336 N 
HETATM   19  C15 UNL     1      15.707 -17.420  21.889  1.00  0.00     0.158 C 
ENDBRANCH   3   7
BRANCH   1  20
HETATM   20  C5  UNL     1      11.854 -14.535  20.545  1.00  0.00     0.128 C 
BRANCH  20  21
HETATM   21  C4  UNL     1      11.994 -15.839  19.851  1.00  0.00     0.020 C 
BRANCH  21  22
HETATM   22  C3  UNL     1      11.498 -17.051  20.574  1.00  0.00     0.001 C 
BRANCH  22  23
HETATM   23  C2  UNL     1      10.791 -18.008  19.600  1.00  0.00    -0.004 C 
HETATM   24  C1  UNL     1      10.105 -17.240  18.503  1.00  0.00     0.005 C 
ENDBRANCH  22  23
ENDBRANCH  21  22
ENDBRANCH  20  21
ENDBRANCH   1  20
BRANCH   6  25
HETATM   25  C19 UNL     1      12.033 -11.718  21.473  1.00  0.00     0.207 C 
BRANCH  25  26
HETATM   26  N6  UNL     1      11.753 -11.561  22.918  1.00  0.00    -0.281 N 
HETATM   27  C20 UNL     1      11.887 -10.442  23.625  1.00  0.00     0.201 A 
HETATM   28  N7  UNL     1      11.527 -10.739  24.908  1.00  0.00    -0.346 N 
HETATM   29  C21 UNL     1      11.179 -12.027  24.962  1.00  0.00     0.198 A 
ATOM     30  H7  UNL     1      11.524 -10.086  25.693  1.00  0.00     0.167 HD
HETATM   31  N8  UNL     1      11.325 -12.520  23.723  1.00  0.00    -0.293 N 
ATOM     32  H8  UNL     1      11.136 -13.483  23.445  1.00  0.00     0.188 HD
ENDBRANCH  25  26
ENDBRANCH   6  25
TORSDOF 7
ENDMDL
MODEL 5
REMARK VINA RESULT: -7.296375581      2.121      3.117
REMARK  7 active torsions:
REMARK  status: ('A' for Active; 'I' for Inactive)
REMARK    1  A    between atoms: C2_2  and  C3_3 
REMARK    2  A    between atoms: C3_3  and  C4_4 
REMARK    3  A    between atoms: C4_4  and  C5_5 
REMARK    4  A    between atoms: C5_5  and  N1_6 
REMARK    5  A    between atoms: C7_8  and  C8_9 
REMARK    6  A    between atoms: C18_24  and  C19_25 
REMARK    7  A    between atoms: C19_25  and  N6_26 
ROOT
HETATM    1  N1  UNL     1      13.668 -13.979  20.566  1.00  0.00    -0.358 N 
HETATM    2  C6  UNL     1      14.771 -14.718  20.886  1.00  0.00     0.104 A 
HETATM    3  C7  UNL     1      15.860 -14.262  21.572  1.00  0.00     0.006 A 
HETATM    4  C16 UNL     1      15.826 -12.921  21.968  1.00  0.00     0.017 A 
HETATM    5  C17 UNL     1      14.721 -12.174  21.651  1.00  0.00     0.028 A 
HETATM    6  C18 UNL     1      13.631 -12.704  20.945  1.00  0.00     0.031 A 
ENDROOT
BRANCH   3   7
HETATM    7  C8  UNL     1      16.995 -15.077  21.977  1.00  0.00     0.048 A 
HETATM    8  C9  UNL     1      18.266 -14.488  22.065  1.00  0.00     0.049 A 
HETATM    9  C10 UNL     1      19.168 -15.432  22.476  1.00  0.00     0.052 A 
HETATM   10  C11 UNL     1      20.525 -15.396  22.710  1.00  0.00     0.131 A 
HETATM   11  C14 UNL     1      18.360 -16.660  22.642  1.00  0.00     0.124 A 
HETATM   12  N2  UNL     1      21.286 -14.201  22.548  1.00  0.00    -0.082 NA
HETATM   13  N3  UNL     1      21.077 -16.557  23.100  1.00  0.00    -0.340 N 
HETATM   14  C12 UNL     1      20.363 -17.671  23.250  1.00  0.00     0.185 A 
ATOM     15  H3  UNL     1      22.079 -16.586  23.289  1.00  0.00     0.167 HD
HETATM   16  N4  UNL     1      19.009 -17.746  23.027  1.00  0.00    -0.333 N 
HETATM   17  C13 UNL     1      18.347 -19.019  23.184  1.00  0.00     0.158 C 
HETATM   18  N5  UNL     1      17.062 -16.354  22.324  1.00  0.00    -0.336 N 
HETATM   19  C15 UNL     1      15.970 -17.317  22.468  1.00  0.00     0.158 C 
ENDBRANCH   3   7
BRANCH   1  20
HETATM   20  C5  UNL     1      12.601 -14.559  19.785  1.00  0.00     0.128 C 
BRANCH  20  21
HETATM   21  C4  UNL     1      12.543 -16.043  19.780  1.00  0.00     0.020 C 
BRANCH  21  22
HETATM   22  C3  UNL     1      11.805 -16.698  20.903  1.00  0.00     0.001 C 
BRANCH  22  23
HETATM   23  C2  UNL     1      10.957 -17.869  20.380  1.00  0.00    -0.004 C 
HETATM   24  C1  UNL     1      10.403 -17.558  19.016  1.00  0.00     0.005 C 
ENDBRANCH  22  23
ENDBRANCH  21  22
ENDBRANCH  20  21
ENDBRANCH   1  20
BRANCH   6  25
HETATM   25  C19 UNL     1      12.517 -11.755  20.763  1.00  0.00     0.207 C 
BRANCH  25  26
HETATM   26  N6  UNL     1      11.819 -11.736  22.068  1.00  0.00    -0.281 N 
HETATM   27  C20 UNL     1      11.097 -12.727  22.586  1.00  0.00     0.201 A 
HETATM   28  N7  UNL     1      10.635 -12.291  23.795  1.00  0.00    -0.346 N 
HETATM   29  C21 UNL     1      11.083 -11.048  23.995  1.00  0.00     0.198 A 
ATOM     30  H7  UNL     1      10.049 -12.825  24.436  1.00  0.00     0.167 HD
HETATM   31  N8  UNL     1      11.812 -10.721  22.918  1.00  0.00    -0.293 N 
ATOM     32  H8  UNL     1      12.287  -9.829  22.775  1.00  0.00     0.188 HD
ENDBRANCH  25  26
ENDBRANCH   6  25
TORSDOF 7
ENDMDL
