MODEL 1
REMARK VINA RESULT: -5.474214462      0.000      0.000
REMARK  4 active torsions:
REMARK  status: ('A' for Active; 'I' for Inactive)
REMARK    1  A    between atoms: N1_1  and  C1_4 
REMARK    2  A    between atoms: C4_13  and  N5_14 
REMARK    3  A    between atoms: N5_14  and  N6_16 
REMARK    4  A    between atoms: N6_16  and  N7_17 
ROOT
HETATM    1  C1  UNL     1      10.582 -22.990 -17.736  1.00  0.00     0.131 A 
HETATM    2  N2  UNL     1      11.088 -22.091 -18.604  1.00  0.00    -0.337 N 
ATOM      3  H2  UNL     1      12.071 -21.828 -18.535  1.00  0.00     0.168 HD
HETATM    4  C2  UNL     1      10.321 -21.532 -19.563  1.00  0.00     0.183 A 
HETATM    5  N3  UNL     1       9.031 -21.907 -19.618  1.00  0.00    -0.336 N 
ATOM      6  H3  UNL     1       8.438 -21.492 -20.337  1.00  0.00     0.168 HD
HETATM    7  C3  UNL     1       8.482 -22.795 -18.780  1.00  0.00     0.153 A 
HETATM    8  N4  UNL     1       7.249 -23.318 -18.639  1.00  0.00    -0.173 N 
ATOM      9  H4  UNL     1       6.450 -23.082 -19.227  1.00  0.00     0.186 HD
HETATM   10  C4  UNL     1       7.213 -24.192 -17.618  1.00  0.00     0.697 A 
HETATM   11  N8  UNL     1       8.460 -24.204 -17.119  1.00  0.00    -0.183 N 
ATOM     12  H8  UNL     1       8.759 -24.775 -16.327  1.00  0.00     0.184 HD
HETATM   13  C5  UNL     1       9.261 -23.367 -17.800  1.00  0.00     0.137 A 
ENDROOT
BRANCH  10  14
HETATM   14  N5  UNL     1       6.079 -24.929 -17.183  1.00  0.00    -0.116 N 
ATOM     15  H5  UNL     1       5.772 -25.731 -17.735  1.00  0.00     0.203 HD
BRANCH  14  16
HETATM   16  N6  UNL     1       5.378 -24.599 -16.039  1.00  0.00    -0.015 NA
BRANCH  16  17
HETATM   17  N7  UNL     1       4.696 -23.387 -16.195  1.00  0.00    -0.328 N 
ATOM     18  H72 UNL     1       4.547 -22.722 -15.437  1.00  0.00     0.174 HD
ATOM     19  H71 UNL     1       4.376 -23.265 -17.156  1.00  0.00     0.174 HD
ENDBRANCH  16  17
ENDBRANCH  14  16
ENDBRANCH  10  14
BRANCH   1  20
HETATM   20  N1  UNL     1      11.342 -23.489 -16.850  1.00  0.00    -0.383 N 
ATOM     21  H12 UNL     1      12.326 -23.659 -17.059  1.00  0.00     0.157 HD
ATOM     22  H11 UNL     1      10.954 -23.715 -15.934  1.00  0.00     0.157 HD
ENDBRANCH   1  20
TORSDOF 4
ENDMDL
MODEL 2
REMARK VINA RESULT: -5.386513032      1.176      2.646
REMARK  4 active torsions:
REMARK  status: ('A' for Active; 'I' for Inactive)
REMARK    1  A    between atoms: N1_1  and  C1_4 
REMARK    2  A    between atoms: C4_13  and  N5_14 
REMARK    3  A    between atoms: N5_14  and  N6_16 
REMARK    4  A    between atoms: N6_16  and  N7_17 
ROOT
HETATM    1  C1  UNL     1      11.576 -21.858 -19.018  1.00  0.00     0.131 A 
HETATM    2  N2  UNL     1      12.726 -22.036 -18.335  1.00  0.00    -0.337 N 
ATOM      3  H2  UNL     1      13.578 -21.585 -18.666  1.00  0.00     0.168 HD
HETATM    4  C2  UNL     1      12.771 -22.799 -17.223  1.00  0.00     0.183 A 
HETATM    5  N3  UNL     1      11.624 -23.375 -16.822  1.00  0.00    -0.336 N 
ATOM      6  H3  UNL     1      11.643 -23.955 -15.984  1.00  0.00     0.168 HD
HETATM    7  C3  UNL     1      10.459 -23.229 -17.465  1.00  0.00     0.153 A 
HETATM    8  N4  UNL     1       9.210 -23.692 -17.266  1.00  0.00    -0.173 N 
ATOM      9  H4  UNL     1       8.935 -24.300 -16.495  1.00  0.00     0.186 HD
HETATM   10  C4  UNL     1       8.375 -23.244 -18.219  1.00  0.00     0.697 A 
HETATM   11  N8  UNL     1       9.134 -22.486 -19.027  1.00  0.00    -0.183 N 
ATOM     12  H8  UNL     1       8.789 -21.999 -19.855  1.00  0.00     0.184 HD
HETATM   13  C5  UNL     1      10.408 -22.452 -18.600  1.00  0.00     0.137 A 
ENDROOT
BRANCH  10  14
HETATM   14  N5  UNL     1       6.988 -23.531 -18.323  1.00  0.00    -0.116 N 
ATOM     15  H5  UNL     1       6.339 -22.766 -18.506  1.00  0.00     0.203 HD
BRANCH  14  16
HETATM   16  N6  UNL     1       6.486 -24.812 -18.185  1.00  0.00    -0.015 NA
BRANCH  16  17
HETATM   17  N7  UNL     1       5.901 -24.993 -16.927  1.00  0.00    -0.328 N 
ATOM     18  H72 UNL     1       6.151 -24.445 -16.104  1.00  0.00     0.174 HD
ATOM     19  H71 UNL     1       5.203 -25.737 -16.949  1.00  0.00     0.174 HD
ENDBRANCH  16  17
ENDBRANCH  14  16
ENDBRANCH  10  14
BRANCH   1  20
HETATM   20  N1  UNL     1      11.582 -21.133 -20.059  1.00  0.00    -0.383 N 
ATOM     21  H12 UNL     1      12.455 -20.967 -20.560  1.00  0.00     0.157 HD
ATOM     22  H11 UNL     1      10.706 -20.721 -20.382  1.00  0.00     0.157 HD
ENDBRANCH   1  20
TORSDOF 4
ENDMDL
MODEL 3
REMARK VINA RESULT: -5.329815924      1.534      2.358
REMARK  4 active torsions:
REMARK  status: ('A' for Active; 'I' for Inactive)
REMARK    1  A    between atoms: N1_1  and  C1_4 
REMARK    2  A    between atoms: C4_13  and  N5_14 
REMARK    3  A    between atoms: N5_14  and  N6_16 
REMARK    4  A    between atoms: N6_16  and  N7_17 
ROOT
HETATM    1  C1  UNL     1      12.814 -22.647 -17.987  1.00  0.00     0.131 A 
HETATM    2  N2  UNL     1      13.410 -21.785 -18.836  1.00  0.00    -0.337 N 
ATOM      3  H2  UNL     1      14.422 -21.665 -18.798  1.00  0.00     0.168 HD
HETATM    4  C2  UNL     1      12.695 -21.077 -19.736  1.00  0.00     0.183 A 
HETATM    5  N3  UNL     1      11.364 -21.266 -19.752  1.00  0.00    -0.336 N 
ATOM      6  H3  UNL     1      10.810 -20.737 -20.426  1.00  0.00     0.168 HD
HETATM    7  C3  UNL     1      10.726 -22.109 -18.931  1.00  0.00     0.153 A 
HETATM    8  N4  UNL     1       9.437 -22.461 -18.760  1.00  0.00    -0.173 N 
ATOM      9  H4  UNL     1       8.659 -22.087 -19.303  1.00  0.00     0.186 HD
HETATM   10  C4  UNL     1       9.315 -23.371 -17.779  1.00  0.00     0.697 A 
HETATM   11  N8  UNL     1      10.565 -23.582 -17.335  1.00  0.00    -0.183 N 
ATOM     12  H8  UNL     1      10.810 -24.227 -16.582  1.00  0.00     0.184 HD
HETATM   13  C5  UNL     1      11.451 -22.832 -18.012  1.00  0.00     0.137 A 
ENDROOT
BRANCH  10  14
HETATM   14  N5  UNL     1       8.106 -23.964 -17.329  1.00  0.00    -0.116 N 
ATOM     15  H5  UNL     1       7.959 -24.084 -16.326  1.00  0.00     0.203 HD
BRANCH  14  16
HETATM   16  N6  UNL     1       7.120 -24.385 -18.202  1.00  0.00    -0.015 NA
BRANCH  16  17
HETATM   17  N7  UNL     1       6.046 -23.487 -18.223  1.00  0.00    -0.328 N 
ATOM     18  H72 UNL     1       5.989 -22.662 -17.627  1.00  0.00     0.174 HD
ATOM     19  H71 UNL     1       5.343 -23.770 -18.905  1.00  0.00     0.174 HD
ENDBRANCH  16  17
ENDBRANCH  14  16
ENDBRANCH  10  14
BRANCH   1  20
HETATM   20  N1  UNL     1      13.527 -23.289 -17.158  1.00  0.00    -0.383 N 
ATOM     21  H12 UNL     1      14.542 -23.190 -17.174  1.00  0.00     0.157 HD
ATOM     22  H11 UNL     1      13.071 -23.902 -16.482  1.00  0.00     0.157 HD
ENDBRANCH   1  20
TORSDOF 4
ENDMDL
MODEL 4
REMARK VINA RESULT: -5.242109341      1.934      5.791
REMARK  4 active torsions:
REMARK  status: ('A' for Active; 'I' for Inactive)
REMARK    1  A    between atoms: N1_1  and  C1_4 
REMARK    2  A    between atoms: C4_13  and  N5_14 
REMARK    3  A    between atoms: N5_14  and  N6_16 
REMARK    4  A    between atoms: N6_16  and  N7_17 
ROOT
HETATM    1  C1  UNL     1       8.377 -22.642 -19.131  1.00  0.00     0.131 A 
HETATM    2  N2  UNL     1       7.915 -23.494 -18.194  1.00  0.00    -0.337 N 
ATOM      3  H2  UNL     1       6.931 -23.762 -18.204  1.00  0.00     0.168 HD
HETATM    4  C2  UNL     1       8.727 -23.999 -17.241  1.00  0.00     0.183 A 
HETATM    5  N3  UNL     1      10.016 -23.618 -17.264  1.00  0.00    -0.336 N 
ATOM      6  H3  UNL     1      10.642 -23.990 -16.550  1.00  0.00     0.168 HD
HETATM    7  C3  UNL     1      10.523 -22.775 -18.173  1.00  0.00     0.153 A 
HETATM    8  N4  UNL     1      11.746 -22.258 -18.398  1.00  0.00    -0.173 N 
ATOM      9  H4  UNL     1      12.571 -22.460 -17.834  1.00  0.00     0.186 HD
HETATM   10  C4  UNL     1      11.732 -21.441 -19.464  1.00  0.00     0.697 A 
HETATM   11  N8  UNL     1      10.464 -21.457 -19.906  1.00  0.00    -0.183 N 
ATOM     12  H8  UNL     1      10.126 -20.930 -20.712  1.00  0.00     0.184 HD
HETATM   13  C5  UNL     1       9.698 -22.258 -19.146  1.00  0.00     0.137 A 
ENDROOT
BRANCH  10  14
HETATM   14  N5  UNL     1      12.841 -20.725 -19.988  1.00  0.00    -0.116 N 
ATOM     15  H5  UNL     1      12.890 -19.717 -19.842  1.00  0.00     0.203 HD
BRANCH  14  16
HETATM   16  N6  UNL     1      13.857 -21.347 -20.690  1.00  0.00    -0.015 NA
BRANCH  16  17
HETATM   17  N7  UNL     1      13.426 -21.738 -21.963  1.00  0.00    -0.328 N 
ATOM     18  H72 UNL     1      13.288 -22.710 -22.238  1.00  0.00     0.174 HD
ATOM     19  H71 UNL     1      13.275 -20.929 -22.566  1.00  0.00     0.174 HD
ENDBRANCH  16  17
ENDBRANCH  14  16
ENDBRANCH  10  14
BRANCH   1  20
HETATM   20  N1  UNL     1       7.576 -22.192 -20.006  1.00  0.00    -0.383 N 
ATOM     21  H12 UNL     1       6.570 -22.306 -19.883  1.00  0.00     0.157 HD
ATOM     22  H11 UNL     1       7.953 -21.719 -20.828  1.00  0.00     0.157 HD
ENDBRANCH   1  20
TORSDOF 4
ENDMDL
MODEL 5
REMARK VINA RESULT: -5.235934470      1.661      5.485
REMARK  4 active torsions:
REMARK  status: ('A' for Active; 'I' for Inactive)
REMARK    1  A    between atoms: N1_1  and  C1_4 
REMARK    2  A    between atoms: C4_13  and  N5_14 
REMARK    3  A    between atoms: N5_14  and  N6_16 
REMARK    4  A    between atoms: N6_16  and  N7_17 
ROOT
HETATM    1  C1  UNL     1       8.049 -22.674 -19.220  1.00  0.00     0.131 A 
HETATM    2  N2  UNL     1       7.201 -23.437 -18.501  1.00  0.00    -0.337 N 
ATOM      3  H2  UNL     1       6.222 -23.495 -18.780  1.00  0.00     0.168 HD
HETATM    4  C2  UNL     1       7.621 -24.124 -17.418  1.00  0.00     0.183 A 
HETATM    5  N3  UNL     1       8.920 -24.018 -17.085  1.00  0.00    -0.336 N 
ATOM      6  H3  UNL     1       9.252 -24.531 -16.269  1.00  0.00     0.168 HD
HETATM    7  C3  UNL     1       9.800 -23.275 -17.768  1.00  0.00     0.153 A 
HETATM    8  N4  UNL     1      11.115 -23.016 -17.635  1.00  0.00    -0.173 N 
ATOM      9  H4  UNL     1      11.708 -23.399 -16.899  1.00  0.00     0.186 HD
HETATM   10  C4  UNL     1      11.540 -22.185 -18.602  1.00  0.00     0.697 A 
HETATM   11  N8  UNL     1      10.454 -21.926 -19.348  1.00  0.00    -0.183 N 
ATOM     12  H8  UNL     1      10.448 -21.319 -20.169  1.00  0.00     0.184 HD
HETATM   13  C5  UNL     1       9.376 -22.572 -18.871  1.00  0.00     0.137 A 
ENDROOT
BRANCH  10  14
HETATM   14  N5  UNL     1      12.864 -21.700 -18.771  1.00  0.00    -0.116 N 
ATOM     15  H5  UNL     1      13.637 -22.225 -18.361  1.00  0.00     0.203 HD
BRANCH  14  16
HETATM   16  N6  UNL     1      13.143 -20.542 -19.472  1.00  0.00    -0.015 NA
BRANCH  16  17
HETATM   17  N7  UNL     1      13.307 -20.804 -20.837  1.00  0.00    -0.328 N 
ATOM     18  H72 UNL     1      13.975 -21.480 -21.205  1.00  0.00     0.174 HD
ATOM     19  H71 UNL     1      12.676 -20.233 -21.400  1.00  0.00     0.174 HD
ENDBRANCH  16  17
ENDBRANCH  14  16
ENDBRANCH  10  14
BRANCH   1  20
HETATM   20  N1  UNL     1       7.608 -22.045 -20.230  1.00  0.00    -0.383 N 
ATOM     21  H12 UNL     1       6.728 -21.533 -20.168  1.00  0.00     0.157 HD
ATOM     22  H11 UNL     1       8.145 -22.061 -21.098  1.00  0.00     0.157 HD
ENDBRANCH   1  20
TORSDOF 4
ENDMDL
