MODEL 1
REMARK VINA RESULT: -5.304268286      0.000      0.000
REMARK  6 active torsions:
REMARK  status: ('A' for Active; 'I' for Inactive)
REMARK    1  A    between atoms: N1_1  and  C1_5 
REMARK    2  A    between atoms: C1_5  and  N2_6 
REMARK    3  A    between atoms: C1_5  and  C2_10 
REMARK    4  A    between atoms: C2_10  and  C3_11 
REMARK    5  A    between atoms: N3_12  and  N4_14 
REMARK    6  A    between atoms: N4_14  and  C4_16 
ROOT
HETATM    1  C3  UNL     1       8.939 -24.220 -17.414  1.00  0.00     0.084 C 
HETATM    2  N3  UNL     1       9.885 -23.423 -17.065  1.00  0.00    -0.301 N 
ATOM      3  H3  UNL     1       9.764 -22.776 -16.286  1.00  0.00     0.186 HD
ENDROOT
BRANCH   2   4
HETATM    4  N4  UNL     1      11.082 -23.465 -17.780  1.00  0.00    -0.130 N 
ATOM      5  H4  UNL     1      11.740 -24.235 -17.654  1.00  0.00     0.205 HD
BRANCH   4   6
HETATM    6  C4  UNL     1      11.340 -22.495 -18.613  1.00  0.00     0.728 A 
HETATM    7  N5  UNL     1      10.438 -21.643 -19.097  1.00  0.00    -0.114 N 
HETATM    8  N6  UNL     1      11.044 -20.810 -19.897  1.00  0.00    -0.213 N 
ATOM      9  H5  UNL     1       9.442 -21.641 -18.879  1.00  0.00     0.207 HD
HETATM   10  N7  UNL     1      12.321 -21.119 -19.928  1.00  0.00    -0.213 N 
ATOM     11  H6  UNL     1      10.602 -20.048 -20.410  1.00  0.00     0.210 HD
HETATM   12  N8  UNL     1      12.526 -22.161 -19.140  1.00  0.00    -0.114 N 
ATOM     13  H7  UNL     1      13.036 -20.636 -20.472  1.00  0.00     0.210 HD
ATOM     14  H8  UNL     1      13.419 -22.623 -18.967  1.00  0.00     0.207 HD
ENDBRANCH   4   6
ENDBRANCH   2   4
BRANCH   1  15
HETATM   15  C2  UNL     1       7.681 -24.140 -16.623  1.00  0.00     0.108 C 
BRANCH  15  16
HETATM   16  C1  UNL     1       6.555 -24.665 -17.517  1.00  0.00     0.382 C 
BRANCH  16  17
HETATM   17  N1  UNL     1       5.545 -25.289 -16.720  1.00  0.00    -0.050 N 
ATOM     18  H13 UNL     1       5.349 -24.776 -15.861  1.00  0.00     0.276 HD
ATOM     19  H12 UNL     1       4.616 -25.220 -17.136  1.00  0.00     0.276 HD
ATOM     20  H11 UNL     1       5.828 -26.254 -16.547  1.00  0.00     0.276 HD
ENDBRANCH  16  17
BRANCH  16  21
HETATM   21  N2  UNL     1       5.941 -23.585 -18.259  1.00  0.00    -0.050 N 
ATOM     22  H23 UNL     1       4.921 -23.613 -18.224  1.00  0.00     0.276 HD
ATOM     23  H22 UNL     1       6.068 -22.677 -17.811  1.00  0.00     0.276 HD
ATOM     24  H21 UNL     1       6.303 -23.607 -19.212  1.00  0.00     0.276 HD
ENDBRANCH  16  21
ENDBRANCH  15  16
ENDBRANCH   1  15
TORSDOF 6
ENDMDL
MODEL 2
REMARK VINA RESULT: -5.263628606      1.401      6.014
REMARK  6 active torsions:
REMARK  status: ('A' for Active; 'I' for Inactive)
REMARK    1  A    between atoms: N1_1  and  C1_5 
REMARK    2  A    between atoms: C1_5  and  N2_6 
REMARK    3  A    between atoms: C1_5  and  C2_10 
REMARK    4  A    between atoms: C2_10  and  C3_11 
REMARK    5  A    between atoms: N3_12  and  N4_14 
REMARK    6  A    between atoms: N4_14  and  C4_16 
ROOT
HETATM    1  C3  UNL     1       9.618 -22.513 -18.584  1.00  0.00     0.084 C 
HETATM    2  N3  UNL     1       8.768 -23.456 -18.380  1.00  0.00    -0.301 N 
ATOM      3  H3  UNL     1       9.069 -24.365 -18.026  1.00  0.00     0.186 HD
ENDROOT
BRANCH   2   4
HETATM    4  N4  UNL     1       7.424 -23.205 -18.654  1.00  0.00    -0.130 N 
ATOM      5  H4  UNL     1       7.149 -22.676 -19.482  1.00  0.00     0.205 HD
BRANCH   4   6
HETATM    6  C4  UNL     1       6.527 -23.665 -17.826  1.00  0.00     0.728 A 
HETATM    7  N5  UNL     1       6.394 -24.943 -17.476  1.00  0.00    -0.114 N 
HETATM    8  N6  UNL     1       5.400 -25.039 -16.636  1.00  0.00    -0.213 N 
ATOM      9  H5  UNL     1       6.970 -25.715 -17.808  1.00  0.00     0.207 HD
HETATM   10  N7  UNL     1       4.900 -23.839 -16.445  1.00  0.00    -0.213 N 
ATOM     11  H6  UNL     1       5.069 -25.899 -16.201  1.00  0.00     0.210 HD
HETATM   12  N8  UNL     1       5.583 -22.972 -17.173  1.00  0.00    -0.114 N 
ATOM     13  H7  UNL     1       4.114 -23.613 -15.836  1.00  0.00     0.210 HD
ATOM     14  H8  UNL     1       5.422 -21.966 -17.229  1.00  0.00     0.207 HD
ENDBRANCH   4   6
ENDBRANCH   2   4
BRANCH   1  15
HETATM   15  C2  UNL     1      11.041 -22.827 -18.276  1.00  0.00     0.108 C 
BRANCH  15  16
HETATM   16  C1  UNL     1      11.898 -22.047 -19.277  1.00  0.00     0.382 C 
BRANCH  16  17
HETATM   17  N1  UNL     1      11.149 -20.956 -19.819  1.00  0.00    -0.050 N 
ATOM     18  H13 UNL     1      10.153 -21.161 -19.894  1.00  0.00     0.276 HD
ATOM     19  H12 UNL     1      11.079 -20.168 -19.175  1.00  0.00     0.276 HD
ATOM     20  H11 UNL     1      11.567 -20.698 -20.714  1.00  0.00     0.276 HD
ENDBRANCH  16  17
BRANCH  16  21
HETATM   21  N2  UNL     1      13.077 -21.509 -18.634  1.00  0.00    -0.050 N 
ATOM     22  H23 UNL     1      13.941 -21.927 -18.983  1.00  0.00     0.276 HD
ATOM     23  H22 UNL     1      13.271 -20.546 -18.908  1.00  0.00     0.276 HD
ATOM     24  H21 UNL     1      12.968 -21.616 -17.625  1.00  0.00     0.276 HD
ENDBRANCH  16  21
ENDBRANCH  15  16
ENDBRANCH   1  15
TORSDOF 6
ENDMDL
MODEL 3
REMARK VINA RESULT: -5.252270783      1.188      5.743
REMARK  6 active torsions:
REMARK  status: ('A' for Active; 'I' for Inactive)
REMARK    1  A    between atoms: N1_1  and  C1_5 
REMARK    2  A    between atoms: C1_5  and  N2_6 
REMARK    3  A    between atoms: C1_5  and  C2_10 
REMARK    4  A    between atoms: C2_10  and  C3_11 
REMARK    5  A    between atoms: N3_12  and  N4_14 
REMARK    6  A    between atoms: N4_14  and  C4_16 
ROOT
HETATM    1  C3  UNL     1       9.335 -23.334 -18.176  1.00  0.00     0.084 C 
HETATM    2  N3  UNL     1       8.854 -24.396 -17.634  1.00  0.00    -0.301 N 
ATOM      3  H3  UNL     1       9.380 -24.905 -16.923  1.00  0.00     0.186 HD
ENDROOT
BRANCH   2   4
HETATM    4  N4  UNL     1       7.596 -24.835 -18.044  1.00  0.00    -0.130 N 
ATOM      5  H4  UNL     1       7.500 -25.563 -18.752  1.00  0.00     0.205 HD
BRANCH   4   6
HETATM    6  C4  UNL     1       6.543 -24.291 -17.498  1.00  0.00     0.728 A 
HETATM    7  N5  UNL     1       5.990 -23.142 -17.882  1.00  0.00    -0.114 N 
HETATM    8  N6  UNL     1       4.960 -22.905 -17.119  1.00  0.00    -0.213 N 
ATOM      9  H5  UNL     1       6.317 -22.548 -18.643  1.00  0.00     0.207 HD
HETATM   10  N7  UNL     1       4.847 -23.888 -16.255  1.00  0.00    -0.213 N 
ATOM     11  H6  UNL     1       4.345 -22.093 -17.182  1.00  0.00     0.210 HD
HETATM   12  N8  UNL     1       5.818 -24.758 -16.471  1.00  0.00    -0.114 N 
ATOM     13  H7  UNL     1       4.129 -23.967 -15.535  1.00  0.00     0.210 HD
ATOM     14  H8  UNL     1       5.985 -25.622 -15.955  1.00  0.00     0.207 HD
ENDBRANCH   4   6
ENDBRANCH   2   4
BRANCH   1  15
HETATM   15  C2  UNL     1      10.681 -22.903 -17.707  1.00  0.00     0.108 C 
BRANCH  15  16
HETATM   16  C1  UNL     1      11.410 -22.315 -18.918  1.00  0.00     0.382 C 
BRANCH  16  17
HETATM   17  N1  UNL     1      10.646 -21.246 -19.481  1.00  0.00    -0.050 N 
ATOM     18  H13 UNL     1      11.075 -20.853 -20.318  1.00  0.00     0.276 HD
ATOM     19  H12 UNL     1       9.777 -21.567 -19.909  1.00  0.00     0.276 HD
ATOM     20  H11 UNL     1      10.491 -20.548 -18.752  1.00  0.00     0.276 HD
ENDBRANCH  16  17
BRANCH  16  21
HETATM   21  N2  UNL     1      12.704 -21.792 -18.536  1.00  0.00    -0.050 N 
ATOM     22  H23 UNL     1      12.648 -21.132 -17.759  1.00  0.00     0.276 HD
ATOM     23  H22 UNL     1      13.292 -22.490 -18.080  1.00  0.00     0.276 HD
ATOM     24  H21 UNL     1      13.142 -21.389 -19.364  1.00  0.00     0.276 HD
ENDBRANCH  16  21
ENDBRANCH  15  16
ENDBRANCH   1  15
TORSDOF 6
ENDMDL
MODEL 4
REMARK VINA RESULT: -5.242344291      1.365      5.633
REMARK  6 active torsions:
REMARK  status: ('A' for Active; 'I' for Inactive)
REMARK    1  A    between atoms: N1_1  and  C1_5 
REMARK    2  A    between atoms: C1_5  and  N2_6 
REMARK    3  A    between atoms: C1_5  and  C2_10 
REMARK    4  A    between atoms: C2_10  and  C3_11 
REMARK    5  A    between atoms: N3_12  and  N4_14 
REMARK    6  A    between atoms: N4_14  and  C4_16 
ROOT
HETATM    1  C3  UNL     1       9.623 -23.508 -17.770  1.00  0.00     0.084 C 
HETATM    2  N3  UNL     1       8.891 -24.489 -17.378  1.00  0.00    -0.301 N 
ATOM      3  H3  UNL     1       9.187 -25.088 -16.607  1.00  0.00     0.186 HD
ENDROOT
BRANCH   2   4
HETATM    4  N4  UNL     1       7.680 -24.714 -18.033  1.00  0.00    -0.130 N 
ATOM      5  H4  UNL     1       7.647 -25.242 -18.905  1.00  0.00     0.205 HD
BRANCH   4   6
HETATM    6  C4  UNL     1       6.590 -24.232 -17.502  1.00  0.00     0.728 A 
HETATM    7  N5  UNL     1       6.005 -23.091 -17.859  1.00  0.00    -0.114 N 
HETATM    8  N6  UNL     1       4.943 -22.922 -17.122  1.00  0.00    -0.213 N 
ATOM      9  H5  UNL     1       6.332 -22.456 -18.587  1.00  0.00     0.207 HD
HETATM   10  N7  UNL     1       4.842 -23.942 -16.300  1.00  0.00    -0.213 N 
ATOM     11  H6  UNL     1       4.299 -22.133 -17.175  1.00  0.00     0.210 HD
HETATM   12  N8  UNL     1       5.853 -24.766 -16.517  1.00  0.00    -0.114 N 
ATOM     13  H7  UNL     1       4.106 -24.076 -15.607  1.00  0.00     0.210 HD
ATOM     14  H8  UNL     1       6.038 -25.642 -16.029  1.00  0.00     0.207 HD
ENDBRANCH   4   6
ENDBRANCH   2   4
BRANCH   1  15
HETATM   15  C2  UNL     1      10.905 -23.307 -17.042  1.00  0.00     0.108 C 
BRANCH  15  16
HETATM   16  C1  UNL     1      11.963 -22.946 -18.088  1.00  0.00     0.382 C 
BRANCH  16  17
HETATM   17  N1  UNL     1      12.391 -24.122 -18.779  1.00  0.00    -0.050 N 
ATOM     18  H13 UNL     1      11.707 -24.877 -18.734  1.00  0.00     0.276 HD
ATOM     19  H12 UNL     1      12.397 -24.003 -19.793  1.00  0.00     0.276 HD
ATOM     20  H11 UNL     1      13.303 -24.394 -18.410  1.00  0.00     0.276 HD
ENDBRANCH  16  17
BRANCH  16  21
HETATM   21  N2  UNL     1      11.428 -22.020 -19.062  1.00  0.00    -0.050 N 
ATOM     22  H23 UNL     1      11.606 -22.313 -20.024  1.00  0.00     0.276 HD
ATOM     23  H22 UNL     1      10.409 -22.033 -19.101  1.00  0.00     0.276 HD
ATOM     24  H21 UNL     1      11.802 -21.093 -18.859  1.00  0.00     0.276 HD
ENDBRANCH  16  21
ENDBRANCH  15  16
ENDBRANCH   1  15
TORSDOF 6
ENDMDL
MODEL 5
REMARK VINA RESULT: -5.227738075      0.886      1.116
REMARK  6 active torsions:
REMARK  status: ('A' for Active; 'I' for Inactive)
REMARK    1  A    between atoms: N1_1  and  C1_5 
REMARK    2  A    between atoms: C1_5  and  N2_6 
REMARK    3  A    between atoms: C1_5  and  C2_10 
REMARK    4  A    between atoms: C2_10  and  C3_11 
REMARK    5  A    between atoms: N3_12  and  N4_14 
REMARK    6  A    between atoms: N4_14  and  C4_16 
ROOT
HETATM    1  C3  UNL     1       8.397 -24.358 -17.236  1.00  0.00     0.084 C 
HETATM    2  N3  UNL     1       9.315 -23.475 -17.059  1.00  0.00    -0.301 N 
ATOM      3  H3  UNL     1       9.189 -22.716 -16.389  1.00  0.00     0.186 HD
ENDROOT
BRANCH   2   4
HETATM    4  N4  UNL     1      10.488 -23.582 -17.806  1.00  0.00    -0.130 N 
ATOM      5  H4  UNL     1      11.068 -24.420 -17.753  1.00  0.00     0.205 HD
BRANCH   4   6
HETATM    6  C4  UNL     1      10.826 -22.583 -18.574  1.00  0.00     0.728 A 
HETATM    7  N5  UNL     1       9.971 -21.750 -19.165  1.00  0.00    -0.114 N 
HETATM    8  N6  UNL     1      10.654 -20.877 -19.852  1.00  0.00    -0.213 N 
ATOM      9  H5  UNL     1       8.955 -21.788 -19.092  1.00  0.00     0.207 HD
HETATM   10  N7  UNL     1      11.932 -21.142 -19.706  1.00  0.00    -0.213 N 
ATOM     11  H6  UNL     1      10.262 -20.118 -20.409  1.00  0.00     0.210 HD
HETATM   12  N8  UNL     1      12.062 -22.195 -18.918  1.00  0.00    -0.114 N 
ATOM     13  H7  UNL     1      12.699 -20.621 -20.131  1.00  0.00     0.210 HD
ATOM     14  H8  UNL     1      12.937 -22.631 -18.627  1.00  0.00     0.207 HD
ENDBRANCH   4   6
ENDBRANCH   2   4
BRANCH   1  15
HETATM   15  C2  UNL     1       7.164 -24.203 -16.417  1.00  0.00     0.108 C 
BRANCH  15  16
HETATM   16  C1  UNL     1       6.248 -23.231 -17.165  1.00  0.00     0.382 C 
BRANCH  16  17
HETATM   17  N1  UNL     1       6.030 -23.691 -18.501  1.00  0.00    -0.050 N 
ATOM     18  H13 UNL     1       6.898 -23.798 -19.026  1.00  0.00     0.276 HD
ATOM     19  H12 UNL     1       5.727 -24.665 -18.538  1.00  0.00     0.276 HD
ATOM     20  H11 UNL     1       5.371 -23.056 -18.952  1.00  0.00     0.276 HD
ENDBRANCH  16  17
BRANCH  16  21
HETATM   21  N2  UNL     1       4.962 -23.127 -16.508  1.00  0.00    -0.050 N 
ATOM     22  H23 UNL     1       4.797 -22.202 -16.111  1.00  0.00     0.276 HD
ATOM     23  H22 UNL     1       4.183 -23.135 -17.166  1.00  0.00     0.276 HD
ATOM     24  H21 UNL     1       4.899 -23.871 -15.813  1.00  0.00     0.276 HD
ENDBRANCH  16  21
ENDBRANCH  15  16
ENDBRANCH   1  15
TORSDOF 6
ENDMDL
