MODEL 1
REMARK VINA RESULT: -9.628218176      0.000      0.000
REMARK  11 active torsions:
REMARK  status: ('A' for Active; 'I' for Inactive)
REMARK    1  A    between atoms: C2_2  and  C4_4 
REMARK    2  A    between atoms: C6_6  and  O1_7 
REMARK    3  A    between atoms: C14_17  and  C15_18 
REMARK    4  A    between atoms: C15_18  and  N1_20 
REMARK    5  A    between atoms: N1_20  and  C17_22 
REMARK    6  A    between atoms: C17_22  and  C18_23 
REMARK    7  A    between atoms: C18_23  and  C19_24 
REMARK    8  A    between atoms: C19_24  and  C20_25 
REMARK    9  A    between atoms: C20_25  and  N2_26 
REMARK   10  A    between atoms: C23_29  and  O3_30 
REMARK   11  A    between atoms: C27_35  and  O4_36 
ROOT
HETATM    1  C4  UNL     1      13.601  17.908  31.786  1.00  0.00     0.025 C 
HETATM    2  C5  UNL     1      12.533  18.938  31.471  1.00  0.00     0.041 C 
HETATM    3  C6  UNL     1      12.873  20.346  31.678  1.00  0.00     0.119 C 
HETATM    4  C7  UNL     1      14.301  20.743  31.625  1.00  0.00     0.044 C 
HETATM    5  C8  UNL     1      15.270  19.643  31.865  1.00  0.00     0.067 C 
HETATM    6  C9  UNL     1      16.648  19.990  31.402  1.00  0.00     0.132 C 
HETATM    7  O2  UNL     1      16.943  20.845  30.627  1.00  0.00    -0.298 OA
HETATM    8  C10 UNL     1      17.714  19.137  32.016  1.00  0.00     0.084 C 
HETATM    9  C11 UNL     1      17.078  17.797  32.453  1.00  0.00     0.005 C 
HETATM   10  C12 UNL     1      18.203  16.824  32.598  1.00  0.00     0.002 C 
HETATM   11  C13 UNL     1      18.109  16.002  33.862  1.00  0.00     0.018 C 
HETATM   12  C14 UNL     1      19.056  14.849  33.573  1.00  0.00     0.060 C 
HETATM   13  C23 UNL     1      19.217  14.749  32.107  1.00  0.00     0.136 C 
HETATM   14  C24 UNL     1      18.416  15.902  31.467  1.00  0.00    -0.011 C 
HETATM   15  C25 UNL     1      19.345  16.486  30.389  1.00  0.00     0.018 C 
HETATM   16  C26 UNL     1      17.243  15.353  30.791  1.00  0.00     0.044 C 
HETATM   17  C27 UNL     1      15.909  15.963  31.279  1.00  0.00     0.124 C 
HETATM   18  C28 UNL     1      16.086  17.425  31.362  1.00  0.00     0.029 C 
HETATM   19  C29 UNL     1      14.905  18.309  31.279  1.00  0.00    -0.020 C 
HETATM   20  C30 UNL     1      14.677  18.558  29.754  1.00  0.00     0.017 C 
ENDROOT
BRANCH  12  21
HETATM   21  C15 UNL     1      18.588  13.650  34.318  1.00  0.00    -0.015 C 
HETATM   22  C16 UNL     1      17.069  13.548  34.423  1.00  0.00     0.063 C 
BRANCH  21  23
HETATM   23  N1  UNL     1      19.199  12.418  34.032  1.00  0.00    -0.396 N 
ATOM     24  H1  UNL     1      20.217  12.371  33.986  1.00  0.00     0.159 HD
BRANCH  23  25
HETATM   25  C17 UNL     1      18.455  11.252  33.808  1.00  0.00     0.119 C 
BRANCH  25  26
HETATM   26  C18 UNL     1      18.936  10.232  34.877  1.00  0.00     0.021 C 
BRANCH  26  27
HETATM   27  C19 UNL     1      17.797   9.290  35.206  1.00  0.00     0.032 C 
BRANCH  27  28
HETATM   28  C20 UNL     1      16.614  10.128  35.568  1.00  0.00     0.271 C 
BRANCH  28  29
HETATM   29  N2  UNL     1      15.618   9.397  36.327  1.00  0.00     0.080 N 
HETATM   30  C21 UNL     1      14.444  10.150  36.644  1.00  0.00     0.309 C 
HETATM   31  C22 UNL     1      15.198   8.204  35.593  1.00  0.00     0.309 C 
ENDBRANCH  28  29
ENDBRANCH  27  28
ENDBRANCH  26  27
ENDBRANCH  25  26
ENDBRANCH  23  25
ENDBRANCH  21  23
ENDBRANCH  12  21
BRANCH  13  32
HETATM   32  O3  UNL     1      20.581  14.945  31.816  1.00  0.00    -0.394 OA
ATOM     33  H3  UNL     1      20.652  15.121  30.885  1.00  0.00     0.210 HD
ENDBRANCH  13  32
BRANCH  17  34
HETATM   34  O4  UNL     1      14.985  15.519  30.342  1.00  0.00    -0.395 OA
ATOM     35  H4  UNL     1      15.127  14.580  30.318  1.00  0.00     0.210 HD
ENDBRANCH  17  34
BRANCH   1  36
HETATM   36  C2  UNL     1      13.415  17.482  33.177  1.00  0.00    -0.088 C 
HETATM   37  C1  UNL     1      12.586  18.174  33.964  1.00  0.00     0.014 C 
HETATM   38  C3  UNL     1      14.051  16.366  33.893  1.00  0.00     0.043 C 
ENDBRANCH   1  36
BRANCH   3  39
HETATM   39  O1  UNL     1      12.193  21.167  30.737  1.00  0.00    -0.396 OA
ATOM     40  H1  UNL     1      12.089  22.048  31.078  1.00  0.00     0.210 HD
ENDBRANCH   3  39
TORSDOF 11
ENDMDL
MODEL 2
REMARK VINA RESULT: -9.393764038      1.696      2.419
REMARK  11 active torsions:
REMARK  status: ('A' for Active; 'I' for Inactive)
REMARK    1  A    between atoms: C2_2  and  C4_4 
REMARK    2  A    between atoms: C6_6  and  O1_7 
REMARK    3  A    between atoms: C14_17  and  C15_18 
REMARK    4  A    between atoms: C15_18  and  N1_20 
REMARK    5  A    between atoms: N1_20  and  C17_22 
REMARK    6  A    between atoms: C17_22  and  C18_23 
REMARK    7  A    between atoms: C18_23  and  C19_24 
REMARK    8  A    between atoms: C19_24  and  C20_25 
REMARK    9  A    between atoms: C20_25  and  N2_26 
REMARK   10  A    between atoms: C23_29  and  O3_30 
REMARK   11  A    between atoms: C27_35  and  O4_36 
ROOT
HETATM    1  C4  UNL     1      14.051  18.103  31.085  1.00  0.00     0.025 C 
HETATM    2  C5  UNL     1      13.077  19.225  30.781  1.00  0.00     0.041 C 
HETATM    3  C6  UNL     1      13.345  20.532  31.379  1.00  0.00     0.119 C 
HETATM    4  C7  UNL     1      14.742  20.866  31.749  1.00  0.00     0.044 C 
HETATM    5  C8  UNL     1      15.639  19.698  31.944  1.00  0.00     0.067 C 
HETATM    6  C9  UNL     1      17.083  20.079  31.902  1.00  0.00     0.132 C 
HETATM    7  O2  UNL     1      17.543  21.073  31.435  1.00  0.00    -0.298 OA
HETATM    8  C10 UNL     1      17.985  19.062  32.530  1.00  0.00     0.084 C 
HETATM    9  C11 UNL     1      17.278  17.688  32.488  1.00  0.00     0.005 C 
HETATM   10  C12 UNL     1      18.347  16.658  32.659  1.00  0.00     0.002 C 
HETATM   11  C13 UNL     1      17.968  15.576  33.643  1.00  0.00     0.018 C 
HETATM   12  C14 UNL     1      18.967  14.477  33.320  1.00  0.00     0.060 C 
HETATM   13  C23 UNL     1      19.466  14.705  31.948  1.00  0.00     0.136 C 
HETATM   14  C24 UNL     1      18.826  16.008  31.426  1.00  0.00    -0.011 C 
HETATM   15  C25 UNL     1      19.975  16.779  30.754  1.00  0.00     0.018 C 
HETATM   16  C26 UNL     1      17.849  15.679  30.391  1.00  0.00     0.044 C 
HETATM   17  C27 UNL     1      16.432  16.222  30.687  1.00  0.00     0.124 C 
HETATM   18  C28 UNL     1      16.571  17.618  31.143  1.00  0.00     0.029 C 
HETATM   19  C29 UNL     1      15.433  18.550  30.998  1.00  0.00    -0.020 C 
HETATM   20  C30 UNL     1      15.566  19.147  29.561  1.00  0.00     0.017 C 
ENDROOT
BRANCH  12  21
HETATM   21  C15 UNL     1      18.350  13.162  33.641  1.00  0.00    -0.015 C 
HETATM   22  C16 UNL     1      19.267  12.230  34.427  1.00  0.00     0.063 C 
BRANCH  21  23
HETATM   23  N1  UNL     1      17.029  13.154  34.115  1.00  0.00    -0.396 N 
ATOM     24  H1  UNL     1      16.346  13.780  33.686  1.00  0.00     0.159 HD
BRANCH  23  25
HETATM   25  C17 UNL     1      16.616  12.314  35.157  1.00  0.00     0.119 C 
BRANCH  25  26
HETATM   26  C18 UNL     1      15.172  12.762  35.515  1.00  0.00     0.021 C 
BRANCH  26  27
HETATM   27  C19 UNL     1      15.080  14.269  35.391  1.00  0.00     0.032 C 
BRANCH  27  28
HETATM   28  C20 UNL     1      14.170  14.752  36.475  1.00  0.00     0.271 C 
BRANCH  28  29
HETATM   29  N2  UNL     1      13.192  13.758  36.872  1.00  0.00     0.080 N 
HETATM   30  C21 UNL     1      12.972  13.674  38.282  1.00  0.00     0.309 C 
HETATM   31  C22 UNL     1      11.905  14.031  36.234  1.00  0.00     0.309 C 
ENDBRANCH  28  29
ENDBRANCH  27  28
ENDBRANCH  26  27
ENDBRANCH  25  26
ENDBRANCH  23  25
ENDBRANCH  21  23
ENDBRANCH  12  21
BRANCH  13  32
HETATM   32  O3  UNL     1      20.859  14.900  32.031  1.00  0.00    -0.394 OA
ATOM     33  H3  UNL     1      21.275  14.198  31.544  1.00  0.00     0.210 HD
ENDBRANCH  13  32
BRANCH  17  34
HETATM   34  O4  UNL     1      15.757  16.044  29.487  1.00  0.00    -0.395 OA
ATOM     35  H4  UNL     1      14.977  15.564  29.739  1.00  0.00     0.210 HD
ENDBRANCH  17  34
BRANCH   1  36
HETATM   36  C2  UNL     1      13.549  17.381  32.260  1.00  0.00    -0.088 C 
HETATM   37  C1  UNL     1      13.130  16.121  32.119  1.00  0.00     0.014 C 
HETATM   38  C3  UNL     1      13.400  17.860  33.642  1.00  0.00     0.043 C 
ENDBRANCH   1  36
BRANCH   3  39
HETATM   39  O1  UNL     1      12.896  21.575  30.523  1.00  0.00    -0.396 OA
ATOM     40  H1  UNL     1      13.389  22.372  30.682  1.00  0.00     0.210 HD
ENDBRANCH   3  39
TORSDOF 11
ENDMDL
MODEL 3
REMARK VINA RESULT: -9.250174764      1.185      1.768
REMARK  11 active torsions:
REMARK  status: ('A' for Active; 'I' for Inactive)
REMARK    1  A    between atoms: C2_2  and  C4_4 
REMARK    2  A    between atoms: C6_6  and  O1_7 
REMARK    3  A    between atoms: C14_17  and  C15_18 
REMARK    4  A    between atoms: C15_18  and  N1_20 
REMARK    5  A    between atoms: N1_20  and  C17_22 
REMARK    6  A    between atoms: C17_22  and  C18_23 
REMARK    7  A    between atoms: C18_23  and  C19_24 
REMARK    8  A    between atoms: C19_24  and  C20_25 
REMARK    9  A    between atoms: C20_25  and  N2_26 
REMARK   10  A    between atoms: C23_29  and  O3_30 
REMARK   11  A    between atoms: C27_35  and  O4_36 
ROOT
HETATM    1  C4  UNL     1      14.164  18.245  31.035  1.00  0.00     0.025 C 
HETATM    2  C5  UNL     1      13.305  19.438  30.662  1.00  0.00     0.041 C 
HETATM    3  C6  UNL     1      13.630  20.723  31.281  1.00  0.00     0.119 C 
HETATM    4  C7  UNL     1      15.018  20.949  31.752  1.00  0.00     0.044 C 
HETATM    5  C8  UNL     1      15.804  19.715  32.012  1.00  0.00     0.067 C 
HETATM    6  C9  UNL     1      17.272  19.982  32.077  1.00  0.00     0.132 C 
HETATM    7  O2  UNL     1      17.841  20.936  31.646  1.00  0.00    -0.298 OA
HETATM    8  C10 UNL     1      18.043  18.901  32.768  1.00  0.00     0.084 C 
HETATM    9  C11 UNL     1      17.236  17.586  32.672  1.00  0.00     0.005 C 
HETATM   10  C12 UNL     1      18.206  16.477  32.919  1.00  0.00     0.002 C 
HETATM   11  C13 UNL     1      17.672  15.431  33.871  1.00  0.00     0.018 C 
HETATM   12  C14 UNL     1      18.604  14.257  33.621  1.00  0.00     0.060 C 
HETATM   13  C23 UNL     1      19.219  14.439  32.290  1.00  0.00     0.136 C 
HETATM   14  C24 UNL     1      18.723  15.786  31.724  1.00  0.00    -0.011 C 
HETATM   15  C25 UNL     1      19.975  16.462  31.140  1.00  0.00     0.018 C 
HETATM   16  C26 UNL     1      17.801  15.530  30.619  1.00  0.00     0.044 C 
HETATM   17  C27 UNL     1      16.414  16.183  30.811  1.00  0.00     0.124 C 
HETATM   18  C28 UNL     1      16.627  17.565  31.278  1.00  0.00     0.029 C 
HETATM   19  C29 UNL     1      15.579  18.583  31.051  1.00  0.00    -0.020 C 
HETATM   20  C30 UNL     1      15.863  19.162  29.629  1.00  0.00     0.017 C 
ENDROOT
BRANCH  12  21
HETATM   21  C15 UNL     1      17.864  12.995  33.893  1.00  0.00    -0.015 C 
HETATM   22  C16 UNL     1      18.762  11.838  34.323  1.00  0.00     0.063 C 
BRANCH  21  23
HETATM   23  N1  UNL     1      16.681  13.075  34.644  1.00  0.00    -0.396 N 
ATOM     24  H1  UNL     1      16.142  13.941  34.626  1.00  0.00     0.159 HD
BRANCH  23  25
HETATM   25  C17 UNL     1      16.217  12.004  35.419  1.00  0.00     0.119 C 
BRANCH  25  26
HETATM   26  C18 UNL     1      14.733  12.331  35.744  1.00  0.00     0.021 C 
BRANCH  26  27
HETATM   27  C19 UNL     1      14.027  11.055  36.158  1.00  0.00     0.032 C 
BRANCH  27  28
HETATM   28  C20 UNL     1      15.003   9.934  35.998  1.00  0.00     0.271 C 
BRANCH  28  29
HETATM   29  N2  UNL     1      14.426   8.778  35.340  1.00  0.00     0.080 N 
HETATM   30  C21 UNL     1      14.807   7.522  35.908  1.00  0.00     0.309 C 
HETATM   31  C22 UNL     1      12.966   8.856  35.366  1.00  0.00     0.309 C 
ENDBRANCH  28  29
ENDBRANCH  27  28
ENDBRANCH  26  27
ENDBRANCH  25  26
ENDBRANCH  23  25
ENDBRANCH  21  23
ENDBRANCH  12  21
BRANCH  13  32
HETATM   32  O3  UNL     1      20.613  14.525  32.476  1.00  0.00    -0.394 OA
ATOM     33  H3  UNL     1      20.768  15.124  33.197  1.00  0.00     0.210 HD
ENDBRANCH  13  32
BRANCH  17  34
HETATM   34  O4  UNL     1      15.817  16.053  29.564  1.00  0.00    -0.395 OA
ATOM     35  H4  UNL     1      15.708  16.951  29.274  1.00  0.00     0.210 HD
ENDBRANCH  17  34
BRANCH   1  36
HETATM   36  C2  UNL     1      13.522  17.570  32.169  1.00  0.00    -0.088 C 
HETATM   37  C1  UNL     1      13.178  16.285  32.050  1.00  0.00     0.014 C 
HETATM   38  C3  UNL     1      13.151  18.120  33.480  1.00  0.00     0.043 C 
ENDBRANCH   1  36
BRANCH   3  39
HETATM   39  O1  UNL     1      13.328  21.794  30.395  1.00  0.00    -0.396 OA
ATOM     40  H1  UNL     1      13.999  22.466  30.443  1.00  0.00     0.210 HD
ENDBRANCH   3  39
TORSDOF 11
ENDMDL
MODEL 4
REMARK VINA RESULT: -9.220473548      1.015      1.284
REMARK  11 active torsions:
REMARK  status: ('A' for Active; 'I' for Inactive)
REMARK    1  A    between atoms: C2_2  and  C4_4 
REMARK    2  A    between atoms: C6_6  and  O1_7 
REMARK    3  A    between atoms: C14_17  and  C15_18 
REMARK    4  A    between atoms: C15_18  and  N1_20 
REMARK    5  A    between atoms: N1_20  and  C17_22 
REMARK    6  A    between atoms: C17_22  and  C18_23 
REMARK    7  A    between atoms: C18_23  and  C19_24 
REMARK    8  A    between atoms: C19_24  and  C20_25 
REMARK    9  A    between atoms: C20_25  and  N2_26 
REMARK   10  A    between atoms: C23_29  and  O3_30 
REMARK   11  A    between atoms: C27_35  and  O4_36 
ROOT
HETATM    1  C4  UNL     1      14.023  18.372  30.803  1.00  0.00     0.025 C 
HETATM    2  C5  UNL     1      13.049  19.494  30.497  1.00  0.00     0.041 C 
HETATM    3  C6  UNL     1      13.297  20.793  31.123  1.00  0.00     0.119 C 
HETATM    4  C7  UNL     1      14.684  21.128  31.528  1.00  0.00     0.044 C 
HETATM    5  C8  UNL     1      15.582  19.961  31.724  1.00  0.00     0.067 C 
HETATM    6  C9  UNL     1      17.025  20.350  31.720  1.00  0.00     0.132 C 
HETATM    7  O2  UNL     1      17.489  21.354  31.280  1.00  0.00    -0.298 OA
HETATM    8  C10 UNL     1      17.918  19.327  32.350  1.00  0.00     0.084 C 
HETATM    9  C11 UNL     1      17.220  17.950  32.270  1.00  0.00     0.005 C 
HETATM   10  C12 UNL     1      18.291  16.923  32.447  1.00  0.00     0.002 C 
HETATM   11  C13 UNL     1      17.896  15.822  33.403  1.00  0.00     0.018 C 
HETATM   12  C14 UNL     1      18.909  14.734  33.085  1.00  0.00     0.060 C 
HETATM   13  C23 UNL     1      19.437  14.988  31.728  1.00  0.00     0.136 C 
HETATM   14  C24 UNL     1      18.801  16.297  31.213  1.00  0.00    -0.011 C 
HETATM   15  C25 UNL     1      19.960  17.085  30.581  1.00  0.00     0.018 C 
HETATM   16  C26 UNL     1      17.848  15.980  30.152  1.00  0.00     0.044 C 
HETATM   17  C27 UNL     1      16.423  16.511  30.426  1.00  0.00     0.124 C 
HETATM   18  C28 UNL     1      16.543  17.899  30.908  1.00  0.00     0.029 C 
HETATM   19  C29 UNL     1      15.404  18.828  30.754  1.00  0.00    -0.020 C 
HETATM   20  C30 UNL     1      15.565  19.450  29.331  1.00  0.00     0.017 C 
ENDROOT
BRANCH  12  21
HETATM   21  C15 UNL     1      18.292  13.411  33.369  1.00  0.00    -0.015 C 
HETATM   22  C16 UNL     1      17.690  12.738  32.138  1.00  0.00     0.063 C 
BRANCH  21  23
HETATM   23  N1  UNL     1      18.999  12.517  34.187  1.00  0.00    -0.396 N 
ATOM     24  H1  UNL     1      19.791  12.865  34.729  1.00  0.00     0.159 HD
BRANCH  23  25
HETATM   25  C17 UNL     1      18.655  11.163  34.283  1.00  0.00     0.119 C 
BRANCH  25  26
HETATM   26  C18 UNL     1      17.330  11.120  35.094  1.00  0.00     0.021 C 
BRANCH  26  27
HETATM   27  C19 UNL     1      17.011   9.680  35.441  1.00  0.00     0.032 C 
BRANCH  27  28
HETATM   28  C20 UNL     1      15.636   9.656  36.028  1.00  0.00     0.271 C 
BRANCH  28  29
HETATM   29  N2  UNL     1      14.763   8.701  35.375  1.00  0.00     0.080 N 
HETATM   30  C21 UNL     1      14.850   7.370  35.892  1.00  0.00     0.309 C 
HETATM   31  C22 UNL     1      13.370   9.132  35.484  1.00  0.00     0.309 C 
ENDBRANCH  28  29
ENDBRANCH  27  28
ENDBRANCH  26  27
ENDBRANCH  25  26
ENDBRANCH  23  25
ENDBRANCH  21  23
ENDBRANCH  12  21
BRANCH  13  32
HETATM   32  O3  UNL     1      20.826  15.189  31.844  1.00  0.00    -0.394 OA
ATOM     33  H3  UNL     1      21.211  15.021  30.992  1.00  0.00     0.210 HD
ENDBRANCH  13  32
BRANCH  17  34
HETATM   34  O4  UNL     1      15.775  16.349  29.208  1.00  0.00    -0.395 OA
ATOM     35  H4  UNL     1      16.114  15.524  28.882  1.00  0.00     0.210 HD
ENDBRANCH  17  34
BRANCH   1  36
HETATM   36  C2  UNL     1      13.499  17.628  31.954  1.00  0.00    -0.088 C 
HETATM   37  C1  UNL     1      13.213  16.331  31.814  1.00  0.00     0.014 C 
HETATM   38  C3  UNL     1      13.196  18.116  33.307  1.00  0.00     0.043 C 
ENDBRANCH   1  36
BRANCH   3  39
HETATM   39  O1  UNL     1      12.861  21.848  30.275  1.00  0.00    -0.396 OA
ATOM     40  H1  UNL     1      13.330  22.650  30.473  1.00  0.00     0.210 HD
ENDBRANCH   3  39
TORSDOF 11
ENDMDL
MODEL 5
REMARK VINA RESULT: -9.119117380      1.393      1.811
REMARK  11 active torsions:
REMARK  status: ('A' for Active; 'I' for Inactive)
REMARK    1  A    between atoms: C2_2  and  C4_4 
REMARK    2  A    between atoms: C6_6  and  O1_7 
REMARK    3  A    between atoms: C14_17  and  C15_18 
REMARK    4  A    between atoms: C15_18  and  N1_20 
REMARK    5  A    between atoms: N1_20  and  C17_22 
REMARK    6  A    between atoms: C17_22  and  C18_23 
REMARK    7  A    between atoms: C18_23  and  C19_24 
REMARK    8  A    between atoms: C19_24  and  C20_25 
REMARK    9  A    between atoms: C20_25  and  N2_26 
REMARK   10  A    between atoms: C23_29  and  O3_30 
REMARK   11  A    between atoms: C27_35  and  O4_36 
ROOT
HETATM    1  C4  UNL     1      13.426  17.929  31.941  1.00  0.00     0.025 C 
HETATM    2  C5  UNL     1      12.248  18.883  31.937  1.00  0.00     0.041 C 
HETATM    3  C6  UNL     1      12.536  20.311  32.080  1.00  0.00     0.119 C 
HETATM    4  C7  UNL     1      13.872  20.807  31.669  1.00  0.00     0.044 C 
HETATM    5  C8  UNL     1      14.940  19.776  31.626  1.00  0.00     0.067 C 
HETATM    6  C9  UNL     1      16.125  20.221  30.831  1.00  0.00     0.132 C 
HETATM    7  O2  UNL     1      16.151  21.098  30.026  1.00  0.00    -0.298 OA
HETATM    8  C10 UNL     1      17.367  19.442  31.129  1.00  0.00     0.084 C 
HETATM    9  C11 UNL     1      16.958  18.059  31.685  1.00  0.00     0.005 C 
HETATM   10  C12 UNL     1      18.144  17.166  31.512  1.00  0.00     0.002 C 
HETATM   11  C13 UNL     1      18.435  16.334  32.739  1.00  0.00     0.018 C 
HETATM   12  C14 UNL     1      19.349  15.251  32.189  1.00  0.00     0.060 C 
HETATM   13  C23 UNL     1      19.131  15.169  30.730  1.00  0.00     0.136 C 
HETATM   14  C24 UNL     1      18.117  16.267  30.345  1.00  0.00    -0.011 C 
HETATM   15  C25 UNL     1      18.693  16.919  29.077  1.00  0.00     0.018 C 
HETATM   16  C26 UNL     1      16.847  15.639  29.983  1.00  0.00     0.044 C 
HETATM   17  C27 UNL     1      15.649  16.153  30.812  1.00  0.00     0.124 C 
HETATM   18  C28 UNL     1      15.743  17.623  30.879  1.00  0.00     0.029 C 
HETATM   19  C29 UNL     1      14.525  18.423  31.124  1.00  0.00    -0.020 C 
HETATM   20  C30 UNL     1      13.894  18.662  29.716  1.00  0.00     0.017 C 
ENDROOT
BRANCH  12  21
HETATM   21  C15 UNL     1      19.171  14.019  33.003  1.00  0.00    -0.015 C 
HETATM   22  C16 UNL     1      19.965  14.025  34.307  1.00  0.00     0.063 C 
BRANCH  21  23
HETATM   23  N1  UNL     1      17.870  13.516  33.159  1.00  0.00    -0.396 N 
ATOM     24  H1  UNL     1      17.294  13.371  32.330  1.00  0.00     0.159 HD
BRANCH  23  25
HETATM   25  C17 UNL     1      17.337  13.207  34.417  1.00  0.00     0.119 C 
BRANCH  25  26
HETATM   26  C18 UNL     1      16.250  14.282  34.691  1.00  0.00     0.021 C 
BRANCH  26  27
HETATM   27  C19 UNL     1      15.152  13.669  35.536  1.00  0.00     0.032 C 
BRANCH  27  28
HETATM   28  C20 UNL     1      15.371  12.190  35.548  1.00  0.00     0.271 C 
BRANCH  28  29
HETATM   29  N2  UNL     1      14.390  11.483  36.348  1.00  0.00     0.080 N 
HETATM   30  C21 UNL     1      13.040  11.636  35.901  1.00  0.00     0.309 C 
HETATM   31  C22 UNL     1      14.693  10.053  36.372  1.00  0.00     0.309 C 
ENDBRANCH  28  29
ENDBRANCH  27  28
ENDBRANCH  26  27
ENDBRANCH  25  26
ENDBRANCH  23  25
ENDBRANCH  21  23
ENDBRANCH  12  21
BRANCH  13  32
HETATM   32  O3  UNL     1      20.357  15.461  30.101  1.00  0.00    -0.394 OA
ATOM     33  H3  UNL     1      20.348  15.039  29.249  1.00  0.00     0.210 HD
ENDBRANCH  13  32
BRANCH  17  34
HETATM   34  O4  UNL     1      14.545  15.649  30.136  1.00  0.00    -0.395 OA
ATOM     35  H4  UNL     1      13.865  16.289  30.311  1.00  0.00     0.210 HD
ENDBRANCH  17  34
BRANCH   1  36
HETATM   36  C2  UNL     1      13.636  17.484  33.324  1.00  0.00    -0.088 C 
HETATM   37  C1  UNL     1      12.803  16.582  33.850  1.00  0.00     0.014 C 
HETATM   38  C3  UNL     1      14.659  17.918  34.287  1.00  0.00     0.043 C 
ENDBRANCH   1  36
BRANCH   3  39
HETATM   39  O1  UNL     1      11.582  21.087  31.365  1.00  0.00    -0.396 OA
ATOM     40  H1  UNL     1      11.142  21.694  31.949  1.00  0.00     0.210 HD
ENDBRANCH   3  39
TORSDOF 11
ENDMDL
