MODEL 1
REMARK VINA RESULT: -7.578632399      0.000      0.000
REMARK  6 active torsions:
REMARK  status: ('A' for Active; 'I' for Inactive)
REMARK    1  A    between atoms: N1_1  and  C1_4 
REMARK    2  A    between atoms: C2_10  and  C3_11 
REMARK    3  A    between atoms: C4_14  and  C5_15 
REMARK    4  A    between atoms: C5_15  and  N5_16 
REMARK    5  A    between atoms: N6_20  and  C6_21 
REMARK    6  A    between atoms: C6_21  and  C7_22 
REMARK       I    between atoms: C7_22  and  N7_24 
ROOT
HETATM    1  C3  UNL     1      12.541  52.011 -48.470  1.00  0.00     0.154 A 
HETATM    2  N4  UNL     1      13.598  52.681 -47.948  1.00  0.00    -0.326 N 
ATOM      3  H4  UNL     1      13.855  52.685 -46.961  1.00  0.00     0.169 HD
HETATM    4  C4  UNL     1      14.257  53.337 -48.914  1.00  0.00     0.126 A 
HETATM    5  N6  UNL     1      13.620  53.088 -50.072  1.00  0.00    -0.268 N 
HETATM    6  N9  UNL     1      12.598  52.296 -49.794  1.00  0.00    -0.279 N 
ATOM      7  H9  UNL     1      11.937  51.945 -50.487  1.00  0.00     0.189 HD
ENDROOT
BRANCH   5   8
HETATM    8  C6  UNL     1      13.946  53.569 -51.401  1.00  0.00     0.253 C 
BRANCH   8   9
HETATM    9  C7  UNL     1      12.767  54.177 -52.064  1.00  0.00     0.239 C 
HETATM   10  O2  UNL     1      11.710  53.498 -52.106  1.00  0.00    -0.271 OA
HETATM   11  N7  UNL     1      12.845  55.481 -52.627  1.00  0.00    -0.347 N 
HETATM   12  C8  UNL     1      11.649  56.026 -53.266  1.00  0.00     0.153 C 
HETATM   13  C11 UNL     1      14.014  56.293 -52.607  1.00  0.00     0.153 C 
HETATM   14  C9  UNL     1      11.427  57.383 -52.593  1.00  0.00     0.252 C 
HETATM   15  N8  UNL     1      12.543  58.219 -53.039  1.00  0.00    -0.072 N 
HETATM   16  C10 UNL     1      13.775  57.756 -52.489  1.00  0.00     0.252 C 
ATOM     17  H82 UNL     1      12.585  58.282 -54.057  1.00  0.00     0.277 HD
ATOM     18  H81 UNL     1      12.384  59.205 -52.831  1.00  0.00     0.277 HD
ENDBRANCH   8   9
ENDBRANCH   5   8
BRANCH   4  19
HETATM   19  C5  UNL     1      15.485  54.196 -48.747  1.00  0.00     0.307 C 
BRANCH  19  20
HETATM   20  N5  UNL     1      16.677  53.389 -48.659  1.00  0.00    -0.073 N 
ATOM     21  H53 UNL     1      16.458  52.393 -48.676  1.00  0.00     0.274 HD
ATOM     22  H52 UNL     1      17.231  53.442 -49.514  1.00  0.00     0.274 HD
ATOM     23  H51 UNL     1      17.230  53.637 -47.838  1.00  0.00     0.274 HD
ENDBRANCH  19  20
ENDBRANCH   4  19
BRANCH   1  24
HETATM   24  C2  UNL     1      11.576  51.183 -47.770  1.00  0.00     0.147 A 
HETATM   25  C1  UNL     1      11.820  50.055 -47.030  1.00  0.00     0.154 A 
HETATM   26  N2  UNL     1      10.626  49.596 -46.552  1.00  0.00    -0.224 N 
HETATM   27  O1  UNL     1       9.707  50.413 -46.986  1.00  0.00    -0.155 OA
ATOM     28  H2  UNL     1      10.481  48.773 -45.967  1.00  0.00     0.198 HD
HETATM   29  N3  UNL     1      10.255  51.370 -47.717  1.00  0.00    -0.234 N 
ATOM     30  H3  UNL     1       9.749  52.131 -48.168  1.00  0.00     0.197 HD
BRANCH  25  31
HETATM   31  N1  UNL     1      12.928  49.463 -46.777  1.00  0.00    -0.382 N 
ATOM     32  H12 UNL     1      13.379  49.276 -45.881  1.00  0.00     0.157 HD
ATOM     33  H11 UNL     1      13.522  49.087 -47.516  1.00  0.00     0.157 HD
ENDBRANCH  25  31
ENDBRANCH   1  24
TORSDOF 6
ENDMDL
MODEL 2
REMARK VINA RESULT: -7.292479506      3.707      5.344
REMARK  6 active torsions:
REMARK  status: ('A' for Active; 'I' for Inactive)
REMARK    1  A    between atoms: N1_1  and  C1_4 
REMARK    2  A    between atoms: C2_10  and  C3_11 
REMARK    3  A    between atoms: C4_14  and  C5_15 
REMARK    4  A    between atoms: C5_15  and  N5_16 
REMARK    5  A    between atoms: N6_20  and  C6_21 
REMARK    6  A    between atoms: C6_21  and  C7_22 
REMARK       I    between atoms: C7_22  and  N7_24 
ROOT
HETATM    1  C3  UNL     1      12.449  50.900 -48.136  1.00  0.00     0.154 A 
HETATM    2  N4  UNL     1      11.960  52.030 -48.702  1.00  0.00    -0.326 N 
ATOM      3  H4  UNL     1      11.289  52.659 -48.261  1.00  0.00     0.169 HD
HETATM    4  C4  UNL     1      12.484  52.204 -49.924  1.00  0.00     0.126 A 
HETATM    5  N6  UNL     1      13.321  51.175 -50.149  1.00  0.00    -0.268 N 
HETATM    6  N9  UNL     1      13.291  50.404 -49.075  1.00  0.00    -0.279 N 
ATOM      7  H9  UNL     1      13.832  49.545 -48.968  1.00  0.00     0.189 HD
ENDROOT
BRANCH   5   8
HETATM    8  C6  UNL     1      14.127  50.910 -51.325  1.00  0.00     0.253 C 
BRANCH   8   9
HETATM    9  C7  UNL     1      13.684  49.679 -52.023  1.00  0.00     0.239 C 
HETATM   10  O2  UNL     1      12.539  49.239 -51.752  1.00  0.00    -0.271 OA
HETATM   11  N7  UNL     1      14.535  49.031 -52.961  1.00  0.00    -0.347 N 
HETATM   12  C8  UNL     1      14.042  47.822 -53.615  1.00  0.00     0.153 C 
HETATM   13  C11 UNL     1      15.840  49.485 -53.304  1.00  0.00     0.153 C 
HETATM   14  C9  UNL     1      14.209  48.089 -55.113  1.00  0.00     0.252 C 
HETATM   15  N8  UNL     1      15.656  48.112 -55.339  1.00  0.00    -0.072 N 
HETATM   16  C10 UNL     1      16.248  49.250 -54.715  1.00  0.00     0.252 C 
ATOM     17  H82 UNL     1      16.099  47.243 -55.039  1.00  0.00     0.277 HD
ATOM     18  H81 UNL     1      15.884  48.066 -56.332  1.00  0.00     0.277 HD
ENDBRANCH   8   9
ENDBRANCH   5   8
BRANCH   4  19
HETATM   19  C5  UNL     1      12.199  53.336 -50.877  1.00  0.00     0.307 C 
BRANCH  19  20
HETATM   20  N5  UNL     1      11.403  52.890 -51.993  1.00  0.00    -0.073 N 
ATOM     21  H53 UNL     1      11.802  52.060 -52.432  1.00  0.00     0.274 HD
ATOM     22  H52 UNL     1      10.515  52.492 -51.686  1.00  0.00     0.274 HD
ATOM     23  H51 UNL     1      11.262  53.640 -52.670  1.00  0.00     0.274 HD
ENDBRANCH  19  20
ENDBRANCH   4  19
BRANCH   1  24
HETATM   24  C2  UNL     1      12.140  50.352 -46.827  1.00  0.00     0.147 A 
HETATM   25  C1  UNL     1      11.016  49.665 -46.451  1.00  0.00     0.154 A 
HETATM   26  N2  UNL     1      11.141  49.335 -45.132  1.00  0.00    -0.224 N 
HETATM   27  O1  UNL     1      12.292  49.805 -44.736  1.00  0.00    -0.155 OA
ATOM     28  H2  UNL     1      10.467  48.821 -44.565  1.00  0.00     0.198 HD
HETATM   29  N3  UNL     1      12.905  50.416 -45.735  1.00  0.00    -0.234 N 
ATOM     30  H3  UNL     1      13.818  50.866 -45.681  1.00  0.00     0.197 HD
BRANCH  25  31
HETATM   31  N1  UNL     1       9.982  49.342 -47.137  1.00  0.00    -0.382 N 
ATOM     32  H12 UNL     1       9.218  49.923 -47.482  1.00  0.00     0.157 HD
ATOM     33  H11 UNL     1       9.807  48.381 -47.432  1.00  0.00     0.157 HD
ENDBRANCH  25  31
ENDBRANCH   1  24
TORSDOF 6
ENDMDL
MODEL 3
REMARK VINA RESULT: -7.275865182      3.717      5.300
REMARK  6 active torsions:
REMARK  status: ('A' for Active; 'I' for Inactive)
REMARK    1  A    between atoms: N1_1  and  C1_4 
REMARK    2  A    between atoms: C2_10  and  C3_11 
REMARK    3  A    between atoms: C4_14  and  C5_15 
REMARK    4  A    between atoms: C5_15  and  N5_16 
REMARK    5  A    between atoms: N6_20  and  C6_21 
REMARK    6  A    between atoms: C6_21  and  C7_22 
REMARK       I    between atoms: C7_22  and  N7_24 
ROOT
HETATM    1  C3  UNL     1      12.285  50.849 -48.461  1.00  0.00     0.154 A 
HETATM    2  N4  UNL     1      11.869  52.013 -49.016  1.00  0.00    -0.326 N 
ATOM      3  H4  UNL     1      11.198  52.654 -48.593  1.00  0.00     0.169 HD
HETATM    4  C4  UNL     1      12.466  52.204 -50.201  1.00  0.00     0.126 A 
HETATM    5  N6  UNL     1      13.277  51.152 -50.413  1.00  0.00    -0.268 N 
HETATM    6  N9  UNL     1      13.160  50.350 -49.368  1.00  0.00    -0.279 N 
ATOM      7  H9  UNL     1      13.663  49.469 -49.259  1.00  0.00     0.189 HD
ENDROOT
BRANCH   5   8
HETATM    8  C6  UNL     1      14.138  50.892 -51.551  1.00  0.00     0.253 C 
BRANCH   8   9
HETATM    9  C7  UNL     1      13.560  49.860 -52.446  1.00  0.00     0.239 C 
HETATM   10  O2  UNL     1      12.308  49.761 -52.485  1.00  0.00    -0.271 OA
HETATM   11  N7  UNL     1      14.405  49.021 -53.225  1.00  0.00    -0.347 N 
HETATM   12  C8  UNL     1      13.776  48.023 -54.087  1.00  0.00     0.153 C 
HETATM   13  C11 UNL     1      15.827  49.090 -53.219  1.00  0.00     0.153 C 
HETATM   14  C9  UNL     1      14.371  48.273 -55.476  1.00  0.00     0.252 C 
HETATM   15  N8  UNL     1      15.779  47.885 -55.365  1.00  0.00    -0.072 N 
HETATM   16  C10 UNL     1      16.487  48.786 -54.517  1.00  0.00     0.252 C 
ATOM     17  H82 UNL     1      15.880  46.918 -55.057  1.00  0.00     0.277 HD
ATOM     18  H81 UNL     1      16.221  47.803 -56.281  1.00  0.00     0.277 HD
ENDBRANCH   8   9
ENDBRANCH   5   8
BRANCH   4  19
HETATM   19  C5  UNL     1      12.276  53.374 -51.132  1.00  0.00     0.307 C 
BRANCH  19  20
HETATM   20  N5  UNL     1      11.473  53.008 -52.272  1.00  0.00    -0.073 N 
ATOM     21  H53 UNL     1      10.886  52.197 -52.073  1.00  0.00     0.274 HD
ATOM     22  H52 UNL     1      10.738  53.693 -52.449  1.00  0.00     0.274 HD
ATOM     23  H51 UNL     1      12.052  52.858 -53.098  1.00  0.00     0.274 HD
ENDBRANCH  19  20
ENDBRANCH   4  19
BRANCH   1  24
HETATM   24  C2  UNL     1      11.884  50.274 -47.189  1.00  0.00     0.147 A 
HETATM   25  C1  UNL     1      12.673  50.019 -46.098  1.00  0.00     0.154 A 
HETATM   26  N2  UNL     1      11.887  49.477 -45.123  1.00  0.00    -0.224 N 
HETATM   27  O1  UNL     1      10.678  49.409 -45.609  1.00  0.00    -0.155 OA
ATOM     28  H2  UNL     1      12.186  49.182 -44.193  1.00  0.00     0.198 HD
HETATM   29  N3  UNL     1      10.656  49.882 -46.844  1.00  0.00    -0.234 N 
ATOM     30  H3  UNL     1       9.829  49.938 -47.439  1.00  0.00     0.197 HD
BRANCH  25  31
HETATM   31  N1  UNL     1      13.928  50.218 -45.928  1.00  0.00    -0.382 N 
ATOM     32  H12 UNL     1      14.522  50.002 -45.127  1.00  0.00     0.157 HD
ATOM     33  H11 UNL     1      14.509  50.653 -46.645  1.00  0.00     0.157 HD
ENDBRANCH  25  31
ENDBRANCH   1  24
TORSDOF 6
ENDMDL
MODEL 4
REMARK VINA RESULT: -7.174555414      3.737      6.804
REMARK  6 active torsions:
REMARK  status: ('A' for Active; 'I' for Inactive)
REMARK    1  A    between atoms: N1_1  and  C1_4 
REMARK    2  A    between atoms: C2_10  and  C3_11 
REMARK    3  A    between atoms: C4_14  and  C5_15 
REMARK    4  A    between atoms: C5_15  and  N5_16 
REMARK    5  A    between atoms: N6_20  and  C6_21 
REMARK    6  A    between atoms: C6_21  and  C7_22 
REMARK       I    between atoms: C7_22  and  N7_24 
ROOT
HETATM    1  C3  UNL     1      12.503  53.205 -51.549  1.00  0.00     0.154 A 
HETATM    2  N4  UNL     1      12.098  53.073 -50.262  1.00  0.00    -0.326 N 
ATOM      3  H4  UNL     1      11.725  53.829 -49.689  1.00  0.00     0.169 HD
HETATM    4  C4  UNL     1      12.259  51.807 -49.851  1.00  0.00     0.126 A 
HETATM    5  N6  UNL     1      12.772  51.114 -50.883  1.00  0.00    -0.268 N 
HETATM    6  N9  UNL     1      12.914  51.959 -51.890  1.00  0.00    -0.279 N 
ATOM      7  H9  UNL     1      13.285  51.705 -52.806  1.00  0.00     0.189 HD
ENDROOT
BRANCH   5   8
HETATM    8  C6  UNL     1      13.123  49.707 -50.938  1.00  0.00     0.253 C 
BRANCH   8   9
HETATM    9  C7  UNL     1      12.901  49.144 -52.292  1.00  0.00     0.239 C 
HETATM   10  O2  UNL     1      11.741  49.221 -52.770  1.00  0.00    -0.271 OA
HETATM   11  N7  UNL     1      13.971  48.542 -53.010  1.00  0.00    -0.347 N 
HETATM   12  C8  UNL     1      13.689  48.005 -54.340  1.00  0.00     0.153 C 
HETATM   13  C11 UNL     1      15.302  48.428 -52.518  1.00  0.00     0.153 C 
HETATM   14  C9  UNL     1      14.727  48.659 -55.256  1.00  0.00     0.252 C 
HETATM   15  N8  UNL     1      16.012  48.087 -54.850  1.00  0.00    -0.072 N 
HETATM   16  C10 UNL     1      16.374  48.529 -53.543  1.00  0.00     0.252 C 
ATOM     17  H82 UNL     1      16.009  47.068 -54.916  1.00  0.00     0.277 HD
ATOM     18  H81 UNL     1      16.745  48.283 -55.531  1.00  0.00     0.277 HD
ENDBRANCH   8   9
ENDBRANCH   5   8
BRANCH   4  19
HETATM   19  C5  UNL     1      11.928  51.250 -48.490  1.00  0.00     0.307 C 
BRANCH  19  20
HETATM   20  N5  UNL     1      10.970  52.082 -47.805  1.00  0.00    -0.073 N 
ATOM     21  H53 UNL     1      10.296  52.491 -48.453  1.00  0.00     0.274 HD
ATOM     22  H52 UNL     1      10.326  51.528 -47.241  1.00  0.00     0.274 HD
ATOM     23  H51 UNL     1      11.436  52.799 -47.247  1.00  0.00     0.274 HD
ENDBRANCH  19  20
ENDBRANCH   4  19
BRANCH   1  24
HETATM   24  C2  UNL     1      12.497  54.404 -52.368  1.00  0.00     0.147 A 
HETATM   25  C1  UNL     1      13.431  55.407 -52.392  1.00  0.00     0.154 A 
HETATM   26  N2  UNL     1      13.029  56.338 -53.307  1.00  0.00    -0.224 N 
HETATM   27  O1  UNL     1      11.904  55.910 -53.810  1.00  0.00    -0.155 OA
ATOM     28  H2  UNL     1      13.515  57.201 -53.551  1.00  0.00     0.198 HD
HETATM   29  N3  UNL     1      11.569  54.754 -53.261  1.00  0.00    -0.234 N 
ATOM     30  H3  UNL     1      10.733  54.215 -53.486  1.00  0.00     0.197 HD
BRANCH  25  31
HETATM   31  N1  UNL     1      14.512  55.538 -51.718  1.00  0.00    -0.382 N 
ATOM     32  H12 UNL     1      14.679  56.024 -50.837  1.00  0.00     0.157 HD
ATOM     33  H11 UNL     1      15.395  55.131 -52.026  1.00  0.00     0.157 HD
ENDBRANCH  25  31
ENDBRANCH   1  24
TORSDOF 6
ENDMDL
MODEL 5
REMARK VINA RESULT: -7.163073094      3.106      4.162
REMARK  6 active torsions:
REMARK  status: ('A' for Active; 'I' for Inactive)
REMARK    1  A    between atoms: N1_1  and  C1_4 
REMARK    2  A    between atoms: C2_10  and  C3_11 
REMARK    3  A    between atoms: C4_14  and  C5_15 
REMARK    4  A    between atoms: C5_15  and  N5_16 
REMARK    5  A    between atoms: N6_20  and  C6_21 
REMARK    6  A    between atoms: C6_21  and  C7_22 
REMARK       I    between atoms: C7_22  and  N7_24 
ROOT
HETATM    1  C3  UNL     1      13.753  50.624 -51.870  1.00  0.00     0.154 A 
HETATM    2  N4  UNL     1      13.782  50.776 -50.524  1.00  0.00    -0.326 N 
ATOM      3  H4  UNL     1      13.771  50.009 -49.851  1.00  0.00     0.169 HD
HETATM    4  C4  UNL     1      13.826  52.076 -50.202  1.00  0.00     0.126 A 
HETATM    5  N6  UNL     1      13.827  52.773 -51.352  1.00  0.00    -0.268 N 
HETATM    6  N9  UNL     1      13.783  51.895 -52.341  1.00  0.00    -0.279 N 
ATOM      7  H9  UNL     1      13.772  52.143 -53.331  1.00  0.00     0.189 HD
ENDROOT
BRANCH   5   8
HETATM    8  C6  UNL     1      13.867  54.211 -51.536  1.00  0.00     0.253 C 
BRANCH   8   9
HETATM    9  C7  UNL     1      12.677  54.699 -52.274  1.00  0.00     0.239 C 
HETATM   10  O2  UNL     1      11.707  53.910 -52.397  1.00  0.00    -0.271 OA
HETATM   11  N7  UNL     1      12.651  56.013 -52.819  1.00  0.00    -0.347 N 
HETATM   12  C8  UNL     1      11.450  56.435 -53.535  1.00  0.00     0.153 C 
HETATM   13  C11 UNL     1      13.721  56.946 -52.710  1.00  0.00     0.153 C 
HETATM   14  C9  UNL     1      11.035  57.749 -52.868  1.00  0.00     0.252 C 
HETATM   15  N8  UNL     1      12.082  58.709 -53.227  1.00  0.00    -0.072 N 
HETATM   16  C10 UNL     1      13.315  58.372 -52.595  1.00  0.00     0.252 C 
ATOM     17  H82 UNL     1      12.186  58.792 -54.238  1.00  0.00     0.277 HD
ATOM     18  H81 UNL     1      11.802  59.668 -53.021  1.00  0.00     0.277 HD
ENDBRANCH   8   9
ENDBRANCH   5   8
BRANCH   4  19
HETATM   19  C5  UNL     1      13.869  52.663 -48.814  1.00  0.00     0.307 C 
BRANCH  19  20
HETATM   20  N5  UNL     1      12.688  52.313 -48.063  1.00  0.00    -0.073 N 
ATOM     21  H53 UNL     1      12.700  51.333 -47.781  1.00  0.00     0.274 HD
ATOM     22  H52 UNL     1      12.691  52.742 -47.138  1.00  0.00     0.274 HD
ATOM     23  H51 UNL     1      11.840  52.544 -48.581  1.00  0.00     0.274 HD
ENDBRANCH  19  20
ENDBRANCH   4  19
BRANCH   1  24
HETATM   24  C2  UNL     1      13.702  49.387 -52.628  1.00  0.00     0.147 A 
HETATM   25  C1  UNL     1      14.518  49.002 -53.660  1.00  0.00     0.154 A 
HETATM   26  N2  UNL     1      14.116  47.766 -54.080  1.00  0.00    -0.224 N 
HETATM   27  O1  UNL     1      13.104  47.426 -53.332  1.00  0.00    -0.155 OA
ATOM     28  H2  UNL     1      14.528  47.216 -54.834  1.00  0.00     0.198 HD
HETATM   29  N3  UNL     1      12.841  48.382 -52.456  1.00  0.00    -0.234 N 
ATOM     30  H3  UNL     1      12.097  48.355 -51.759  1.00  0.00     0.197 HD
BRANCH  25  31
HETATM   31  N1  UNL     1      15.502  49.618 -54.203  1.00  0.00    -0.382 N 
ATOM     32  H12 UNL     1      15.519  50.237 -55.014  1.00  0.00     0.157 HD
ATOM     33  H11 UNL     1      16.453  49.543 -53.843  1.00  0.00     0.157 HD
ENDBRANCH  25  31
ENDBRANCH   1  24
TORSDOF 6
ENDMDL
