MODEL 1
REMARK VINA RESULT: -7.416062985      0.000      0.000
REMARK  3 active torsions:
REMARK  status: ('A' for Active; 'I' for Inactive)
REMARK    1  A    between atoms: C2_2  and  C3_3 
REMARK    2  A    between atoms: C11_13  and  O3_14 
REMARK    3  A    between atoms: C16_21  and  C17_22 
ROOT
HETATM    1  C3  UNL     1      20.453  27.675  20.514  1.00  0.00     0.019 C 
HETATM    2  C4  UNL     1      19.475  28.857  20.546  1.00  0.00     0.019 C 
HETATM    3  C5  UNL     1      20.397  29.997  20.167  1.00  0.00    -0.036 C 
HETATM    4  C6  UNL     1      20.863  30.645  21.434  1.00  0.00     0.015 C 
HETATM    5  C7  UNL     1      19.704  31.008  19.284  1.00  0.00     0.045 C 
HETATM    6  C8  UNL     1      20.754  31.418  18.256  1.00  0.00     0.165 C 
HETATM    7  O1  UNL     1      21.499  32.486  18.661  1.00  0.00    -0.234 OA
HETATM    8  O2  UNL     1      22.138  32.965  17.613  1.00  0.00    -0.222 OA
HETATM    9  C9  UNL     1      23.488  32.688  17.809  1.00  0.00     0.167 C 
HETATM   10  C10 UNL     1      24.396  33.394  16.822  1.00  0.00     0.057 C 
HETATM   11  C11 UNL     1      23.952  32.808  19.243  1.00  0.00     0.297 C 
HETATM   12  O4  UNL     1      23.764  31.431  19.363  1.00  0.00    -0.350 OA
HETATM   13  C12 UNL     1      23.776  31.243  17.995  1.00  0.00     0.167 C 
HETATM   14  C13 UNL     1      22.830  30.298  17.397  1.00  0.00     0.043 C 
HETATM   15  C14 UNL     1      21.500  30.152  18.040  1.00  0.00     0.026 C 
HETATM   16  C15 UNL     1      21.506  29.413  19.341  1.00  0.00     0.012 C 
HETATM   17  C16 UNL     1      21.094  27.948  19.152  1.00  0.00     0.060 C 
ENDROOT
BRANCH   1  18
HETATM   18  C2  UNL     1      19.755  26.380  20.540  1.00  0.00    -0.031 C 
HETATM   19  C1  UNL     1      18.753  26.159  19.715  1.00  0.00     0.007 C 
ENDBRANCH   1  18
BRANCH  17  20
HETATM   20  C17 UNL     1      22.257  27.081  18.909  1.00  0.00     0.236 C 
HETATM   21  O5  UNL     1      23.287  27.203  19.540  1.00  0.00    -0.306 OA
ENDBRANCH  17  20
BRANCH  11  22
HETATM   22  O3  UNL     1      23.150  33.575  20.069  1.00  0.00    -0.368 OA
ATOM     23  H3  UNL     1      23.196  33.368  20.995  1.00  0.00     0.212 HD
ENDBRANCH  11  22
TORSDOF 3
ENDMDL
MODEL 2
REMARK VINA RESULT: -7.260529495      1.220      1.272
REMARK  3 active torsions:
REMARK  status: ('A' for Active; 'I' for Inactive)
REMARK    1  A    between atoms: C2_2  and  C3_3 
REMARK    2  A    between atoms: C11_13  and  O3_14 
REMARK    3  A    between atoms: C16_21  and  C17_22 
ROOT
HETATM    1  C3  UNL     1      20.539  28.342  20.046  1.00  0.00     0.019 C 
HETATM    2  C4  UNL     1      19.973  29.734  20.359  1.00  0.00     0.019 C 
HETATM    3  C5  UNL     1      21.122  30.613  19.912  1.00  0.00    -0.036 C 
HETATM    4  C6  UNL     1      21.948  30.929  21.121  1.00  0.00     0.015 C 
HETATM    5  C7  UNL     1      20.633  31.887  19.262  1.00  0.00     0.045 C 
HETATM    6  C8  UNL     1      21.587  32.124  18.096  1.00  0.00     0.165 C 
HETATM    7  O1  UNL     1      22.668  32.879  18.444  1.00  0.00    -0.234 OA
HETATM    8  O2  UNL     1      23.252  33.298  17.339  1.00  0.00    -0.222 OA
HETATM    9  C9  UNL     1      24.472  32.633  17.255  1.00  0.00     0.167 C 
HETATM   10  C10 UNL     1      25.385  33.187  16.181  1.00  0.00     0.057 C 
HETATM   11  C11 UNL     1      25.165  32.426  18.584  1.00  0.00     0.297 C 
HETATM   12  O4  UNL     1      24.598  31.152  18.619  1.00  0.00    -0.350 OA
HETATM   13  C12 UNL     1      24.343  31.154  17.262  1.00  0.00     0.167 C 
HETATM   14  C13 UNL     1      23.079  30.599  16.774  1.00  0.00     0.043 C 
HETATM   15  C14 UNL     1      21.881  30.742  17.638  1.00  0.00     0.026 C 
HETATM   16  C15 UNL     1      21.867  29.862  18.848  1.00  0.00     0.012 C 
HETATM   17  C16 UNL     1      21.015  28.608  18.616  1.00  0.00     0.060 C 
ENDROOT
BRANCH   1  18
HETATM   18  C2  UNL     1      19.501  27.301  20.092  1.00  0.00    -0.031 C 
HETATM   19  C1  UNL     1      19.735  26.168  20.721  1.00  0.00     0.007 C 
ENDBRANCH   1  18
BRANCH  17  20
HETATM   20  C17 UNL     1      21.816  27.494  18.088  1.00  0.00     0.236 C 
HETATM   21  O5  UNL     1      21.397  26.764  17.212  1.00  0.00    -0.306 OA
ENDBRANCH  17  20
BRANCH  11  22
HETATM   22  O3  UNL     1      24.764  33.266  19.606  1.00  0.00    -0.368 OA
ATOM     23  H3  UNL     1      23.964  33.017  20.054  1.00  0.00     0.212 HD
ENDBRANCH  11  22
TORSDOF 3
ENDMDL
MODEL 3
REMARK VINA RESULT: -6.898172326      2.796      5.368
REMARK  3 active torsions:
REMARK  status: ('A' for Active; 'I' for Inactive)
REMARK    1  A    between atoms: C2_2  and  C3_3 
REMARK    2  A    between atoms: C11_13  and  O3_14 
REMARK    3  A    between atoms: C16_21  and  C17_22 
ROOT
HETATM    1  C3  UNL     1      19.572  34.425  19.548  1.00  0.00     0.019 C 
HETATM    2  C4  UNL     1      20.151  33.433  20.565  1.00  0.00     0.019 C 
HETATM    3  C5  UNL     1      20.714  32.375  19.639  1.00  0.00    -0.036 C 
HETATM    4  C6  UNL     1      19.689  31.292  19.510  1.00  0.00     0.015 C 
HETATM    5  C7  UNL     1      22.015  31.809  20.160  1.00  0.00     0.045 C 
HETATM    6  C8  UNL     1      22.890  31.632  18.924  1.00  0.00     0.165 C 
HETATM    7  O1  UNL     1      22.746  30.405  18.347  1.00  0.00    -0.234 OA
HETATM    8  O2  UNL     1      23.746  30.222  17.509  1.00  0.00    -0.222 OA
HETATM    9  C9  UNL     1      23.202  30.246  16.227  1.00  0.00     0.167 C 
HETATM   10  C10 UNL     1      24.172  29.797  15.154  1.00  0.00     0.057 C 
HETATM   11  C11 UNL     1      21.839  29.601  16.113  1.00  0.00     0.297 C 
HETATM   12  O4  UNL     1      21.285  30.873  16.254  1.00  0.00    -0.350 OA
HETATM   13  C12 UNL     1      22.468  31.500  15.918  1.00  0.00     0.167 C 
HETATM   14  C13 UNL     1      22.872  32.701  16.653  1.00  0.00     0.043 C 
HETATM   15  C14 UNL     1      22.497  32.793  18.085  1.00  0.00     0.026 C 
HETATM   16  C15 UNL     1      21.046  33.054  18.342  1.00  0.00     0.012 C 
HETATM   17  C16 UNL     1      20.788  34.539  18.625  1.00  0.00     0.060 C 
ENDROOT
BRANCH   1  18
HETATM   18  C2  UNL     1      19.234  35.716  20.167  1.00  0.00    -0.031 C 
HETATM   19  C1  UNL     1      20.192  36.495  20.625  1.00  0.00     0.007 C 
ENDBRANCH   1  18
BRANCH  17  20
HETATM   20  C17 UNL     1      20.476  35.283  17.395  1.00  0.00     0.236 C 
HETATM   21  O5  UNL     1      20.033  34.729  16.409  1.00  0.00    -0.306 OA
ENDBRANCH  17  20
BRANCH  11  22
HETATM   22  O3  UNL     1      21.511  28.713  17.120  1.00  0.00    -0.368 OA
ATOM     23  H3  UNL     1      20.587  28.508  17.204  1.00  0.00     0.212 HD
ENDBRANCH  11  22
TORSDOF 3
ENDMDL
MODEL 4
REMARK VINA RESULT: -6.806007363      1.944      3.551
REMARK  3 active torsions:
REMARK  status: ('A' for Active; 'I' for Inactive)
REMARK    1  A    between atoms: C2_2  and  C3_3 
REMARK    2  A    between atoms: C11_13  and  O3_14 
REMARK    3  A    between atoms: C16_21  and  C17_22 
ROOT
HETATM    1  C3  UNL     1      21.596  28.426  18.108  1.00  0.00     0.019 C 
HETATM    2  C4  UNL     1      22.293  28.516  16.743  1.00  0.00     0.019 C 
HETATM    3  C5  UNL     1      22.262  30.011  16.508  1.00  0.00    -0.036 C 
HETATM    4  C6  UNL     1      21.065  30.313  15.661  1.00  0.00     0.015 C 
HETATM    5  C7  UNL     1      23.522  30.498  15.832  1.00  0.00     0.045 C 
HETATM    6  C8  UNL     1      23.839  31.831  16.503  1.00  0.00     0.165 C 
HETATM    7  O1  UNL     1      23.256  32.891  15.874  1.00  0.00    -0.234 OA
HETATM    8  O2  UNL     1      23.829  33.995  16.307  1.00  0.00    -0.222 OA
HETATM    9  C9  UNL     1      22.876  34.666  17.069  1.00  0.00     0.167 C 
HETATM   10  C10 UNL     1      23.284  36.079  17.432  1.00  0.00     0.057 C 
HETATM   11  C11 UNL     1      21.464  34.567  16.536  1.00  0.00     0.297 C 
HETATM   12  O4  UNL     1      21.263  33.506  17.419  1.00  0.00    -0.350 OA
HETATM   13  C12 UNL     1      22.346  33.862  18.198  1.00  0.00     0.167 C 
HETATM   14  C13 UNL     1      23.218  32.811  18.729  1.00  0.00     0.043 C 
HETATM   15  C14 UNL     1      23.410  31.592  17.905  1.00  0.00     0.026 C 
HETATM   16  C15 UNL     1      22.232  30.670  17.856  1.00  0.00     0.012 C 
HETATM   17  C16 UNL     1      22.395  29.506  18.841  1.00  0.00     0.060 C 
ENDROOT
BRANCH   1  18
HETATM   18  C2  UNL     1      21.768  27.103  18.729  1.00  0.00    -0.031 C 
HETATM   19  C1  UNL     1      20.722  26.462  19.207  1.00  0.00     0.007 C 
ENDBRANCH   1  18
BRANCH  17  20
HETATM   20  C17 UNL     1      21.815  29.819  20.157  1.00  0.00     0.236 C 
HETATM   21  O5  UNL     1      20.643  30.108  20.285  1.00  0.00    -0.306 OA
ENDBRANCH  17  20
BRANCH  11  22
HETATM   22  O3  UNL     1      21.351  34.236  15.198  1.00  0.00    -0.368 OA
ATOM     23  H3  UNL     1      21.437  33.312  14.994  1.00  0.00     0.212 HD
ENDBRANCH  11  22
TORSDOF 3
ENDMDL
MODEL 5
REMARK VINA RESULT: -6.788533883      2.128      4.577
REMARK  3 active torsions:
REMARK  status: ('A' for Active; 'I' for Inactive)
REMARK    1  A    between atoms: C2_2  and  C3_3 
REMARK    2  A    between atoms: C11_13  and  O3_14 
REMARK    3  A    between atoms: C16_21  and  C17_22 
ROOT
HETATM    1  C3  UNL     1      22.599  29.164  15.069  1.00  0.00     0.019 C 
HETATM    2  C4  UNL     1      23.419  30.414  15.417  1.00  0.00     0.019 C 
HETATM    3  C5  UNL     1      22.629  30.952  16.592  1.00  0.00    -0.036 C 
HETATM    4  C6  UNL     1      21.691  31.994  16.069  1.00  0.00     0.015 C 
HETATM    5  C7  UNL     1      23.532  31.541  17.652  1.00  0.00     0.045 C 
HETATM    6  C8  UNL     1      22.907  31.120  18.978  1.00  0.00     0.165 C 
HETATM    7  O1  UNL     1      21.999  32.024  19.444  1.00  0.00    -0.234 OA
HETATM    8  O2  UNL     1      21.759  31.753  20.711  1.00  0.00    -0.222 OA
HETATM    9  C9  UNL     1      20.452  31.278  20.777  1.00  0.00     0.167 C 
HETATM   10  C10 UNL     1      19.927  31.161  22.193  1.00  0.00     0.057 C 
HETATM   11  C11 UNL     1      19.488  31.962  19.833  1.00  0.00     0.297 C 
HETATM   12  O4  UNL     1      19.707  30.916  18.937  1.00  0.00    -0.350 OA
HETATM   13  C12 UNL     1      20.210  30.089  19.922  1.00  0.00     0.167 C 
HETATM   14  C13 UNL     1      21.368  29.244  19.621  1.00  0.00     0.043 C 
HETATM   15  C14 UNL     1      22.376  29.768  18.666  1.00  0.00     0.026 C 
HETATM   16  C15 UNL     1      21.941  29.783  17.234  1.00  0.00     0.012 C 
HETATM   17  C16 UNL     1      22.487  28.568  16.473  1.00  0.00     0.060 C 
ENDROOT
BRANCH   1  18
HETATM   18  C2  UNL     1      23.321  28.269  14.151  1.00  0.00    -0.031 C 
HETATM   19  C1  UNL     1      22.655  27.573  13.253  1.00  0.00     0.007 C 
ENDBRANCH   1  18
BRANCH  17  20
HETATM   20  C17 UNL     1      21.552  27.433  16.515  1.00  0.00     0.236 C 
HETATM   21  O5  UNL     1      21.667  26.541  17.332  1.00  0.00    -0.306 OA
ENDBRANCH  17  20
BRANCH  11  22
HETATM   22  O3  UNL     1      19.880  33.207  19.375  1.00  0.00    -0.368 OA
ATOM     23  H3  UNL     1      20.354  33.744  19.999  1.00  0.00     0.212 HD
ENDBRANCH  11  22
TORSDOF 3
ENDMDL
