MODEL 1
REMARK VINA RESULT: -6.442573526      0.000      0.000
REMARK  2 active torsions:
REMARK  status: ('A' for Active; 'I' for Inactive)
REMARK    1  A    between atoms: S1_2  and  C2_3 
REMARK       I    between atoms: N3_10  and  C5_12 
REMARK    2  A    between atoms: C5_12  and  C6_14 
ROOT
HETATM    1  C2  UNL     1      25.017  33.402  16.461  1.00  0.00     0.160 A 
HETATM    2  N1  UNL     1      23.968  34.237  16.534  1.00  0.00    -0.332 N 
ATOM      3  H1  UNL     1      24.084  35.219  16.280  1.00  0.00     0.168 HD
HETATM    4  C3  UNL     1      22.769  33.791  16.937  1.00  0.00     0.200 A 
HETATM    5  N2  UNL     1      22.639  32.487  17.267  1.00  0.00    -0.187 N 
ATOM      6  H2  UNL     1      21.729  32.144  17.574  1.00  0.00     0.185 HD
HETATM    7  C4  UNL     1      23.672  31.628  17.204  1.00  0.00     0.687 A 
HETATM    8  N3  UNL     1      23.579  30.375  17.514  1.00  0.00    -0.158 N 
ATOM      9  H3  UNL     1      24.408  29.786  17.440  1.00  0.00     0.187 HD
HETATM   10  C5  UNL     1      22.358  29.793  17.952  1.00  0.00     0.252 C 
HETATM   11  O1  UNL     1      21.439  29.679  17.086  1.00  0.00    -0.271 OA
HETATM   12  N4  UNL     1      24.857  32.117  16.795  1.00  0.00    -0.170 N 
ATOM     13  H4  UNL     1      25.658  31.487  16.737  1.00  0.00     0.186 HD
ENDROOT
BRANCH  10  14
HETATM   14  C6  UNL     1      22.168  29.341  19.358  1.00  0.00     0.110 C 
HETATM   15  C7  UNL     1      22.370  27.830  19.353  1.00  0.00     0.035 C 
HETATM   16  C8  UNL     1      20.838  29.647  19.864  1.00  0.00     0.048 C 
HETATM   17  C9  UNL     1      20.769  30.956  20.562  1.00  0.00     0.010 C 
HETATM   18  C10 UNL     1      20.227  32.049  19.664  1.00  0.00     0.027 C 
HETATM   19  C11 UNL     1      19.960  30.940  21.824  1.00  0.00     0.027 C 
HETATM   20  S2  UNL     1      22.504  31.312  21.035  1.00  0.00    -0.082 SA
HETATM   21  C12 UNL     1      23.230  29.927  20.179  1.00  0.00     0.204 C 
HETATM   22  O2  UNL     1      24.384  29.573  20.287  1.00  0.00    -0.284 OA
ENDBRANCH  10  14
BRANCH   1  23
HETATM   23  S1  UNL     1      26.579  34.067  15.918  1.00  0.00    -0.098 SA
HETATM   24  C1  UNL     1      27.925  33.515  16.969  1.00  0.00     0.099 C 
ENDBRANCH   1  23
TORSDOF 2
ENDMDL
MODEL 2
REMARK VINA RESULT: -6.346720910      2.982      4.386
REMARK  2 active torsions:
REMARK  status: ('A' for Active; 'I' for Inactive)
REMARK    1  A    between atoms: S1_2  and  C2_3 
REMARK       I    between atoms: N3_10  and  C5_12 
REMARK    2  A    between atoms: C5_12  and  C6_14 
ROOT
HETATM    1  C2  UNL     1      24.473  33.021  21.107  1.00  0.00     0.160 A 
HETATM    2  N1  UNL     1      25.382  32.986  20.119  1.00  0.00    -0.332 N 
ATOM      3  H1  UNL     1      26.063  33.741  20.032  1.00  0.00     0.168 HD
HETATM    4  C3  UNL     1      25.402  31.966  19.248  1.00  0.00     0.200 A 
HETATM    5  N2  UNL     1      24.492  30.977  19.385  1.00  0.00    -0.187 N 
ATOM      6  H2  UNL     1      24.504  30.200  18.725  1.00  0.00     0.185 HD
HETATM    7  C4  UNL     1      23.570  30.986  20.365  1.00  0.00     0.687 A 
HETATM    8  N3  UNL     1      22.686  30.054  20.521  1.00  0.00    -0.158 N 
ATOM      9  H3  UNL     1      22.019  30.131  21.289  1.00  0.00     0.187 HD
HETATM   10  C5  UNL     1      22.615  28.926  19.659  1.00  0.00     0.252 C 
HETATM   11  O1  UNL     1      23.560  28.086  19.742  1.00  0.00    -0.271 OA
HETATM   12  N4  UNL     1      23.585  32.027  21.217  1.00  0.00    -0.170 N 
ATOM     13  H4  UNL     1      22.897  32.059  21.970  1.00  0.00     0.186 HD
ENDROOT
BRANCH  10  14
HETATM   14  C6  UNL     1      21.486  28.743  18.704  1.00  0.00     0.110 C 
HETATM   15  C7  UNL     1      20.663  27.573  19.235  1.00  0.00     0.035 C 
HETATM   16  C8  UNL     1      21.945  28.437  17.357  1.00  0.00     0.048 C 
HETATM   17  C9  UNL     1      22.106  29.645  16.510  1.00  0.00     0.010 C 
HETATM   18  C10 UNL     1      23.549  30.106  16.450  1.00  0.00     0.027 C 
HETATM   19  C11 UNL     1      21.604  29.487  15.107  1.00  0.00     0.027 C 
HETATM   20  S2  UNL     1      21.059  30.913  17.321  1.00  0.00    -0.082 SA
HETATM   21  C12 UNL     1      20.641  29.937  18.753  1.00  0.00     0.204 C 
HETATM   22  O2  UNL     1      19.810  30.241  19.580  1.00  0.00    -0.284 OA
ENDBRANCH  10  14
BRANCH   1  23
HETATM   23  S1  UNL     1      24.507  34.408  22.226  1.00  0.00    -0.098 SA
HETATM   24  C1  UNL     1      24.244  33.885  23.923  1.00  0.00     0.099 C 
ENDBRANCH   1  23
TORSDOF 2
ENDMDL
MODEL 3
REMARK VINA RESULT: -6.053322363      2.646      6.039
REMARK  2 active torsions:
REMARK  status: ('A' for Active; 'I' for Inactive)
REMARK    1  A    between atoms: S1_2  and  C2_3 
REMARK       I    between atoms: N3_10  and  C5_12 
REMARK    2  A    between atoms: C5_12  and  C6_14 
ROOT
HETATM    1  C2  UNL     1      20.179  28.364  19.812  1.00  0.00     0.160 A 
HETATM    2  N1  UNL     1      19.861  29.419  20.579  1.00  0.00    -0.332 N 
ATOM      3  H1  UNL     1      19.091  29.347  21.244  1.00  0.00     0.168 HD
HETATM    4  C3  UNL     1      20.549  30.566  20.478  1.00  0.00     0.200 A 
HETATM    5  N2  UNL     1      21.566  30.638  19.592  1.00  0.00    -0.187 N 
ATOM      6  H2  UNL     1      22.092  31.509  19.512  1.00  0.00     0.185 HD
HETATM    7  C4  UNL     1      21.907  29.597  18.811  1.00  0.00     0.687 A 
HETATM    8  N3  UNL     1      22.875  29.635  17.953  1.00  0.00    -0.158 N 
ATOM      9  H3  UNL     1      23.074  28.804  17.396  1.00  0.00     0.187 HD
HETATM   10  C5  UNL     1      23.672  30.797  17.762  1.00  0.00     0.252 C 
HETATM   11  O1  UNL     1      24.456  31.110  18.707  1.00  0.00    -0.271 OA
HETATM   12  N4  UNL     1      21.192  28.465  18.943  1.00  0.00    -0.170 N 
ATOM     13  H4  UNL     1      21.428  27.660  18.364  1.00  0.00     0.186 HD
ENDROOT
BRANCH  10  14
HETATM   14  C6  UNL     1      23.587  31.606  16.514  1.00  0.00     0.110 C 
HETATM   15  C7  UNL     1      24.211  30.758  15.411  1.00  0.00     0.035 C 
HETATM   16  C8  UNL     1      24.310  32.865  16.621  1.00  0.00     0.048 C 
HETATM   17  C9  UNL     1      23.456  33.988  17.083  1.00  0.00     0.010 C 
HETATM   18  C10 UNL     1      23.616  34.248  18.567  1.00  0.00     0.027 C 
HETATM   19  C11 UNL     1      23.683  35.277  16.352  1.00  0.00     0.027 C 
HETATM   20  S2  UNL     1      21.746  33.444  16.706  1.00  0.00    -0.082 SA
HETATM   21  C12 UNL     1      22.174  31.796  16.181  1.00  0.00     0.204 C 
HETATM   22  O2  UNL     1      21.411  31.017  15.653  1.00  0.00    -0.284 OA
ENDBRANCH  10  14
BRANCH   1  23
HETATM   23  S1  UNL     1      19.221  26.873  20.001  1.00  0.00    -0.098 SA
HETATM   24  C1  UNL     1      20.207  25.414  19.653  1.00  0.00     0.099 C 
ENDBRANCH   1  23
TORSDOF 2
ENDMDL
MODEL 4
REMARK VINA RESULT: -5.998764028      2.729      5.905
REMARK  2 active torsions:
REMARK  status: ('A' for Active; 'I' for Inactive)
REMARK    1  A    between atoms: S1_2  and  C2_3 
REMARK       I    between atoms: N3_10  and  C5_12 
REMARK    2  A    between atoms: C5_12  and  C6_14 
ROOT
HETATM    1  C2  UNL     1      20.946  28.069  19.915  1.00  0.00     0.160 A 
HETATM    2  N1  UNL     1      20.003  28.973  20.224  1.00  0.00    -0.332 N 
ATOM      3  H1  UNL     1      19.066  28.660  20.477  1.00  0.00     0.168 HD
HETATM    4  C3  UNL     1      20.284  30.285  20.203  1.00  0.00     0.200 A 
HETATM    5  N2  UNL     1      21.533  30.676  19.866  1.00  0.00    -0.187 N 
ATOM      6  H2  UNL     1      21.751  31.672  19.849  1.00  0.00     0.185 HD
HETATM    7  C4  UNL     1      22.497  29.792  19.552  1.00  0.00     0.687 A 
HETATM    8  N3  UNL     1      23.702  30.136  19.226  1.00  0.00    -0.158 N 
ATOM      9  H3  UNL     1      24.379  29.407  19.001  1.00  0.00     0.187 HD
HETATM   10  C5  UNL     1      24.112  31.495  19.171  1.00  0.00     0.252 C 
HETATM   11  O1  UNL     1      24.205  32.106  20.278  1.00  0.00    -0.271 OA
HETATM   12  N4  UNL     1      22.174  28.486  19.586  1.00  0.00    -0.170 N 
ATOM     13  H4  UNL     1      22.886  27.794  19.353  1.00  0.00     0.186 HD
ENDROOT
BRANCH  10  14
HETATM   14  C6  UNL     1      24.416  32.169  17.878  1.00  0.00     0.110 C 
HETATM   15  C7  UNL     1      25.932  32.127  17.720  1.00  0.00     0.035 C 
HETATM   16  C8  UNL     1      23.968  33.554  17.857  1.00  0.00     0.048 C 
HETATM   17  C9  UNL     1      22.599  33.713  17.305  1.00  0.00     0.010 C 
HETATM   18  C10 UNL     1      21.557  33.827  18.399  1.00  0.00     0.027 C 
HETATM   19  C11 UNL     1      22.438  34.880  16.379  1.00  0.00     0.027 C 
HETATM   20  S2  UNL     1      22.327  32.193  16.315  1.00  0.00    -0.082 SA
HETATM   21  C12 UNL     1      23.835  31.373  16.795  1.00  0.00     0.204 C 
HETATM   22  O2  UNL     1      24.261  30.356  16.294  1.00  0.00    -0.284 OA
ENDBRANCH  10  14
BRANCH   1  23
HETATM   23  S1  UNL     1      20.500  26.344  19.965  1.00  0.00    -0.098 SA
HETATM   24  C1  UNL     1      18.748  26.113  19.648  1.00  0.00     0.099 C 
ENDBRANCH   1  23
TORSDOF 2
ENDMDL
MODEL 5
REMARK VINA RESULT: -5.992329513      2.947      4.307
REMARK  2 active torsions:
REMARK  status: ('A' for Active; 'I' for Inactive)
REMARK    1  A    between atoms: S1_2  and  C2_3 
REMARK       I    between atoms: N3_10  and  C5_12 
REMARK    2  A    between atoms: C5_12  and  C6_14 
ROOT
HETATM    1  C2  UNL     1      22.467  29.043  15.751  1.00  0.00     0.160 A 
HETATM    2  N1  UNL     1      21.851  28.038  16.394  1.00  0.00    -0.332 N 
ATOM      3  H1  UNL     1      21.374  27.312  15.860  1.00  0.00     0.168 HD
HETATM    4  C3  UNL     1      21.859  27.982  17.735  1.00  0.00     0.200 A 
HETATM    5  N2  UNL     1      22.498  28.954  18.422  1.00  0.00    -0.187 N 
ATOM      6  H2  UNL     1      22.506  28.915  19.441  1.00  0.00     0.185 HD
HETATM    7  C4  UNL     1      23.124  29.972  17.804  1.00  0.00     0.687 A 
HETATM    8  N3  UNL     1      23.744  30.917  18.434  1.00  0.00    -0.158 N 
ATOM      9  H3  UNL     1      24.195  31.656  17.894  1.00  0.00     0.187 HD
HETATM   10  C5  UNL     1      23.818  30.959  19.853  1.00  0.00     0.252 C 
HETATM   11  O1  UNL     1      24.534  30.074  20.411  1.00  0.00    -0.271 OA
HETATM   12  N4  UNL     1      23.092  29.990  16.459  1.00  0.00    -0.170 N 
ATOM     13  H4  UNL     1      23.559  30.751  15.963  1.00  0.00     0.186 HD
ENDROOT
BRANCH  10  14
HETATM   14  C6  UNL     1      23.088  31.989  20.643  1.00  0.00     0.110 C 
HETATM   15  C7  UNL     1      24.145  32.739  21.446  1.00  0.00     0.035 C 
HETATM   16  C8  UNL     1      22.117  31.402  21.555  1.00  0.00     0.048 C 
HETATM   17  C9  UNL     1      20.760  31.288  20.964  1.00  0.00     0.010 C 
HETATM   18  C10 UNL     1      20.488  29.894  20.436  1.00  0.00     0.027 C 
HETATM   19  C11 UNL     1      19.647  31.664  21.895  1.00  0.00     0.027 C 
HETATM   20  S2  UNL     1      20.756  32.506  19.593  1.00  0.00    -0.082 SA
HETATM   21  C12 UNL     1      22.481  32.941  19.712  1.00  0.00     0.204 C 
HETATM   22  O2  UNL     1      23.006  33.858  19.119  1.00  0.00    -0.284 OA
ENDBRANCH  10  14
BRANCH   1  23
HETATM   23  S1  UNL     1      22.415  29.051  13.969  1.00  0.00    -0.098 SA
HETATM   24  C1  UNL     1      23.034  27.510  13.290  1.00  0.00     0.099 C 
ENDBRANCH   1  23
TORSDOF 2
ENDMDL
