MODEL 1
REMARK VINA RESULT: -5.253418162      0.000      0.000
REMARK  8 active torsions:
REMARK  status: ('A' for Active; 'I' for Inactive)
REMARK    1  A    between atoms: C2_2  and  C3_3 
REMARK    2  A    between atoms: C3_3  and  C4_4 
REMARK    3  A    between atoms: C4_4  and  C5_5 
REMARK    4  A    between atoms: C5_5  and  O1_6 
REMARK    5  A    between atoms: C5_5  and  C6_8 
REMARK    6  A    between atoms: C6_8  and  C7_9 
REMARK    7  A    between atoms: C7_9  and  N1_10 
REMARK    8  A    between atoms: N1_10  and  C8_12 
ROOT
HETATM    1  C6  UNL     1      66.800  12.062  27.843  1.00  0.00     0.051 C 
ENDROOT
BRANCH   1   2
HETATM    2  C5  UNL     1      67.356  10.798  27.132  1.00  0.00     0.120 C 
BRANCH   2   3
HETATM    3  C4  UNL     1      67.941  11.344  25.866  1.00  0.00     0.035 C 
BRANCH   3   4
HETATM    4  C3  UNL     1      67.048  11.992  24.902  1.00  0.00     0.029 C 
BRANCH   4   5
HETATM    5  C2  UNL     1      67.715  12.673  23.791  1.00  0.00    -0.037 C 
HETATM    6  C1  UNL     1      67.137  12.914  22.632  1.00  0.00     0.007 C 
ENDBRANCH   4   5
ENDBRANCH   3   4
ENDBRANCH   2   3
BRANCH   2   7
HETATM    7  O1  UNL     1      68.141  10.084  27.974  1.00  0.00    -0.396 OA
ATOM      8  H1  UNL     1      68.335   9.176  27.772  1.00  0.00     0.210 HD
ENDBRANCH   2   7
ENDBRANCH   1   2
BRANCH   1   9
HETATM    9  C7  UNL     1      65.312  11.935  28.084  1.00  0.00     0.116 C 
BRANCH   9  10
HETATM   10  N1  UNL     1      64.893  10.679  27.573  1.00  0.00    -0.417 N 
ATOM     11  H1  UNL     1      65.468   9.843  27.681  1.00  0.00     0.153 HD
BRANCH  10  12
HETATM   12  C8  UNL     1      63.640  10.630  26.904  1.00  0.00     0.076 C 
HETATM   13  C9  UNL     1      63.464  11.755  25.920  1.00  0.00     0.024 C 
HETATM   14  C10 UNL     1      63.917  10.795  24.825  1.00  0.00     0.004 C 
HETATM   15  C11 UNL     1      63.612   9.653  25.758  1.00  0.00     0.024 C 
ENDBRANCH  10  12
ENDBRANCH   9  10
ENDBRANCH   1   9
TORSDOF 8
ENDMDL
MODEL 2
REMARK VINA RESULT: -5.001903126      2.476      5.469
REMARK  8 active torsions:
REMARK  status: ('A' for Active; 'I' for Inactive)
REMARK    1  A    between atoms: C2_2  and  C3_3 
REMARK    2  A    between atoms: C3_3  and  C4_4 
REMARK    3  A    between atoms: C4_4  and  C5_5 
REMARK    4  A    between atoms: C5_5  and  O1_6 
REMARK    5  A    between atoms: C5_5  and  C6_8 
REMARK    6  A    between atoms: C6_8  and  C7_9 
REMARK    7  A    between atoms: C7_9  and  N1_10 
REMARK    8  A    between atoms: N1_10  and  C8_12 
ROOT
HETATM    1  C6  UNL     1      63.906   9.974  25.729  1.00  0.00     0.051 C 
ENDROOT
BRANCH   1   2
HETATM    2  C5  UNL     1      63.819   8.487  26.169  1.00  0.00     0.120 C 
BRANCH   2   3
HETATM    3  C4  UNL     1      63.022   7.849  25.073  1.00  0.00     0.035 C 
BRANCH   3   4
HETATM    4  C3  UNL     1      61.747   7.209  25.412  1.00  0.00     0.029 C 
BRANCH   4   5
HETATM    5  C2  UNL     1      60.776   7.132  24.321  1.00  0.00    -0.037 C 
HETATM    6  C1  UNL     1      60.389   6.000  23.768  1.00  0.00     0.007 C 
ENDBRANCH   4   5
ENDBRANCH   3   4
ENDBRANCH   2   3
BRANCH   2   7
HETATM    7  O1  UNL     1      65.049   8.003  26.464  1.00  0.00    -0.396 OA
ATOM      8  H1  UNL     1      65.126   7.188  26.946  1.00  0.00     0.210 HD
ENDBRANCH   2   7
ENDBRANCH   1   2
BRANCH   1   9
HETATM    9  C7  UNL     1      64.118  10.878  26.923  1.00  0.00     0.116 C 
BRANCH   9  10
HETATM   10  N1  UNL     1      65.434  10.659  27.409  1.00  0.00    -0.417 N 
ATOM     11  H1  UNL     1      65.648   9.877  28.027  1.00  0.00     0.153 HD
BRANCH  10  12
HETATM   12  C8  UNL     1      66.443  11.572  26.999  1.00  0.00     0.076 C 
HETATM   13  C9  UNL     1      67.605  11.620  27.956  1.00  0.00     0.024 C 
HETATM   14  C10 UNL     1      68.329  10.640  27.039  1.00  0.00     0.004 C 
HETATM   15  C11 UNL     1      67.363  11.014  25.946  1.00  0.00     0.024 C 
ENDBRANCH  10  12
ENDBRANCH   9  10
ENDBRANCH   1   9
TORSDOF 8
ENDMDL
MODEL 3
REMARK VINA RESULT: -4.953939720      8.317     10.150
REMARK  8 active torsions:
REMARK  status: ('A' for Active; 'I' for Inactive)
REMARK    1  A    between atoms: C2_2  and  C3_3 
REMARK    2  A    between atoms: C3_3  and  C4_4 
REMARK    3  A    between atoms: C4_4  and  C5_5 
REMARK    4  A    between atoms: C5_5  and  O1_6 
REMARK    5  A    between atoms: C5_5  and  C6_8 
REMARK    6  A    between atoms: C6_8  and  C7_9 
REMARK    7  A    between atoms: C7_9  and  N1_10 
REMARK    8  A    between atoms: N1_10  and  C8_12 
ROOT
HETATM    1  C6  UNL     1      57.608  12.632  21.764  1.00  0.00     0.051 C 
ENDROOT
BRANCH   1   2
HETATM    2  C5  UNL     1      56.749  12.526  20.473  1.00  0.00     0.120 C 
BRANCH   2   3
HETATM    3  C4  UNL     1      57.768  12.575  19.376  1.00  0.00     0.035 C 
BRANCH   3   4
HETATM    4  C3  UNL     1      57.743  11.532  18.347  1.00  0.00     0.029 C 
BRANCH   4   5
HETATM    5  C2  UNL     1      56.951  11.846  17.158  1.00  0.00    -0.037 C 
HETATM    6  C1  UNL     1      55.705  11.452  16.986  1.00  0.00     0.007 C 
ENDBRANCH   4   5
ENDBRANCH   3   4
ENDBRANCH   2   3
BRANCH   2   7
HETATM    7  O1  UNL     1      55.904  11.470  20.548  1.00  0.00    -0.396 OA
ATOM      8  H1  UNL     1      54.979  11.623  20.701  1.00  0.00     0.210 HD
ENDBRANCH   2   7
ENDBRANCH   1   2
BRANCH   1   9
HETATM    9  C7  UNL     1      58.627  13.741  21.643  1.00  0.00     0.116 C 
BRANCH   9  10
HETATM   10  N1  UNL     1      59.803  13.331  22.326  1.00  0.00    -0.417 N 
ATOM     11  H1  UNL     1      60.283  13.954  22.975  1.00  0.00     0.153 HD
BRANCH  10  12
HETATM   12  C8  UNL     1      60.284  12.020  22.070  1.00  0.00     0.076 C 
HETATM   13  C9  UNL     1      61.114  11.940  20.816  1.00  0.00     0.024 C 
HETATM   14  C10 UNL     1      62.353  12.062  21.696  1.00  0.00     0.004 C 
HETATM   15  C11 UNL     1      61.506  11.663  22.874  1.00  0.00     0.024 C 
ENDBRANCH  10  12
ENDBRANCH   9  10
ENDBRANCH   1   9
TORSDOF 8
ENDMDL
MODEL 4
REMARK VINA RESULT: -4.939351768      6.914      8.944
REMARK  8 active torsions:
REMARK  status: ('A' for Active; 'I' for Inactive)
REMARK    1  A    between atoms: C2_2  and  C3_3 
REMARK    2  A    between atoms: C3_3  and  C4_4 
REMARK    3  A    between atoms: C4_4  and  C5_5 
REMARK    4  A    between atoms: C5_5  and  O1_6 
REMARK    5  A    between atoms: C5_5  and  C6_8 
REMARK    6  A    between atoms: C6_8  and  C7_9 
REMARK    7  A    between atoms: C7_9  and  N1_10 
REMARK    8  A    between atoms: N1_10  and  C8_12 
ROOT
HETATM    1  C6  UNL     1      59.315  12.599  22.160  1.00  0.00     0.051 C 
ENDROOT
BRANCH   1   2
HETATM    2  C5  UNL     1      58.581  13.810  21.522  1.00  0.00     0.120 C 
BRANCH   2   3
HETATM    3  C4  UNL     1      57.133  13.466  21.693  1.00  0.00     0.035 C 
BRANCH   3   4
HETATM    4  C3  UNL     1      56.581  12.350  20.919  1.00  0.00     0.029 C 
BRANCH   4   5
HETATM    5  C2  UNL     1      56.984  12.305  19.514  1.00  0.00    -0.037 C 
HETATM    6  C1  UNL     1      56.218  11.832  18.551  1.00  0.00     0.007 C 
ENDBRANCH   4   5
ENDBRANCH   3   4
ENDBRANCH   2   3
BRANCH   2   7
HETATM    7  O1  UNL     1      59.052  14.974  22.029  1.00  0.00    -0.396 OA
ATOM      8  H1  UNL     1      59.515  14.968  22.858  1.00  0.00     0.210 HD
ENDBRANCH   2   7
ENDBRANCH   1   2
BRANCH   1   9
HETATM    9  C7  UNL     1      60.427  12.108  21.261  1.00  0.00     0.116 C 
BRANCH   9  10
HETATM   10  N1  UNL     1      61.661  12.348  21.920  1.00  0.00    -0.417 N 
ATOM     11  H1  UNL     1      62.325  13.038  21.569  1.00  0.00     0.153 HD
BRANCH  10  12
HETATM   12  C8  UNL     1      61.936  11.590  23.090  1.00  0.00     0.076 C 
HETATM   13  C9  UNL     1      63.257  10.870  23.017  1.00  0.00     0.024 C 
HETATM   14  C10 UNL     1      63.867  12.026  23.803  1.00  0.00     0.004 C 
HETATM   15  C11 UNL     1      62.476  12.418  24.226  1.00  0.00     0.024 C 
ENDBRANCH  10  12
ENDBRANCH   9  10
ENDBRANCH   1   9
TORSDOF 8
ENDMDL
MODEL 5
REMARK VINA RESULT: -4.939225002      1.675      2.306
REMARK  8 active torsions:
REMARK  status: ('A' for Active; 'I' for Inactive)
REMARK    1  A    between atoms: C2_2  and  C3_3 
REMARK    2  A    between atoms: C3_3  and  C4_4 
REMARK    3  A    between atoms: C4_4  and  C5_5 
REMARK    4  A    between atoms: C5_5  and  O1_6 
REMARK    5  A    between atoms: C5_5  and  C6_8 
REMARK    6  A    between atoms: C6_8  and  C7_9 
REMARK    7  A    between atoms: C7_9  and  N1_10 
REMARK    8  A    between atoms: N1_10  and  C8_12 
ROOT
HETATM    1  C6  UNL     1      65.048   9.898  26.827  1.00  0.00     0.051 C 
ENDROOT
BRANCH   1   2
HETATM    2  C5  UNL     1      66.564  10.017  26.507  1.00  0.00     0.120 C 
BRANCH   2   3
HETATM    3  C4  UNL     1      66.691  11.402  25.950  1.00  0.00     0.035 C 
BRANCH   3   4
HETATM    4  C3  UNL     1      67.877  11.733  25.156  1.00  0.00     0.029 C 
BRANCH   4   5
HETATM    5  C2  UNL     1      67.643  12.635  24.028  1.00  0.00    -0.037 C 
HETATM    6  C1  UNL     1      66.593  12.554  23.236  1.00  0.00     0.007 C 
ENDBRANCH   4   5
ENDBRANCH   3   4
ENDBRANCH   2   3
BRANCH   2   7
HETATM    7  O1  UNL     1      67.307   9.663  27.582  1.00  0.00    -0.396 OA
ATOM      8  H1  UNL     1      67.009   9.897  28.453  1.00  0.00     0.210 HD
ENDBRANCH   2   7
ENDBRANCH   1   2
BRANCH   1   9
HETATM    9  C7  UNL     1      64.229  10.748  25.882  1.00  0.00     0.116 C 
BRANCH   9  10
HETATM   10  N1  UNL     1      63.047  11.142  26.562  1.00  0.00    -0.417 N 
ATOM     11  H1  UNL     1      62.130  10.806  26.268  1.00  0.00     0.153 HD
BRANCH  10  12
HETATM   12  C8  UNL     1      63.190  12.022  27.668  1.00  0.00     0.076 C 
HETATM   13  C9  UNL     1      63.829  13.331  27.289  1.00  0.00     0.024 C 
HETATM   14  C10 UNL     1      62.428  13.923  27.190  1.00  0.00     0.004 C 
HETATM   15  C11 UNL     1      61.925  12.765  28.009  1.00  0.00     0.024 C 
ENDBRANCH  10  12
ENDBRANCH   9  10
ENDBRANCH   1   9
TORSDOF 8
ENDMDL
