MODEL 1
REMARK VINA RESULT: -6.732252875      0.000      0.000
REMARK  3 active torsions:
REMARK  status: ('A' for Active; 'I' for Inactive)
REMARK    1  A    between atoms: N1_1  and  C1_4 
REMARK    2  A    between atoms: N5_14  and  C4_16 
REMARK    3  A    between atoms: C4_16  and  C5_17 
ROOT
HETATM    1  C1  UNL     1      -1.996  15.343  51.907  1.00  0.00     0.148 A 
HETATM    2  N2  UNL     1      -1.300  16.458  52.018  1.00  0.00    -0.291 N 
ATOM      3  H2  UNL     1      -1.461  17.094  52.799  1.00  0.00     0.172 HD
HETATM    4  C2  UNL     1      -0.370  16.744  51.081  1.00  0.00     0.340 A 
HETATM    5  O1  UNL     1       0.312  17.802  51.155  1.00  0.00    -0.245 OA
HETATM    6  N3  UNL     1      -0.130  15.935  50.047  1.00  0.00    -0.250 N 
ATOM      7  H3  UNL     1       0.577  16.169  49.350  1.00  0.00     0.192 HD
HETATM    8  N4  UNL     1      -0.842  14.816  49.954  1.00  0.00    -0.279 N 
ATOM      9  H4  UNL     1      -0.661  14.196  49.164  1.00  0.00     0.189 HD
HETATM   10  C3  UNL     1      -1.787  14.453  50.839  1.00  0.00     0.160 A 
HETATM   11  N5  UNL     1      -2.488  13.372  50.768  1.00  0.00    -0.372 N 
ATOM     12  H5  UNL     1      -3.185  13.177  51.487  1.00  0.00     0.161 HD
ENDROOT
BRANCH   1  13
HETATM   13  N1  UNL     1      -2.881  15.059  52.789  1.00  0.00    -0.382 N 
ATOM     14  H12 UNL     1      -3.215  15.796  53.409  1.00  0.00     0.157 HD
ATOM     15  H11 UNL     1      -3.237  14.105  52.856  1.00  0.00     0.157 HD
ENDBRANCH   1  13
BRANCH  11  16
HETATM   16  C4  UNL     1      -2.304  12.450  49.703  1.00  0.00     0.126 C 
BRANCH  16  17
HETATM   17  C5  UNL     1      -3.481  11.530  49.456  1.00  0.00     0.003 C 
HETATM   18  C6  UNL     1      -3.021  10.326  48.665  1.00  0.00     0.006 C 
HETATM   19  C7  UNL     1      -3.577   9.402  49.723  1.00  0.00     0.001 C 
HETATM   20  C8  UNL     1      -3.688  10.580  50.635  1.00  0.00     0.006 C 
ENDBRANCH  16  17
ENDBRANCH  11  16
TORSDOF 3
ENDMDL
MODEL 2
REMARK VINA RESULT: -6.712808249      1.101      1.417
REMARK  3 active torsions:
REMARK  status: ('A' for Active; 'I' for Inactive)
REMARK    1  A    between atoms: N1_1  and  C1_4 
REMARK    2  A    between atoms: N5_14  and  C4_16 
REMARK    3  A    between atoms: C4_16  and  C5_17 
ROOT
HETATM    1  C1  UNL     1      -1.908  15.366  51.887  1.00  0.00     0.148 A 
HETATM    2  N2  UNL     1      -1.169  16.457  51.932  1.00  0.00    -0.291 N 
ATOM      3  H2  UNL     1      -1.263  17.115  52.705  1.00  0.00     0.172 HD
HETATM    4  C2  UNL     1      -0.284  16.690  50.937  1.00  0.00     0.340 A 
HETATM    5  O1  UNL     1       0.438  17.723  50.948  1.00  0.00    -0.245 OA
HETATM    6  N3  UNL     1      -0.133  15.850  49.911  1.00  0.00    -0.250 N 
ATOM      7  H3  UNL     1       0.541  16.043  49.169  1.00  0.00     0.192 HD
HETATM    8  N4  UNL     1      -0.888  14.756  49.884  1.00  0.00    -0.279 N 
ATOM      9  H4  UNL     1      -0.774  14.113  49.100  1.00  0.00     0.189 HD
HETATM   10  C3  UNL     1      -1.792  14.446  50.830  1.00  0.00     0.160 A 
HETATM   11  N5  UNL     1      -2.534  13.390  50.824  1.00  0.00    -0.372 N 
ATOM     12  H5  UNL     1      -3.195  13.236  51.585  1.00  0.00     0.161 HD
ENDROOT
BRANCH   1  13
HETATM   13  N1  UNL     1      -2.751  15.133  52.823  1.00  0.00    -0.382 N 
ATOM     14  H12 UNL     1      -3.238  15.917  53.256  1.00  0.00     0.157 HD
ATOM     15  H11 UNL     1      -2.922  14.172  53.119  1.00  0.00     0.157 HD
ENDBRANCH   1  13
BRANCH  11  16
HETATM   16  C4  UNL     1      -2.443  12.439  49.772  1.00  0.00     0.126 C 
BRANCH  16  17
HETATM   17  C5  UNL     1      -1.831  11.114  50.173  1.00  0.00     0.003 C 
HETATM   18  C6  UNL     1      -1.872  10.164  48.997  1.00  0.00     0.006 C 
HETATM   19  C7  UNL     1      -0.381   9.948  49.102  1.00  0.00     0.001 C 
HETATM   20  C8  UNL     1      -0.312  11.140  50.000  1.00  0.00     0.006 C 
ENDBRANCH  16  17
ENDBRANCH  11  16
TORSDOF 3
ENDMDL
MODEL 3
REMARK VINA RESULT: -6.214556875      2.334      3.154
REMARK  3 active torsions:
REMARK  status: ('A' for Active; 'I' for Inactive)
REMARK    1  A    between atoms: N1_1  and  C1_4 
REMARK    2  A    between atoms: N5_14  and  C4_16 
REMARK    3  A    between atoms: C4_16  and  C5_17 
ROOT
HETATM    1  C1  UNL     1      -1.366  14.987  48.890  1.00  0.00     0.148 A 
HETATM    2  N2  UNL     1      -1.324  15.991  49.744  1.00  0.00    -0.291 N 
ATOM      3  H2  UNL     1      -1.142  16.940  49.419  1.00  0.00     0.172 HD
HETATM    4  C2  UNL     1      -1.526  15.743  51.057  1.00  0.00     0.340 A 
HETATM    5  O1  UNL     1      -1.492  16.679  51.901  1.00  0.00    -0.245 OA
HETATM    6  N3  UNL     1      -1.767  14.514  51.519  1.00  0.00    -0.250 N 
ATOM      7  H3  UNL     1      -1.918  14.347  52.514  1.00  0.00     0.192 HD
HETATM    8  N4  UNL     1      -1.806  13.515  50.641  1.00  0.00    -0.279 N 
ATOM      9  H4  UNL     1      -1.990  12.575  50.992  1.00  0.00     0.189 HD
HETATM   10  C3  UNL     1      -1.615  13.671  49.319  1.00  0.00     0.160 A 
HETATM   11  N5  UNL     1      -1.649  12.717  48.452  1.00  0.00    -0.372 N 
ATOM     12  H5  UNL     1      -1.493  12.928  47.466  1.00  0.00     0.161 HD
ENDROOT
BRANCH   1  13
HETATM   13  N1  UNL     1      -1.176  15.208  47.643  1.00  0.00    -0.382 N 
ATOM     14  H12 UNL     1      -1.803  14.777  46.964  1.00  0.00     0.157 HD
ATOM     15  H11 UNL     1      -0.406  15.808  47.349  1.00  0.00     0.157 HD
ENDBRANCH   1  13
BRANCH  11  16
HETATM   16  C4  UNL     1      -1.899  11.376  48.849  1.00  0.00     0.126 C 
BRANCH  16  17
HETATM   17  C5  UNL     1      -0.766  10.413  48.563  1.00  0.00     0.003 C 
HETATM   18  C6  UNL     1       0.228  11.068  47.630  1.00  0.00     0.006 C 
HETATM   19  C7  UNL     1       1.345  10.800  48.611  1.00  0.00     0.001 C 
HETATM   20  C8  UNL     1       0.310  10.498  49.645  1.00  0.00     0.006 C 
ENDBRANCH  16  17
ENDBRANCH  11  16
TORSDOF 3
ENDMDL
MODEL 4
REMARK VINA RESULT: -6.201904282      2.224      2.878
REMARK  3 active torsions:
REMARK  status: ('A' for Active; 'I' for Inactive)
REMARK    1  A    between atoms: N1_1  and  C1_4 
REMARK    2  A    between atoms: N5_14  and  C4_16 
REMARK    3  A    between atoms: C4_16  and  C5_17 
ROOT
HETATM    1  C1  UNL     1      -1.716  13.473  50.948  1.00  0.00     0.148 A 
HETATM    2  N2  UNL     1      -1.920  14.507  51.740  1.00  0.00    -0.291 N 
ATOM      3  H2  UNL     1      -2.389  14.387  52.638  1.00  0.00     0.172 HD
HETATM    4  C2  UNL     1      -1.499  15.728  51.345  1.00  0.00     0.340 A 
HETATM    5  O1  UNL     1      -1.679  16.738  52.077  1.00  0.00    -0.245 OA
HETATM    6  N3  UNL     1      -0.881  15.923  50.178  1.00  0.00    -0.250 N 
ATOM      7  H3  UNL     1      -0.570  16.852  49.897  1.00  0.00     0.192 HD
HETATM    8  N4  UNL     1      -0.685  14.867  49.393  1.00  0.00    -0.279 N 
ATOM      9  H4  UNL     1      -0.213  15.014  48.501  1.00  0.00     0.189 HD
HETATM   10  C3  UNL     1      -1.071  13.617  49.707  1.00  0.00     0.160 A 
HETATM   11  N5  UNL     1      -0.890  12.580  48.961  1.00  0.00    -0.372 N 
ATOM     12  H5  UNL     1      -1.217  11.669  49.281  1.00  0.00     0.161 HD
ENDROOT
BRANCH   1  13
HETATM   13  N1  UNL     1      -2.110  12.309  51.311  1.00  0.00    -0.382 N 
ATOM     14  H12 UNL     1      -2.582  12.205  52.209  1.00  0.00     0.157 HD
ATOM     15  H11 UNL     1      -1.948  11.509  50.700  1.00  0.00     0.157 HD
ENDBRANCH   1  13
BRANCH  11  16
HETATM   16  C4  UNL     1      -0.242  12.689  47.702  1.00  0.00     0.126 C 
BRANCH  16  17
HETATM   17  C5  UNL     1       0.072  11.366  47.039  1.00  0.00     0.003 C 
HETATM   18  C6  UNL     1      -0.563  10.243  47.830  1.00  0.00     0.006 C 
HETATM   19  C7  UNL     1      -1.278   9.756  46.591  1.00  0.00     0.001 C 
HETATM   20  C8  UNL     1      -0.938  11.055  45.934  1.00  0.00     0.006 C 
ENDBRANCH  16  17
ENDBRANCH  11  16
TORSDOF 3
ENDMDL
MODEL 5
REMARK VINA RESULT: -6.043533491      1.497      2.517
REMARK  3 active torsions:
REMARK  status: ('A' for Active; 'I' for Inactive)
REMARK    1  A    between atoms: N1_1  and  C1_4 
REMARK    2  A    between atoms: N5_14  and  C4_16 
REMARK    3  A    between atoms: C4_16  and  C5_17 
ROOT
HETATM    1  C1  UNL     1      -0.894  14.640  49.379  1.00  0.00     0.148 A 
HETATM    2  N2  UNL     1      -0.716  15.708  50.133  1.00  0.00    -0.291 N 
ATOM      3  H2  UNL     1      -0.011  16.403  49.888  1.00  0.00     0.172 HD
HETATM    4  C2  UNL     1      -1.481  15.867  51.235  1.00  0.00     0.340 A 
HETATM    5  O1  UNL     1      -1.336  16.875  51.978  1.00  0.00    -0.245 OA
HETATM    6  N3  UNL     1      -2.414  14.979  51.586  1.00  0.00    -0.250 N 
ATOM      7  H3  UNL     1      -2.982  15.117  52.422  1.00  0.00     0.192 HD
HETATM    8  N4  UNL     1      -2.578  13.909  50.813  1.00  0.00    -0.279 N 
ATOM      9  H4  UNL     1      -3.290  13.230  51.080  1.00  0.00     0.189 HD
HETATM   10  C3  UNL     1      -1.861  13.671  49.700  1.00  0.00     0.160 A 
HETATM   11  N5  UNL     1      -2.005  12.641  48.936  1.00  0.00    -0.372 N 
ATOM     12  H5  UNL     1      -1.416  12.542  48.110  1.00  0.00     0.161 HD
ENDROOT
BRANCH   1  13
HETATM   13  N1  UNL     1      -0.176  14.477  48.332  1.00  0.00    -0.382 N 
ATOM     14  H12 UNL     1      -0.584  14.669  47.417  1.00  0.00     0.157 HD
ATOM     15  H11 UNL     1       0.789  14.159  48.427  1.00  0.00     0.157 HD
ENDBRANCH   1  13
BRANCH  11  16
HETATM   16  C4  UNL     1      -2.973  11.643  49.230  1.00  0.00     0.126 C 
BRANCH  16  17
HETATM   17  C5  UNL     1      -2.790  10.347  48.469  1.00  0.00     0.003 C 
HETATM   18  C6  UNL     1      -1.618  10.480  47.523  1.00  0.00     0.006 C 
HETATM   19  C7  UNL     1      -0.973   9.256  48.129  1.00  0.00     0.001 C 
HETATM   20  C8  UNL     1      -1.937   9.361  49.266  1.00  0.00     0.006 C 
ENDBRANCH  16  17
ENDBRANCH  11  16
TORSDOF 3
ENDMDL
