MODEL 1
REMARK VINA RESULT: -8.343014227      0.000      0.000
REMARK  1 active torsions:
REMARK  status: ('A' for Active; 'I' for Inactive)
REMARK    1  A    between atoms: C5_6  and  C6_7 
ROOT
HETATM    1  C1  UNL     1      31.879  37.966  35.524  1.00  0.00     0.052 C 
HETATM    2  C2  UNL     1      31.601  37.180  36.776  1.00  0.00    -0.015 A 
HETATM    3  C3  UNL     1      30.431  37.416  37.505  1.00  0.00     0.075 A 
HETATM    4  C4  UNL     1      29.578  38.455  37.033  1.00  0.00     0.102 C 
HETATM    5  N1  UNL     1      28.907  39.322  36.652  1.00  0.00    -0.191 NA
HETATM    6  C5  UNL     1      30.135  36.702  38.667  1.00  0.00     0.041 A 
HETATM    7  N3  UNL     1      31.041  35.788  39.030  1.00  0.00    -0.347 N 
ATOM      8  H3  UNL     1      30.864  35.244  39.875  1.00  0.00     0.166 HD
HETATM    9  C12 UNL     1      32.193  35.544  38.331  1.00  0.00     0.122 A 
HETATM   10  S1  UNL     1      33.239  34.408  38.853  1.00  0.00    -0.059 SA
HETATM   11  C13 UNL     1      32.497  36.231  37.192  1.00  0.00     0.090 A 
HETATM   12  C14 UNL     1      33.694  36.013  36.415  1.00  0.00     0.103 C 
HETATM   13  N4  UNL     1      34.645  35.831  35.792  1.00  0.00    -0.191 NA
ENDROOT
BRANCH   6  14
HETATM   14  C6  UNL     1      28.885  36.915  39.404  1.00  0.00     0.082 C 
HETATM   15  C7  UNL     1      28.979  36.626  40.901  1.00  0.00     0.016 C 
HETATM   16  C8  UNL     1      27.690  35.930  41.364  1.00  0.00     0.001 C 
HETATM   17  C9  UNL     1      27.704  34.514  40.783  1.00  0.00     0.006 C 
HETATM   18  C10 UNL     1      27.763  34.612  39.256  1.00  0.00     0.053 C 
HETATM   19  C11 UNL     1      27.747  36.064  38.874  1.00  0.00    -0.010 C 
HETATM   20  N2  UNL     1      26.801  36.494  38.176  1.00  0.00    -0.405 N 
ATOM     21  H22 UNL     1      26.790  37.481  37.917  1.00  0.00     0.155 HD
ATOM     22  H21 UNL     1      26.035  35.922  37.821  1.00  0.00     0.155 HD
ENDBRANCH   6  14
TORSDOF 1
ENDMDL
MODEL 2
REMARK VINA RESULT: -6.995812895      2.188      3.516
REMARK  1 active torsions:
REMARK  status: ('A' for Active; 'I' for Inactive)
REMARK    1  A    between atoms: C5_6  and  C6_7 
ROOT
HETATM    1  C1  UNL     1      33.205  35.088  37.303  1.00  0.00     0.052 C 
HETATM    2  C2  UNL     1      31.788  35.569  37.464  1.00  0.00    -0.015 A 
HETATM    3  C3  UNL     1      30.960  34.994  38.433  1.00  0.00     0.075 A 
HETATM    4  C4  UNL     1      31.508  33.919  39.191  1.00  0.00     0.102 C 
HETATM    5  N1  UNL     1      31.959  33.027  39.781  1.00  0.00    -0.191 NA
HETATM    6  C5  UNL     1      29.644  35.418  38.618  1.00  0.00     0.041 A 
HETATM    7  N3  UNL     1      29.235  36.401  37.809  1.00  0.00    -0.347 N 
ATOM      8  H3  UNL     1      28.278  36.741  37.910  1.00  0.00     0.166 HD
HETATM    9  C12 UNL     1      30.030  36.975  36.853  1.00  0.00     0.122 A 
HETATM   10  S1  UNL     1      29.441  38.170  35.913  1.00  0.00    -0.059 SA
HETATM   11  C13 UNL     1      31.320  36.574  36.660  1.00  0.00     0.090 A 
HETATM   12  C14 UNL     1      32.201  37.146  35.671  1.00  0.00     0.103 C 
HETATM   13  N4  UNL     1      32.906  37.609  34.887  1.00  0.00    -0.191 NA
ENDROOT
BRANCH   6  14
HETATM   14  C6  UNL     1      28.792  34.849  39.667  1.00  0.00     0.082 C 
HETATM   15  C7  UNL     1      27.349  34.589  39.235  1.00  0.00     0.016 C 
HETATM   16  C8  UNL     1      26.402  34.960  40.386  1.00  0.00     0.001 C 
HETATM   17  C9  UNL     1      26.409  36.485  40.508  1.00  0.00     0.006 C 
HETATM   18  C10 UNL     1      27.840  36.947  40.798  1.00  0.00     0.053 C 
HETATM   19  C11 UNL     1      28.718  35.732  40.897  1.00  0.00    -0.010 C 
HETATM   20  N2  UNL     1      29.309  35.502  41.976  1.00  0.00    -0.405 N 
ATOM     21  H22 UNL     1      29.905  34.677  42.044  1.00  0.00     0.155 HD
ATOM     22  H21 UNL     1      29.258  36.096  42.804  1.00  0.00     0.155 HD
ENDBRANCH   6  14
TORSDOF 1
ENDMDL
MODEL 3
REMARK VINA RESULT: -6.752741469      2.379      3.628
REMARK  1 active torsions:
REMARK  status: ('A' for Active; 'I' for Inactive)
REMARK    1  A    between atoms: C5_6  and  C6_7 
ROOT
HETATM    1  C1  UNL     1      31.981  34.308  37.968  1.00  0.00     0.052 C 
HETATM    2  C2  UNL     1      30.848  35.285  38.127  1.00  0.00    -0.015 A 
HETATM    3  C3  UNL     1      29.613  34.851  38.616  1.00  0.00     0.075 A 
HETATM    4  C4  UNL     1      29.483  33.458  38.889  1.00  0.00     0.102 C 
HETATM    5  N1  UNL     1      29.384  32.318  39.082  1.00  0.00    -0.191 NA
HETATM    6  C5  UNL     1      28.541  35.728  38.784  1.00  0.00     0.041 A 
HETATM    7  N3  UNL     1      28.777  36.999  38.445  1.00  0.00    -0.347 N 
ATOM      8  H3  UNL     1      28.020  37.675  38.552  1.00  0.00     0.166 HD
HETATM    9  C12 UNL     1      29.979  37.444  37.962  1.00  0.00     0.122 A 
HETATM   10  S1  UNL     1      30.172  39.016  37.575  1.00  0.00    -0.059 SA
HETATM   11  C13 UNL     1      31.038  36.600  37.793  1.00  0.00     0.090 A 
HETATM   12  C14 UNL     1      32.327  37.015  37.292  1.00  0.00     0.103 C 
HETATM   13  N4  UNL     1      33.356  37.349  36.900  1.00  0.00    -0.191 NA
ENDROOT
BRANCH   6  14
HETATM   14  C6  UNL     1      27.261  35.282  39.344  1.00  0.00     0.082 C 
HETATM   15  C7  UNL     1      26.050  36.078  38.860  1.00  0.00     0.016 C 
HETATM   16  C8  UNL     1      25.081  36.288  40.034  1.00  0.00     0.001 C 
HETATM   17  C9  UNL     1      25.734  37.287  40.991  1.00  0.00     0.006 C 
HETATM   18  C10 UNL     1      27.067  36.706  41.471  1.00  0.00     0.053 C 
HETATM   19  C11 UNL     1      27.237  35.344  40.859  1.00  0.00    -0.010 C 
HETATM   20  N2  UNL     1      27.320  34.350  41.614  1.00  0.00    -0.405 N 
ATOM     21  H22 UNL     1      27.436  33.425  41.199  1.00  0.00     0.155 HD
ATOM     22  H21 UNL     1      27.304  34.392  42.633  1.00  0.00     0.155 HD
ENDBRANCH   6  14
TORSDOF 1
ENDMDL
MODEL 4
REMARK VINA RESULT: -6.710033043      2.368      5.308
REMARK  1 active torsions:
REMARK  status: ('A' for Active; 'I' for Inactive)
REMARK    1  A    between atoms: C5_6  and  C6_7 
ROOT
HETATM    1  C1  UNL     1      26.981  37.587  37.390  1.00  0.00     0.052 C 
HETATM    2  C2  UNL     1      27.781  36.578  38.167  1.00  0.00    -0.015 A 
HETATM    3  C3  UNL     1      28.944  36.032  37.614  1.00  0.00     0.075 A 
HETATM    4  C4  UNL     1      29.276  36.434  36.289  1.00  0.00     0.102 C 
HETATM    5  N1  UNL     1      29.518  36.750  35.198  1.00  0.00    -0.191 NA
HETATM    6  C5  UNL     1      29.717  35.100  38.307  1.00  0.00     0.041 A 
HETATM    7  N3  UNL     1      29.271  34.768  39.523  1.00  0.00    -0.347 N 
ATOM      8  H3  UNL     1      29.806  34.089  40.065  1.00  0.00     0.166 HD
HETATM    9  C12 UNL     1      28.134  35.291  40.080  1.00  0.00     0.122 A 
HETATM   10  S1  UNL     1      27.669  34.825  41.572  1.00  0.00    -0.059 SA
HETATM   11  C13 UNL     1      27.367  36.205  39.418  1.00  0.00     0.090 A 
HETATM   12  C14 UNL     1      26.163  36.789  39.959  1.00  0.00     0.103 C 
HETATM   13  N4  UNL     1      25.208  37.261  40.395  1.00  0.00    -0.191 NA
ENDROOT
BRANCH   6  14
HETATM   14  C6  UNL     1      30.962  34.564  37.747  1.00  0.00     0.082 C 
HETATM   15  C7  UNL     1      31.657  33.530  38.631  1.00  0.00     0.016 C 
HETATM   16  C8  UNL     1      33.176  33.753  38.574  1.00  0.00     0.001 C 
HETATM   17  C9  UNL     1      33.475  35.047  39.335  1.00  0.00     0.006 C 
HETATM   18  C10 UNL     1      32.720  36.196  38.661  1.00  0.00     0.053 C 
HETATM   19  C11 UNL     1      31.987  35.647  37.470  1.00  0.00    -0.010 C 
HETATM   20  N2  UNL     1      32.273  36.083  36.332  1.00  0.00    -0.405 N 
ATOM     21  H22 UNL     1      31.775  35.710  35.523  1.00  0.00     0.155 HD
ATOM     22  H21 UNL     1      32.962  36.811  36.146  1.00  0.00     0.155 HD
ENDBRANCH   6  14
TORSDOF 1
ENDMDL
MODEL 5
REMARK VINA RESULT: -6.516774556      2.106      5.313
REMARK  1 active torsions:
REMARK  status: ('A' for Active; 'I' for Inactive)
REMARK    1  A    between atoms: C5_6  and  C6_7 
ROOT
HETATM    1  C1  UNL     1      27.154  37.779  37.351  1.00  0.00     0.052 C 
HETATM    2  C2  UNL     1      28.098  37.075  38.287  1.00  0.00    -0.015 A 
HETATM    3  C3  UNL     1      29.463  37.016  37.991  1.00  0.00     0.075 A 
HETATM    4  C4  UNL     1      29.878  37.593  36.757  1.00  0.00     0.102 C 
HETATM    5  N1  UNL     1      30.198  38.044  35.736  1.00  0.00    -0.191 NA
HETATM    6  C5  UNL     1      30.370  36.379  38.838  1.00  0.00     0.041 A 
HETATM    7  N3  UNL     1      29.846  35.833  39.941  1.00  0.00    -0.347 N 
ATOM      8  H3  UNL     1      30.474  35.357  40.589  1.00  0.00     0.166 HD
HETATM    9  C12 UNL     1      28.511  35.879  40.247  1.00  0.00     0.122 A 
HETATM   10  S1  UNL     1      27.965  35.185  41.617  1.00  0.00    -0.059 SA
HETATM   11  C13 UNL     1      27.611  36.500  39.431  1.00  0.00     0.090 A 
HETATM   12  C14 UNL     1      26.196  36.581  39.707  1.00  0.00     0.103 C 
HETATM   13  N4  UNL     1      25.070  36.652  39.933  1.00  0.00    -0.191 NA
ENDROOT
BRANCH   6  14
HETATM   14  C6  UNL     1      31.808  36.359  38.552  1.00  0.00     0.082 C 
HETATM   15  C7  UNL     1      32.237  37.285  37.415  1.00  0.00     0.016 C 
HETATM   16  C8  UNL     1      33.314  36.586  36.571  1.00  0.00     0.001 C 
HETATM   17  C9  UNL     1      32.625  35.460  35.796  1.00  0.00     0.006 C 
HETATM   18  C10 UNL     1      31.992  34.492  36.800  1.00  0.00     0.053 C 
HETATM   19  C11 UNL     1      32.308  34.974  38.187  1.00  0.00    -0.010 C 
HETATM   20  N2  UNL     1      32.977  34.236  38.945  1.00  0.00    -0.405 N 
ATOM     21  H22 UNL     1      33.192  34.564  39.887  1.00  0.00     0.155 HD
ATOM     22  H21 UNL     1      33.314  33.305  38.699  1.00  0.00     0.155 HD
ENDBRANCH   6  14
TORSDOF 1
ENDMDL
