MODEL 1
REMARK VINA RESULT: -5.106871751      0.000      0.000
REMARK  2 active torsions:
REMARK  status: ('A' for Active; 'I' for Inactive)
REMARK    1  A    between atoms: N1_2  and  C4_5 
REMARK    2  A    between atoms: C4_5  and  C5_6 
ROOT
HETATM    1  C5  UNL     1       2.932  -2.899 -17.632  1.00  0.00     0.211 C 
HETATM    2  C6  UNL     1       2.990  -1.769 -16.665  1.00  0.00     0.034 C 
HETATM    3  C7  UNL     1       1.548  -1.477 -16.225  1.00  0.00     0.004 C 
HETATM    4  C8  UNL     1       0.939  -0.692 -17.369  1.00  0.00     0.027 C 
HETATM    5  C9  UNL     1       1.484  -1.272 -18.652  1.00  0.00     0.233 C 
HETATM    6  N2  UNL     1       1.819  -2.672 -18.531  1.00  0.00    -0.069 N 
ATOM      7  H21 UNL     1       1.005  -3.222 -18.254  1.00  0.00     0.277 HD
ATOM      8  H22 UNL     1       1.994  -3.088 -19.445  1.00  0.00     0.277 HD
ENDROOT
BRANCH   1   9
HETATM    9  C4  UNL     1       2.817  -4.258 -17.044  1.00  0.00     0.268 C 
BRANCH   9  10
HETATM   10  N1  UNL     1       3.870  -5.172 -17.296  1.00  0.00    -0.077 N 
HETATM   11  C1  UNL     1       3.493  -6.298 -18.123  1.00  0.00     0.271 C 
HETATM   12  C2  UNL     1       4.241  -5.746 -15.988  1.00  0.00     0.271 C 
HETATM   13  C3  UNL     1       5.078  -4.598 -17.829  1.00  0.00     0.271 C 
ENDBRANCH   9  10
ENDBRANCH   1   9
TORSDOF 2
ENDMDL
MODEL 2
REMARK VINA RESULT: -5.023737206      1.936      2.821
REMARK  2 active torsions:
REMARK  status: ('A' for Active; 'I' for Inactive)
REMARK    1  A    between atoms: N1_2  and  C4_5 
REMARK    2  A    between atoms: C4_5  and  C5_6 
ROOT
HETATM    1  C5  UNL     1       2.933  -4.268 -17.077  1.00  0.00     0.211 C 
HETATM    2  C6  UNL     1       3.097  -3.122 -18.012  1.00  0.00     0.034 C 
HETATM    3  C7  UNL     1       4.358  -2.361 -17.578  1.00  0.00     0.004 C 
HETATM    4  C8  UNL     1       3.930  -1.543 -16.377  1.00  0.00     0.027 C 
HETATM    5  C9  UNL     1       2.959  -2.383 -15.583  1.00  0.00     0.233 C 
HETATM    6  N2  UNL     1       3.200  -3.800 -15.731  1.00  0.00    -0.069 N 
ATOM      7  H21 UNL     1       4.146  -4.045 -15.438  1.00  0.00     0.277 HD
ATOM      8  H22 UNL     1       2.671  -4.336 -15.044  1.00  0.00     0.277 HD
ENDROOT
BRANCH   1   9
HETATM    9  C4  UNL     1       3.771  -5.462 -17.354  1.00  0.00     0.268 C 
BRANCH   9  10
HETATM   10  N1  UNL     1       3.177  -6.736 -17.168  1.00  0.00    -0.077 N 
HETATM   11  C1  UNL     1       3.655  -7.448 -16.002  1.00  0.00     0.271 C 
HETATM   12  C2  UNL     1       3.583  -7.554 -18.327  1.00  0.00     0.271 C 
HETATM   13  C3  UNL     1       1.738  -6.756 -17.157  1.00  0.00     0.271 C 
ENDBRANCH   9  10
ENDBRANCH   1   9
TORSDOF 2
ENDMDL
MODEL 3
REMARK VINA RESULT: -5.013639563      0.295      1.195
REMARK  2 active torsions:
REMARK  status: ('A' for Active; 'I' for Inactive)
REMARK    1  A    between atoms: N1_2  and  C4_5 
REMARK    2  A    between atoms: C4_5  and  C5_6 
ROOT
HETATM    1  C5  UNL     1       3.005  -3.097 -17.473  1.00  0.00     0.211 C 
HETATM    2  C6  UNL     1       3.059  -1.912 -16.575  1.00  0.00     0.034 C 
HETATM    3  C7  UNL     1       1.609  -1.527 -16.246  1.00  0.00     0.004 C 
HETATM    4  C8  UNL     1       1.111  -0.790 -17.473  1.00  0.00     0.027 C 
HETATM    5  C9  UNL     1       1.703  -1.473 -18.681  1.00  0.00     0.233 C 
HETATM    6  N2  UNL     1       1.961  -2.877 -18.454  1.00  0.00    -0.069 N 
ATOM      7  H21 UNL     1       1.105  -3.371 -18.197  1.00  0.00     0.277 HD
ATOM      8  H22 UNL     1       2.171  -3.358 -19.328  1.00  0.00     0.277 HD
ENDROOT
BRANCH   1   9
HETATM    9  C4  UNL     1       2.787  -4.409 -16.813  1.00  0.00     0.268 C 
BRANCH   9  10
HETATM   10  N1  UNL     1       3.709  -5.447 -17.098  1.00  0.00    -0.077 N 
HETATM   11  C1  UNL     1       4.089  -6.235 -15.945  1.00  0.00     0.271 C 
HETATM   12  C2  UNL     1       4.947  -4.786 -17.553  1.00  0.00     0.271 C 
HETATM   13  C3  UNL     1       3.330  -6.343 -18.159  1.00  0.00     0.271 C 
ENDBRANCH   9  10
ENDBRANCH   1   9
TORSDOF 2
ENDMDL
MODEL 4
REMARK VINA RESULT: -4.947572309      1.286      1.784
REMARK  2 active torsions:
REMARK  status: ('A' for Active; 'I' for Inactive)
REMARK    1  A    between atoms: N1_2  and  C4_5 
REMARK    2  A    between atoms: C4_5  and  C5_6 
ROOT
HETATM    1  C5  UNL     1       3.069  -4.045 -17.122  1.00  0.00     0.211 C 
HETATM    2  C6  UNL     1       3.469  -3.067 -16.074  1.00  0.00     0.034 C 
HETATM    3  C7  UNL     1       2.231  -2.215 -15.755  1.00  0.00     0.004 C 
HETATM    4  C8  UNL     1       2.136  -1.219 -16.892  1.00  0.00     0.027 C 
HETATM    5  C9  UNL     1       2.543  -1.937 -18.156  1.00  0.00     0.233 C 
HETATM    6  N2  UNL     1       2.260  -3.353 -18.105  1.00  0.00    -0.069 N 
ATOM      7  H21 UNL     1       1.266  -3.524 -17.949  1.00  0.00     0.277 HD
ATOM      8  H22 UNL     1       2.356  -3.780 -19.026  1.00  0.00     0.277 HD
ENDROOT
BRANCH   1   9
HETATM    9  C4  UNL     1       2.339  -5.249 -16.648  1.00  0.00     0.268 C 
BRANCH   9  10
HETATM   10  N1  UNL     1       2.960  -6.509 -16.842  1.00  0.00    -0.077 N 
HETATM   11  C1  UNL     1       3.689  -6.625 -18.087  1.00  0.00     0.271 C 
HETATM   12  C2  UNL     1       1.868  -7.498 -16.927  1.00  0.00     0.271 C 
HETATM   13  C3  UNL     1       3.811  -6.955 -15.771  1.00  0.00     0.271 C 
ENDBRANCH   9  10
ENDBRANCH   1   9
TORSDOF 2
ENDMDL
MODEL 5
REMARK VINA RESULT: -4.928440265      1.700      4.898
REMARK  2 active torsions:
REMARK  status: ('A' for Active; 'I' for Inactive)
REMARK    1  A    between atoms: N1_2  and  C4_5 
REMARK    2  A    between atoms: C4_5  and  C5_6 
ROOT
HETATM    1  C5  UNL     1       3.575  -5.859 -16.969  1.00  0.00     0.211 C 
HETATM    2  C6  UNL     1       3.353  -6.881 -18.028  1.00  0.00     0.034 C 
HETATM    3  C7  UNL     1       2.159  -7.739 -17.585  1.00  0.00     0.004 C 
HETATM    4  C8  UNL     1       2.720  -8.688 -16.547  1.00  0.00     0.027 C 
HETATM    5  C9  UNL     1       3.740  -7.921 -15.741  1.00  0.00     0.233 C 
HETATM    6  N2  UNL     1       3.451  -6.507 -15.679  1.00  0.00    -0.069 N 
ATOM      7  H21 UNL     1       2.531  -6.338 -15.270  1.00  0.00     0.277 HD
ATOM      8  H22 UNL     1       4.028  -6.044 -14.978  1.00  0.00     0.277 HD
ENDROOT
BRANCH   1   9
HETATM    9  C4  UNL     1       2.685  -4.672 -17.009  1.00  0.00     0.268 C 
BRANCH   9  10
HETATM   10  N1  UNL     1       3.291  -3.405 -17.200  1.00  0.00    -0.077 N 
HETATM   11  C1  UNL     1       4.648  -3.466 -17.699  1.00  0.00     0.271 C 
HETATM   12  C2  UNL     1       3.385  -2.786 -15.864  1.00  0.00     0.271 C 
HETATM   13  C3  UNL     1       2.548  -2.476 -18.011  1.00  0.00     0.271 C 
ENDBRANCH   9  10
ENDBRANCH   1   9
TORSDOF 2
ENDMDL
