MODEL 1
REMARK VINA RESULT: -8.655089003      0.000      0.000
REMARK  14 active torsions:
REMARK  status: ('A' for Active; 'I' for Inactive)
REMARK    1  A    between atoms: C2_2  and  C3_3 
REMARK    2  A    between atoms: C3_3  and  C4_4 
REMARK    3  A    between atoms: C4_4  and  C5_5 
REMARK    4  A    between atoms: C9_11  and  C10_12 
REMARK    5  A    between atoms: C11_13  and  O1_14 
REMARK    6  A    between atoms: C13_17  and  O2_18 
REMARK    7  A    between atoms: C14_20  and  C15_21 
REMARK    8  A    between atoms: C15_21  and  N2_23 
REMARK    9  A    between atoms: N2_23  and  O3_24 
REMARK   10  A    between atoms: O3_24  and  C17_25 
REMARK   11  A    between atoms: C18_27  and  C19_28 
REMARK   12  A    between atoms: C19_28  and  O5_29 
REMARK   13  A    between atoms: C20_31  and  O6_32 
REMARK   14  A    between atoms: C22_34  and  O7_35 
ROOT
HETATM    1  C10 UNL     1      -1.338   1.173  16.561  1.00  0.00     0.057 C 
HETATM    2  C11 UNL     1      -0.024   1.359  17.304  1.00  0.00     0.128 C 
HETATM    3  C12 UNL     1      -0.342   1.726  18.715  1.00  0.00     0.064 C 
HETATM    4  C13 UNL     1      -1.687   1.121  18.959  1.00  0.00     0.132 C 
HETATM    5  C14 UNL     1      -2.374   1.156  17.632  1.00  0.00     0.086 C 
ENDROOT
BRANCH   5   6
HETATM    6  C15 UNL     1      -3.342   0.019  17.496  1.00  0.00     0.098 C 
HETATM    7  C16 UNL     1      -4.784   0.368  17.176  1.00  0.00     0.083 C 
BRANCH   6   8
HETATM    8  N2  UNL     1      -3.025  -1.107  17.623  1.00  0.00    -0.288 NA
BRANCH   8   9
HETATM    9  O3  UNL     1      -2.692  -2.286  17.759  1.00  0.00    -0.174 OA
BRANCH   9  10
HETATM   10  C17 UNL     1      -3.520  -3.364  18.168  1.00  0.00     0.335 C 
HETATM   11  O4  UNL     1      -2.860  -4.567  18.039  1.00  0.00    -0.345 OA
HETATM   12  C18 UNL     1      -2.363  -4.906  19.287  1.00  0.00     0.180 C 
HETATM   13  C20 UNL     1      -3.461  -4.496  20.229  1.00  0.00     0.185 C 
HETATM   14  C22 UNL     1      -3.973  -3.228  19.583  1.00  0.00     0.208 C 
BRANCH  12  15
HETATM   15  C19 UNL     1      -1.096  -4.159  19.637  1.00  0.00     0.198 C 
BRANCH  15  16
HETATM   16  O5  UNL     1       0.034  -4.879  19.206  1.00  0.00    -0.398 OA
ATOM     17  H5  UNL     1       0.241  -5.572  19.822  1.00  0.00     0.209 HD
ENDBRANCH  15  16
ENDBRANCH  12  15
BRANCH  13  18
HETATM   18  O6  UNL     1      -4.515  -5.409  20.203  1.00  0.00    -0.385 OA
HETATM   19  C21 UNL     1      -5.611  -4.950  20.914  1.00  0.00     0.202 C 
ENDBRANCH  13  18
BRANCH  14  20
HETATM   20  O7  UNL     1      -3.462  -2.083  20.213  1.00  0.00    -0.388 OA
ATOM     21  H7  UNL     1      -3.788  -1.275  19.834  1.00  0.00     0.210 HD
ENDBRANCH  14  20
ENDBRANCH   9  10
ENDBRANCH   8   9
ENDBRANCH   6   8
ENDBRANCH   5   6
BRANCH   1  22
HETATM   22  C9  UNL     1      -1.511   2.217  15.509  1.00  0.00     0.136 C 
HETATM   23  C8  UNL     1      -0.340   3.112  15.289  1.00  0.00     0.084 C 
HETATM   24  C6  UNL     1      -0.710   4.148  14.288  1.00  0.00    -0.017 C 
HETATM   25  N1  UNL     1      -1.946   4.367  14.076  1.00  0.00    -0.371 N 
HETATM   26  C7  UNL     1       0.358   4.920  13.544  1.00  0.00     0.063 C 
HETATM   27  C5  UNL     1      -3.051   3.726  14.695  1.00  0.00     0.220 C 
ATOM     28  H1  UNL     1      -2.167   5.083  13.384  1.00  0.00     0.161 HD
HETATM   29  O8  UNL     1      -2.680   2.929  15.774  1.00  0.00    -0.361 OA
BRANCH  27  30
HETATM   30  C4  UNL     1      -3.761   2.923  13.624  1.00  0.00     0.054 C 
BRANCH  30  31
HETATM   31  C3  UNL     1      -5.009   2.258  14.151  1.00  0.00     0.004 C 
BRANCH  31  32
HETATM   32  C2  UNL     1      -5.148   0.927  13.440  1.00  0.00    -0.004 C 
HETATM   33  C1  UNL     1      -3.738   0.374  13.192  1.00  0.00     0.005 C 
ENDBRANCH  31  32
ENDBRANCH  30  31
ENDBRANCH  27  30
ENDBRANCH   1  22
BRANCH   4  34
HETATM   34  O2  UNL     1      -1.511  -0.152  19.480  1.00  0.00    -0.395 OA
ATOM     35  H2  UNL     1      -2.111  -0.744  19.041  1.00  0.00     0.210 HD
ENDBRANCH   4  34
BRANCH   2  36
HETATM   36  O1  UNL     1       0.728   0.185  17.312  1.00  0.00    -0.395 OA
ATOM     37  H1  UNL     1       1.307   0.149  18.064  1.00  0.00     0.210 HD
ENDBRANCH   2  36
TORSDOF 14
ENDMDL
MODEL 2
REMARK VINA RESULT: -8.606524105      2.303      4.249
REMARK  14 active torsions:
REMARK  status: ('A' for Active; 'I' for Inactive)
REMARK    1  A    between atoms: C2_2  and  C3_3 
REMARK    2  A    between atoms: C3_3  and  C4_4 
REMARK    3  A    between atoms: C4_4  and  C5_5 
REMARK    4  A    between atoms: C9_11  and  C10_12 
REMARK    5  A    between atoms: C11_13  and  O1_14 
REMARK    6  A    between atoms: C13_17  and  O2_18 
REMARK    7  A    between atoms: C14_20  and  C15_21 
REMARK    8  A    between atoms: C15_21  and  N2_23 
REMARK    9  A    between atoms: N2_23  and  O3_24 
REMARK   10  A    between atoms: O3_24  and  C17_25 
REMARK   11  A    between atoms: C18_27  and  C19_28 
REMARK   12  A    between atoms: C19_28  and  O5_29 
REMARK   13  A    between atoms: C20_31  and  O6_32 
REMARK   14  A    between atoms: C22_34  and  O7_35 
ROOT
HETATM    1  C10 UNL     1      -2.377   1.598  14.683  1.00  0.00     0.057 C 
HETATM    2  C11 UNL     1      -1.184   1.641  13.742  1.00  0.00     0.128 C 
HETATM    3  C12 UNL     1      -0.707   3.053  13.669  1.00  0.00     0.064 C 
HETATM    4  C13 UNL     1      -1.121   3.650  14.976  1.00  0.00     0.132 C 
HETATM    5  C14 UNL     1      -2.378   2.931  15.348  1.00  0.00     0.086 C 
ENDROOT
BRANCH   5   6
HETATM    6  C15 UNL     1      -2.528   2.845  16.838  1.00  0.00     0.098 C 
HETATM    7  C16 UNL     1      -2.936   4.111  17.570  1.00  0.00     0.083 C 
BRANCH   6   8
HETATM    8  N2  UNL     1      -2.346   1.852  17.441  1.00  0.00    -0.288 NA
BRANCH   8   9
HETATM    9  O3  UNL     1      -2.154   0.812  18.074  1.00  0.00    -0.174 OA
BRANCH   9  10
HETATM   10  C17 UNL     1      -2.300  -0.517  17.595  1.00  0.00     0.335 C 
HETATM   11  O4  UNL     1      -1.525  -0.723  16.474  1.00  0.00    -0.345 OA
HETATM   12  C18 UNL     1      -0.358  -1.348  16.882  1.00  0.00     0.180 C 
HETATM   13  C20 UNL     1      -0.824  -2.317  17.932  1.00  0.00     0.185 C 
HETATM   14  C22 UNL     1      -1.922  -1.535  18.618  1.00  0.00     0.208 C 
BRANCH  12  15
HETATM   15  C19 UNL     1       0.640  -0.388  17.490  1.00  0.00     0.198 C 
BRANCH  15  16
HETATM   16  O5  UNL     1       0.624   0.840  16.802  1.00  0.00    -0.398 OA
ATOM     17  H5  UNL     1       1.032   1.518  17.326  1.00  0.00     0.209 HD
ENDBRANCH  15  16
ENDBRANCH  12  15
BRANCH  13  18
HETATM   18  O6  UNL     1      -1.431  -3.433  17.356  1.00  0.00    -0.385 OA
HETATM   19  C21 UNL     1      -1.684  -4.422  18.292  1.00  0.00     0.202 C 
ENDBRANCH  13  18
BRANCH  14  20
HETATM   20  O7  UNL     1      -1.477  -0.964  19.820  1.00  0.00    -0.388 OA
ATOM     21  H7  UNL     1      -0.535  -0.844  19.846  1.00  0.00     0.210 HD
ENDBRANCH  14  20
ENDBRANCH   9  10
ENDBRANCH   8   9
ENDBRANCH   6   8
ENDBRANCH   5   6
BRANCH   1  22
HETATM   22  C9  UNL     1      -3.626   1.241  13.949  1.00  0.00     0.136 C 
HETATM   23  C8  UNL     1      -3.471   0.232  12.863  1.00  0.00     0.084 C 
HETATM   24  C6  UNL     1      -4.778   0.064  12.173  1.00  0.00    -0.017 C 
HETATM   25  N1  UNL     1      -5.650   0.981  12.305  1.00  0.00    -0.371 N 
HETATM   26  C7  UNL     1      -5.058  -1.165  11.336  1.00  0.00     0.063 C 
HETATM   27  C5  UNL     1      -5.529   2.182  13.053  1.00  0.00     0.220 C 
ATOM     28  H1  UNL     1      -6.536   0.838  11.820  1.00  0.00     0.161 HD
HETATM   29  O8  UNL     1      -4.232   2.414  13.499  1.00  0.00    -0.361 OA
BRANCH  27  30
HETATM   30  C4  UNL     1      -6.510   2.095  14.203  1.00  0.00     0.054 C 
BRANCH  30  31
HETATM   31  C3  UNL     1      -7.604   1.091  13.938  1.00  0.00     0.004 C 
BRANCH  31  32
HETATM   32  C2  UNL     1      -7.746   0.236  15.182  1.00  0.00    -0.004 C 
HETATM   33  C1  UNL     1      -6.662  -0.849  15.136  1.00  0.00     0.005 C 
ENDBRANCH  31  32
ENDBRANCH  30  31
ENDBRANCH  27  30
ENDBRANCH   1  22
BRANCH   4  34
HETATM   34  O2  UNL     1      -0.083   3.496  15.881  1.00  0.00    -0.395 OA
ATOM     35  H2  UNL     1       0.029   4.311  16.356  1.00  0.00     0.210 HD
ENDBRANCH   4  34
BRANCH   2  36
HETATM   36  O1  UNL     1      -0.138   0.846  14.208  1.00  0.00    -0.395 OA
ATOM     37  H1  UNL     1       0.147   0.224  13.549  1.00  0.00     0.210 HD
ENDBRANCH   2  36
TORSDOF 14
ENDMDL
MODEL 3
REMARK VINA RESULT: -8.389911506      1.968      3.350
REMARK  14 active torsions:
REMARK  status: ('A' for Active; 'I' for Inactive)
REMARK    1  A    between atoms: C2_2  and  C3_3 
REMARK    2  A    between atoms: C3_3  and  C4_4 
REMARK    3  A    between atoms: C4_4  and  C5_5 
REMARK    4  A    between atoms: C9_11  and  C10_12 
REMARK    5  A    between atoms: C11_13  and  O1_14 
REMARK    6  A    between atoms: C13_17  and  O2_18 
REMARK    7  A    between atoms: C14_20  and  C15_21 
REMARK    8  A    between atoms: C15_21  and  N2_23 
REMARK    9  A    between atoms: N2_23  and  O3_24 
REMARK   10  A    between atoms: O3_24  and  C17_25 
REMARK   11  A    between atoms: C18_27  and  C19_28 
REMARK   12  A    between atoms: C19_28  and  O5_29 
REMARK   13  A    between atoms: C20_31  and  O6_32 
REMARK   14  A    between atoms: C22_34  and  O7_35 
ROOT
HETATM    1  C10 UNL     1      -1.956   0.893  15.545  1.00  0.00     0.057 C 
HETATM    2  C11 UNL     1      -1.045   1.641  14.584  1.00  0.00     0.128 C 
HETATM    3  C12 UNL     1      -0.632   2.916  15.242  1.00  0.00     0.064 C 
HETATM    4  C13 UNL     1      -0.709   2.618  16.706  1.00  0.00     0.132 C 
HETATM    5  C14 UNL     1      -1.814   1.619  16.838  1.00  0.00     0.086 C 
ENDROOT
BRANCH   5   6
HETATM    6  C15 UNL     1      -1.575   0.704  18.004  1.00  0.00     0.098 C 
HETATM    7  C16 UNL     1      -1.620   1.319  19.390  1.00  0.00     0.083 C 
BRANCH   6   8
HETATM    8  N2  UNL     1      -1.361  -0.446  17.878  1.00  0.00    -0.288 NA
BRANCH   8   9
HETATM    9  O3  UNL     1      -1.140  -1.651  17.747  1.00  0.00    -0.174 OA
BRANCH   9  10
HETATM   10  C17 UNL     1      -2.094  -2.669  17.486  1.00  0.00     0.335 C 
HETATM   11  O4  UNL     1      -1.472  -3.864  17.193  1.00  0.00    -0.345 OA
HETATM   12  C18 UNL     1      -1.462  -4.624  18.351  1.00  0.00     0.180 C 
HETATM   13  C20 UNL     1      -2.810  -4.356  18.962  1.00  0.00     0.185 C 
HETATM   14  C22 UNL     1      -3.017  -2.893  18.638  1.00  0.00     0.208 C 
BRANCH  12  15
HETATM   15  C19 UNL     1      -0.379  -4.207  19.320  1.00  0.00     0.198 C 
BRANCH  15  16
HETATM   16  O5  UNL     1      -0.210  -5.185  20.318  1.00  0.00    -0.398 OA
ATOM     17  H5  UNL     1       0.208  -4.808  21.083  1.00  0.00     0.209 HD
ENDBRANCH  15  16
ENDBRANCH  12  15
BRANCH  13  18
HETATM   18  O6  UNL     1      -3.815  -5.056  18.295  1.00  0.00    -0.385 OA
HETATM   19  C21 UNL     1      -4.947  -5.204  19.080  1.00  0.00     0.202 C 
ENDBRANCH  13  18
BRANCH  14  20
HETATM   20  O7  UNL     1      -2.727  -2.072  19.738  1.00  0.00    -0.388 OA
ATOM     21  H7  UNL     1      -3.367  -2.149  20.436  1.00  0.00     0.210 HD
ENDBRANCH  14  20
ENDBRANCH   9  10
ENDBRANCH   8   9
ENDBRANCH   6   8
ENDBRANCH   5   6
BRANCH   1  22
HETATM   22  C9  UNL     1      -3.345   0.801  15.005  1.00  0.00     0.136 C 
HETATM   23  C8  UNL     1      -4.132  -0.384  15.450  1.00  0.00     0.084 C 
HETATM   24  C6  UNL     1      -5.445  -0.377  14.750  1.00  0.00    -0.017 C 
HETATM   25  N1  UNL     1      -5.559   0.318  13.690  1.00  0.00    -0.371 N 
HETATM   26  C7  UNL     1      -6.612  -1.177  15.288  1.00  0.00     0.063 C 
HETATM   27  C5  UNL     1      -4.558   1.113  13.072  1.00  0.00     0.220 C 
ATOM     28  H1  UNL     1      -6.471   0.303  13.233  1.00  0.00     0.161 HD
HETATM   29  O8  UNL     1      -3.294   0.913  13.617  1.00  0.00    -0.361 OA
BRANCH  27  30
HETATM   30  C4  UNL     1      -4.996   2.558  13.191  1.00  0.00     0.054 C 
BRANCH  30  31
HETATM   31  C3  UNL     1      -6.488   2.682  13.382  1.00  0.00     0.004 C 
BRANCH  31  32
HETATM   32  C2  UNL     1      -7.066   3.242  12.098  1.00  0.00    -0.004 C 
HETATM   33  C1  UNL     1      -7.734   2.088  11.338  1.00  0.00     0.005 C 
ENDBRANCH  31  32
ENDBRANCH  30  31
ENDBRANCH  27  30
ENDBRANCH   1  22
BRANCH   4  34
HETATM   34  O2  UNL     1       0.529   2.163  17.130  1.00  0.00    -0.395 OA
ATOM     35  H2  UNL     1       0.990   1.800  16.383  1.00  0.00     0.210 HD
ENDBRANCH   4  34
BRANCH   2  36
HETATM   36  O1  UNL     1       0.101   0.904  14.291  1.00  0.00    -0.395 OA
ATOM     37  H1  UNL     1       0.455   1.136  13.441  1.00  0.00     0.210 HD
ENDBRANCH   2  36
TORSDOF 14
ENDMDL
MODEL 4
REMARK VINA RESULT: -8.372635497      0.999      1.793
REMARK  14 active torsions:
REMARK  status: ('A' for Active; 'I' for Inactive)
REMARK    1  A    between atoms: C2_2  and  C3_3 
REMARK    2  A    between atoms: C3_3  and  C4_4 
REMARK    3  A    between atoms: C4_4  and  C5_5 
REMARK    4  A    between atoms: C9_11  and  C10_12 
REMARK    5  A    between atoms: C11_13  and  O1_14 
REMARK    6  A    between atoms: C13_17  and  O2_18 
REMARK    7  A    between atoms: C14_20  and  C15_21 
REMARK    8  A    between atoms: C15_21  and  N2_23 
REMARK    9  A    between atoms: N2_23  and  O3_24 
REMARK   10  A    between atoms: O3_24  and  C17_25 
REMARK   11  A    between atoms: C18_27  and  C19_28 
REMARK   12  A    between atoms: C19_28  and  O5_29 
REMARK   13  A    between atoms: C20_31  and  O6_32 
REMARK   14  A    between atoms: C22_34  and  O7_35 
ROOT
HETATM    1  C10 UNL     1      -1.340   1.088  16.832  1.00  0.00     0.057 C 
HETATM    2  C11 UNL     1      -0.113   1.445  17.657  1.00  0.00     0.128 C 
HETATM    3  C12 UNL     1      -0.577   1.871  19.010  1.00  0.00     0.064 C 
HETATM    4  C13 UNL     1      -1.879   1.158  19.195  1.00  0.00     0.132 C 
HETATM    5  C14 UNL     1      -2.455   1.044  17.820  1.00  0.00     0.086 C 
ENDROOT
BRANCH   5   6
HETATM    6  C15 UNL     1      -3.305  -0.186  17.692  1.00  0.00     0.098 C 
HETATM    7  C16 UNL     1      -4.783   0.016  17.417  1.00  0.00     0.083 C 
BRANCH   6   8
HETATM    8  N2  UNL     1      -2.870  -1.274  17.794  1.00  0.00    -0.288 NA
BRANCH   8   9
HETATM    9  O3  UNL     1      -2.414  -2.414  17.898  1.00  0.00    -0.174 OA
BRANCH   9  10
HETATM   10  C17 UNL     1      -2.076  -3.091  19.100  1.00  0.00     0.335 C 
HETATM   11  O4  UNL     1      -3.169  -3.187  19.934  1.00  0.00    -0.345 OA
HETATM   12  C18 UNL     1      -3.714  -4.449  19.763  1.00  0.00     0.180 C 
HETATM   13  C20 UNL     1      -2.510  -5.341  19.633  1.00  0.00     0.185 C 
HETATM   14  C22 UNL     1      -1.555  -4.467  18.851  1.00  0.00     0.208 C 
BRANCH  12  15
HETATM   15  C19 UNL     1      -4.559  -4.560  18.514  1.00  0.00     0.198 C 
BRANCH  15  16
HETATM   16  O5  UNL     1      -5.194  -3.334  18.240  1.00  0.00    -0.398 OA
ATOM     17  H5  UNL     1      -5.367  -3.251  17.310  1.00  0.00     0.209 HD
ENDBRANCH  15  16
ENDBRANCH  12  15
BRANCH  13  18
HETATM   18  O6  UNL     1      -1.915  -5.569  20.873  1.00  0.00    -0.385 OA
HETATM   19  C21 UNL     1      -2.842  -5.962  21.824  1.00  0.00     0.202 C 
ENDBRANCH  13  18
BRANCH  14  20
HETATM   20  O7  UNL     1      -1.538  -4.807  17.490  1.00  0.00    -0.388 OA
ATOM     21  H7  UNL     1      -1.907  -5.666  17.318  1.00  0.00     0.210 HD
ENDBRANCH  14  20
ENDBRANCH   9  10
ENDBRANCH   8   9
ENDBRANCH   6   8
ENDBRANCH   5   6
BRANCH   1  22
HETATM   22  C9  UNL     1      -1.519   2.042  15.698  1.00  0.00     0.136 C 
HETATM   23  C8  UNL     1      -0.383   2.977  15.456  1.00  0.00     0.084 C 
HETATM   24  C6  UNL     1      -0.759   3.916  14.366  1.00  0.00    -0.017 C 
HETATM   25  N1  UNL     1      -1.994   4.055  14.090  1.00  0.00    -0.371 N 
HETATM   26  C7  UNL     1       0.302   4.684  13.607  1.00  0.00     0.063 C 
HETATM   27  C5  UNL     1      -3.092   3.406  14.713  1.00  0.00     0.220 C 
ATOM     28  H1  UNL     1      -2.220   4.706  13.338  1.00  0.00     0.161 HD
HETATM   29  O8  UNL     1      -2.730   2.712  15.862  1.00  0.00    -0.361 OA
BRANCH  27  30
HETATM   30  C4  UNL     1      -3.717   2.492  13.680  1.00  0.00     0.054 C 
BRANCH  30  31
HETATM   31  C3  UNL     1      -4.967   1.824  14.199  1.00  0.00     0.004 C 
BRANCH  31  32
HETATM   32  C2  UNL     1      -4.956   0.392  13.702  1.00  0.00    -0.004 C 
HETATM   33  C1  UNL     1      -3.608   0.141  13.012  1.00  0.00     0.005 C 
ENDBRANCH  31  32
ENDBRANCH  30  31
ENDBRANCH  27  30
ENDBRANCH   1  22
BRANCH   4  34
HETATM   34  O2  UNL     1      -1.634  -0.056  19.816  1.00  0.00    -0.395 OA
ATOM     35  H2  UNL     1      -2.439  -0.561  19.820  1.00  0.00     0.210 HD
ENDBRANCH   4  34
BRANCH   2  36
HETATM   36  O1  UNL     1       0.736   0.349  17.806  1.00  0.00    -0.395 OA
ATOM     37  H1  UNL     1       0.405  -0.262  18.453  1.00  0.00     0.210 HD
ENDBRANCH   2  36
TORSDOF 14
ENDMDL
MODEL 5
REMARK VINA RESULT: -8.360686835      1.812      3.118
REMARK  14 active torsions:
REMARK  status: ('A' for Active; 'I' for Inactive)
REMARK    1  A    between atoms: C2_2  and  C3_3 
REMARK    2  A    between atoms: C3_3  and  C4_4 
REMARK    3  A    between atoms: C4_4  and  C5_5 
REMARK    4  A    between atoms: C9_11  and  C10_12 
REMARK    5  A    between atoms: C11_13  and  O1_14 
REMARK    6  A    between atoms: C13_17  and  O2_18 
REMARK    7  A    between atoms: C14_20  and  C15_21 
REMARK    8  A    between atoms: C15_21  and  N2_23 
REMARK    9  A    between atoms: N2_23  and  O3_24 
REMARK   10  A    between atoms: O3_24  and  C17_25 
REMARK   11  A    between atoms: C18_27  and  C19_28 
REMARK   12  A    between atoms: C19_28  and  O5_29 
REMARK   13  A    between atoms: C20_31  and  O6_32 
REMARK   14  A    between atoms: C22_34  and  O7_35 
ROOT
HETATM    1  C10 UNL     1      -1.920   1.020  15.114  1.00  0.00     0.057 C 
HETATM    2  C11 UNL     1      -0.898   1.769  14.273  1.00  0.00     0.128 C 
HETATM    3  C12 UNL     1      -0.588   3.055  14.964  1.00  0.00     0.064 C 
HETATM    4  C13 UNL     1      -0.854   2.770  16.409  1.00  0.00     0.132 C 
HETATM    5  C14 UNL     1      -1.956   1.760  16.406  1.00  0.00     0.086 C 
ENDROOT
BRANCH   5   6
HETATM    6  C15 UNL     1      -1.863   0.859  17.603  1.00  0.00     0.098 C 
HETATM    7  C16 UNL     1      -2.126   1.480  18.962  1.00  0.00     0.083 C 
BRANCH   6   8
HETATM    8  N2  UNL     1      -1.602  -0.285  17.521  1.00  0.00    -0.288 NA
BRANCH   8   9
HETATM    9  O3  UNL     1      -1.327  -1.483  17.434  1.00  0.00    -0.174 OA
BRANCH   9  10
HETATM   10  C17 UNL     1      -2.239  -2.557  17.266  1.00  0.00     0.335 C 
HETATM   11  O4  UNL     1      -1.569  -3.738  17.025  1.00  0.00    -0.345 OA
HETATM   12  C18 UNL     1      -1.490  -4.425  18.226  1.00  0.00     0.180 C 
HETATM   13  C20 UNL     1      -2.830  -4.181  18.863  1.00  0.00     0.185 C 
HETATM   14  C22 UNL     1      -3.115  -2.751  18.458  1.00  0.00     0.208 C 
BRANCH  12  15
HETATM   15  C19 UNL     1      -0.400  -3.900  19.132  1.00  0.00     0.198 C 
BRANCH  15  16
HETATM   16  O5  UNL     1      -0.046  -4.870  20.089  1.00  0.00    -0.398 OA
ATOM     17  H5  UNL     1       0.898  -4.917  20.179  1.00  0.00     0.209 HD
ENDBRANCH  15  16
ENDBRANCH  12  15
BRANCH  13  18
HETATM   18  O6  UNL     1      -3.820  -4.966  18.273  1.00  0.00    -0.385 OA
HETATM   19  C21 UNL     1      -4.873  -5.204  19.141  1.00  0.00     0.202 C 
ENDBRANCH  13  18
BRANCH  14  20
HETATM   20  O7  UNL     1      -2.832  -1.852  19.497  1.00  0.00    -0.388 OA
ATOM     21  H7  UNL     1      -3.456  -1.904  20.212  1.00  0.00     0.210 HD
ENDBRANCH  14  20
ENDBRANCH   9  10
ENDBRANCH   8   9
ENDBRANCH   6   8
ENDBRANCH   5   6
BRANCH   1  22
HETATM   22  C9  UNL     1      -3.225   0.907  14.397  1.00  0.00     0.136 C 
HETATM   23  C8  UNL     1      -3.185   0.180  13.096  1.00  0.00     0.084 C 
HETATM   24  C6  UNL     1      -4.533   0.242  12.471  1.00  0.00    -0.017 C 
HETATM   25  N1  UNL     1      -5.342   1.140  12.872  1.00  0.00    -0.371 N 
HETATM   26  C7  UNL     1      -4.929  -0.737  11.387  1.00  0.00     0.063 C 
HETATM   27  C5  UNL     1      -5.111   2.120  13.873  1.00  0.00     0.220 C 
ATOM     28  H1  UNL     1      -6.258   1.157  12.424  1.00  0.00     0.161 HD
HETATM   29  O8  UNL     1      -3.782   2.179  14.277  1.00  0.00    -0.361 OA
BRANCH  27  30
HETATM   30  C4  UNL     1      -6.036   1.805  15.030  1.00  0.00     0.054 C 
BRANCH  30  31
HETATM   31  C3  UNL     1      -7.330   1.183  14.567  1.00  0.00     0.004 C 
BRANCH  31  32
HETATM   32  C2  UNL     1      -7.527  -0.096  15.356  1.00  0.00    -0.004 C 
HETATM   33  C1  UNL     1      -6.196  -0.441  16.037  1.00  0.00     0.005 C 
ENDBRANCH  31  32
ENDBRANCH  30  31
ENDBRANCH  27  30
ENDBRANCH   1  22
BRANCH   4  34
HETATM   34  O2  UNL     1       0.322   2.334  16.997  1.00  0.00    -0.395 OA
ATOM     35  H2  UNL     1       0.258   1.397  17.144  1.00  0.00     0.210 HD
ENDBRANCH   4  34
BRANCH   2  36
HETATM   36  O1  UNL     1       0.284   1.043  14.141  1.00  0.00    -0.395 OA
ATOM     37  H1  UNL     1       0.370   0.674  13.270  1.00  0.00     0.210 HD
ENDBRANCH   2  36
TORSDOF 14
ENDMDL
