MODEL 1
REMARK VINA RESULT: -5.972001358      0.000      0.000
REMARK  11 active torsions:
REMARK  status: ('A' for Active; 'I' for Inactive)
REMARK    1  A    between atoms: C3_3  and  C4_4 
REMARK    2  A    between atoms: C7_7  and  C8_8 
REMARK    3  A    between atoms: C10_11  and  C11_12 
REMARK    4  A    between atoms: C11_12  and  C12_13 
REMARK    5  A    between atoms: C11_12  and  C16_17 
REMARK    6  A    between atoms: C12_13  and  C13_14 
REMARK    7  A    between atoms: C13_14  and  C14_15 
REMARK    8  A    between atoms: C16_17  and  O2_18 
REMARK    9  A    between atoms: C16_17  and  C17_20 
REMARK   10  A    between atoms: C17_20  and  N1_21 
REMARK   11  A    between atoms: N2_24  and  C20_25 
ROOT
HETATM    1  C1  UNL     1      -0.606   6.628   5.543  1.00  0.00     0.012 C 
HETATM    2  C2  UNL     1      -1.008   7.759   5.734  1.00  0.00    -0.117 C 
HETATM    3  C3  UNL     1      -1.516   9.111   5.958  1.00  0.00     0.102 C 
ENDROOT
BRANCH   3   4
HETATM    4  C4  UNL     1      -0.619   9.776   7.009  1.00  0.00    -0.028 A 
HETATM    5  C5  UNL     1      -0.307   8.883   8.163  1.00  0.00     0.016 C 
HETATM    6  C6  UNL     1      -1.006  11.209   7.353  1.00  0.00     0.018 A 
HETATM    7  C7  UNL     1       0.243  10.884   6.595  1.00  0.00     0.028 A 
BRANCH   7   8
HETATM    8  C8  UNL     1       1.537  11.200   7.282  1.00  0.00     0.217 C 
HETATM    9  C9  UNL     1       2.645  11.323   6.224  1.00  0.00     0.204 C 
HETATM   10  O1  UNL     1       3.569  12.062   6.927  1.00  0.00    -0.357 OA
HETATM   11  C10 UNL     1       2.853  13.094   7.452  1.00  0.00     0.328 C 
HETATM   12  N3  UNL     1       1.579  12.525   7.842  1.00  0.00    -0.042 N 
ATOM     13  H32 UNL     1       0.780  13.101   7.576  1.00  0.00     0.280 HD
ATOM     14  H31 UNL     1       1.419  12.543   8.849  1.00  0.00     0.280 HD
BRANCH  11  15
HETATM   15  C11 UNL     1       3.482  13.914   8.508  1.00  0.00     0.072 C 
BRANCH  15  16
HETATM   16  C12 UNL     1       2.955  15.332   8.466  1.00  0.00     0.011 C 
BRANCH  16  17
HETATM   17  C13 UNL     1       2.814  15.984   9.801  1.00  0.00     0.000 C 
BRANCH  17  18
HETATM   18  C14 UNL     1       2.032  15.050  10.726  1.00  0.00    -0.005 C 
HETATM   19  C15 UNL     1       2.681  15.044  12.089  1.00  0.00     0.005 C 
ENDBRANCH  17  18
ENDBRANCH  16  17
ENDBRANCH  15  16
BRANCH  15  20
HETATM   20  C16 UNL     1       4.969  13.852   8.639  1.00  0.00     0.144 C 
BRANCH  20  21
HETATM   21  O2  UNL     1       5.574  13.934   7.386  1.00  0.00    -0.393 OA
ATOM     22  H2  UNL     1       6.062  13.141   7.199  1.00  0.00     0.210 HD
ENDBRANCH  20  21
BRANCH  20  23
HETATM   23  C17 UNL     1       5.441  12.720   9.474  1.00  0.00     0.154 C 
BRANCH  23  24
HETATM   24  N1  UNL     1       6.280  13.058  10.567  1.00  0.00    -0.387 N 
HETATM   25  C18 UNL     1       6.196  14.349  11.104  1.00  0.00     0.088 C 
HETATM   26  C19 UNL     1       7.168  14.435  12.281  1.00  0.00     0.317 C 
HETATM   27  N2  UNL     1       6.587  13.626  13.326  1.00  0.00     0.098 N 
HETATM   28  C22 UNL     1       6.258  12.297  12.902  1.00  0.00     0.237 C 
HETATM   29  C23 UNL     1       4.789  12.066  13.185  1.00  0.00     0.044 C 
HETATM   30  C24 UNL     1       6.578  12.004  11.471  1.00  0.00     0.157 C 
BRANCH  27  31
HETATM   31  C20 UNL     1       7.388  13.639  14.534  1.00  0.00     0.269 C 
HETATM   32  C21 UNL     1       8.723  12.990  14.292  1.00  0.00     0.037 C 
ENDBRANCH  27  31
ENDBRANCH  23  24
ENDBRANCH  20  23
ENDBRANCH  15  20
ENDBRANCH  11  15
ENDBRANCH   7   8
ENDBRANCH   3   4
TORSDOF 11
ENDMDL
MODEL 2
REMARK VINA RESULT: -5.969720707      0.904      1.686
REMARK  11 active torsions:
REMARK  status: ('A' for Active; 'I' for Inactive)
REMARK    1  A    between atoms: C3_3  and  C4_4 
REMARK    2  A    between atoms: C7_7  and  C8_8 
REMARK    3  A    between atoms: C10_11  and  C11_12 
REMARK    4  A    between atoms: C11_12  and  C12_13 
REMARK    5  A    between atoms: C11_12  and  C16_17 
REMARK    6  A    between atoms: C12_13  and  C13_14 
REMARK    7  A    between atoms: C13_14  and  C14_15 
REMARK    8  A    between atoms: C16_17  and  O2_18 
REMARK    9  A    between atoms: C16_17  and  C17_20 
REMARK   10  A    between atoms: C17_20  and  N1_21 
REMARK   11  A    between atoms: N2_24  and  C20_25 
ROOT
HETATM    1  C1  UNL     1      -0.618   6.539   5.592  1.00  0.00     0.012 C 
HETATM    2  C2  UNL     1      -0.981   7.690   5.735  1.00  0.00    -0.117 C 
HETATM    3  C3  UNL     1      -1.441   9.068   5.899  1.00  0.00     0.102 C 
ENDROOT
BRANCH   3   4
HETATM    4  C4  UNL     1      -0.563   9.726   6.971  1.00  0.00    -0.028 A 
HETATM    5  C5  UNL     1      -0.364   8.866   8.174  1.00  0.00     0.016 C 
HETATM    6  C6  UNL     1      -0.885  11.191   7.236  1.00  0.00     0.018 A 
HETATM    7  C7  UNL     1       0.382  10.766   6.561  1.00  0.00     0.028 A 
BRANCH   7   8
HETATM    8  C8  UNL     1       1.654  11.038   7.305  1.00  0.00     0.217 C 
HETATM    9  C9  UNL     1       2.802  11.180   6.293  1.00  0.00     0.204 C 
HETATM   10  O1  UNL     1       3.709  11.880   7.054  1.00  0.00    -0.357 OA
HETATM   11  C10 UNL     1       2.989  12.905   7.588  1.00  0.00     0.328 C 
HETATM   12  N3  UNL     1       1.694  12.343   7.911  1.00  0.00    -0.042 N 
ATOM     13  H32 UNL     1       0.914  12.940   7.637  1.00  0.00     0.280 HD
ATOM     14  H31 UNL     1       1.497  12.329   8.912  1.00  0.00     0.280 HD
BRANCH  11  15
HETATM   15  C11 UNL     1       3.590  13.679   8.693  1.00  0.00     0.072 C 
BRANCH  15  16
HETATM   16  C12 UNL     1       2.784  14.930   8.968  1.00  0.00     0.011 C 
BRANCH  16  17
HETATM   17  C13 UNL     1       2.317  15.073  10.378  1.00  0.00     0.000 C 
BRANCH  17  18
HETATM   18  C14 UNL     1       0.982  15.820  10.382  1.00  0.00    -0.005 C 
HETATM   19  C15 UNL     1       0.129  15.318   9.243  1.00  0.00     0.005 C 
ENDBRANCH  17  18
ENDBRANCH  16  17
ENDBRANCH  15  16
BRANCH  15  20
HETATM   20  C16 UNL     1       5.062  13.938   8.638  1.00  0.00     0.144 C 
BRANCH  20  21
HETATM   21  O2  UNL     1       5.516  13.890   7.320  1.00  0.00    -0.393 OA
ATOM     22  H2  UNL     1       5.701  12.994   7.065  1.00  0.00     0.210 HD
ENDBRANCH  20  21
BRANCH  20  23
HETATM   23  C17 UNL     1       5.843  13.108   9.587  1.00  0.00     0.154 C 
BRANCH  23  24
HETATM   24  N1  UNL     1       5.438  13.165  10.945  1.00  0.00    -0.387 N 
HETATM   25  C18 UNL     1       5.413  11.977  11.689  1.00  0.00     0.088 C 
HETATM   26  C19 UNL     1       4.982  12.322  13.115  1.00  0.00     0.317 C 
HETATM   27  N2  UNL     1       6.097  13.030  13.698  1.00  0.00     0.098 N 
HETATM   28  C22 UNL     1       6.543  14.140  12.910  1.00  0.00     0.237 C 
HETATM   29  C23 UNL     1       8.016  13.947  12.619  1.00  0.00     0.044 C 
HETATM   30  C24 UNL     1       5.774  14.354  11.644  1.00  0.00     0.157 C 
BRANCH  27  31
HETATM   31  C20 UNL     1       5.849  13.395  15.078  1.00  0.00     0.269 C 
HETATM   32  C21 UNL     1       4.652  12.659  15.614  1.00  0.00     0.037 C 
ENDBRANCH  27  31
ENDBRANCH  23  24
ENDBRANCH  20  23
ENDBRANCH  15  20
ENDBRANCH  11  15
ENDBRANCH   7   8
ENDBRANCH   3   4
TORSDOF 11
ENDMDL
MODEL 3
REMARK VINA RESULT: -5.831490090      1.540      2.333
REMARK  11 active torsions:
REMARK  status: ('A' for Active; 'I' for Inactive)
REMARK    1  A    between atoms: C3_3  and  C4_4 
REMARK    2  A    between atoms: C7_7  and  C8_8 
REMARK    3  A    between atoms: C10_11  and  C11_12 
REMARK    4  A    between atoms: C11_12  and  C12_13 
REMARK    5  A    between atoms: C11_12  and  C16_17 
REMARK    6  A    between atoms: C12_13  and  C13_14 
REMARK    7  A    between atoms: C13_14  and  C14_15 
REMARK    8  A    between atoms: C16_17  and  O2_18 
REMARK    9  A    between atoms: C16_17  and  C17_20 
REMARK   10  A    between atoms: C17_20  and  N1_21 
REMARK   11  A    between atoms: N2_24  and  C20_25 
ROOT
HETATM    1  C1  UNL     1      -0.604   5.761   4.387  1.00  0.00     0.012 C 
HETATM    2  C2  UNL     1      -1.068   6.595   5.140  1.00  0.00    -0.117 C 
HETATM    3  C3  UNL     1      -1.647   7.583   6.050  1.00  0.00     0.102 C 
ENDROOT
BRANCH   3   4
HETATM    4  C4  UNL     1      -0.490   8.377   6.668  1.00  0.00    -0.028 A 
HETATM    5  C5  UNL     1       0.709   7.536   6.958  1.00  0.00     0.016 C 
HETATM    6  C6  UNL     1      -0.909   9.351   7.762  1.00  0.00     0.018 A 
HETATM    7  C7  UNL     1      -0.421   9.818   6.426  1.00  0.00     0.028 A 
BRANCH   7   8
HETATM    8  C8  UNL     1       0.873  10.574   6.419  1.00  0.00     0.217 C 
HETATM    9  C9  UNL     1       0.895  11.513   5.202  1.00  0.00     0.204 C 
HETATM   10  O1  UNL     1       1.845  12.420   5.614  1.00  0.00    -0.357 OA
HETATM   11  C10 UNL     1       1.465  12.763   6.876  1.00  0.00     0.328 C 
HETATM   12  N3  UNL     1       0.977  11.541   7.481  1.00  0.00    -0.042 N 
ATOM     13  H32 UNL     1       0.108  11.666   8.000  1.00  0.00     0.280 HD
ATOM     14  H31 UNL     1       1.547  11.221   8.264  1.00  0.00     0.280 HD
BRANCH  11  15
HETATM   15  C11 UNL     1       2.432  13.495   7.720  1.00  0.00     0.072 C 
BRANCH  15  16
HETATM   16  C12 UNL     1       2.000  14.935   7.898  1.00  0.00     0.011 C 
BRANCH  16  17
HETATM   17  C13 UNL     1       1.092  15.175   9.057  1.00  0.00     0.000 C 
BRANCH  17  18
HETATM   18  C14 UNL     1      -0.269  15.632   8.531  1.00  0.00    -0.005 C 
HETATM   19  C15 UNL     1      -1.311  14.601   8.887  1.00  0.00     0.005 C 
ENDBRANCH  17  18
ENDBRANCH  16  17
ENDBRANCH  15  16
BRANCH  15  20
HETATM   20  C16 UNL     1       3.883  13.361   7.387  1.00  0.00     0.144 C 
BRANCH  20  21
HETATM   21  O2  UNL     1       4.210  12.026   7.158  1.00  0.00    -0.393 OA
ATOM     22  H2  UNL     1       5.057  11.959   6.733  1.00  0.00     0.210 HD
ENDBRANCH  20  21
BRANCH  20  23
HETATM   23  C17 UNL     1       4.774  14.056   8.348  1.00  0.00     0.154 C 
BRANCH  23  24
HETATM   24  N1  UNL     1       4.867  13.481   9.641  1.00  0.00    -0.387 N 
HETATM   25  C18 UNL     1       6.003  12.726   9.961  1.00  0.00     0.088 C 
HETATM   26  C19 UNL     1       5.868  12.259  11.411  1.00  0.00     0.317 C 
HETATM   27  N2  UNL     1       6.044  13.443  12.219  1.00  0.00     0.098 N 
HETATM   28  C22 UNL     1       5.182  14.523  11.843  1.00  0.00     0.237 C 
HETATM   29  C23 UNL     1       6.046  15.729  11.542  1.00  0.00     0.044 C 
HETATM   30  C24 UNL     1       4.271  14.222  10.695  1.00  0.00     0.157 C 
BRANCH  27  31
HETATM   31  C20 UNL     1       5.977  13.149  13.637  1.00  0.00     0.269 C 
HETATM   32  C21 UNL     1       5.029  12.011  13.898  1.00  0.00     0.037 C 
ENDBRANCH  27  31
ENDBRANCH  23  24
ENDBRANCH  20  23
ENDBRANCH  15  20
ENDBRANCH  11  15
ENDBRANCH   7   8
ENDBRANCH   3   4
TORSDOF 11
ENDMDL
MODEL 4
REMARK VINA RESULT: -5.749441899      0.824      1.304
REMARK  11 active torsions:
REMARK  status: ('A' for Active; 'I' for Inactive)
REMARK    1  A    between atoms: C3_3  and  C4_4 
REMARK    2  A    between atoms: C7_7  and  C8_8 
REMARK    3  A    between atoms: C10_11  and  C11_12 
REMARK    4  A    between atoms: C11_12  and  C12_13 
REMARK    5  A    between atoms: C11_12  and  C16_17 
REMARK    6  A    between atoms: C12_13  and  C13_14 
REMARK    7  A    between atoms: C13_14  and  C14_15 
REMARK    8  A    between atoms: C16_17  and  O2_18 
REMARK    9  A    between atoms: C16_17  and  C17_20 
REMARK   10  A    between atoms: C17_20  and  N1_21 
REMARK   11  A    between atoms: N2_24  and  C20_25 
ROOT
HETATM    1  C1  UNL     1      -0.542   6.602   5.500  1.00  0.00     0.012 C 
HETATM    2  C2  UNL     1      -1.000   7.708   5.711  1.00  0.00    -0.117 C 
HETATM    3  C3  UNL     1      -1.575   9.029   5.958  1.00  0.00     0.102 C 
ENDROOT
BRANCH   3   4
HETATM    4  C4  UNL     1      -0.699   9.727   7.005  1.00  0.00    -0.028 A 
HETATM    5  C5  UNL     1      -0.414   8.873   8.195  1.00  0.00     0.016 C 
HETATM    6  C6  UNL     1      -1.090  11.172   7.293  1.00  0.00     0.018 A 
HETATM    7  C7  UNL     1       0.174  10.819   6.573  1.00  0.00     0.028 A 
BRANCH   7   8
HETATM    8  C8  UNL     1       1.454  11.156   7.277  1.00  0.00     0.217 C 
HETATM    9  C9  UNL     1       2.581  11.259   6.237  1.00  0.00     0.204 C 
HETATM   10  O1  UNL     1       3.489  12.018   6.940  1.00  0.00    -0.357 OA
HETATM   11  C10 UNL     1       2.760  13.060   7.427  1.00  0.00     0.328 C 
HETATM   12  N3  UNL     1       1.480  12.495   7.806  1.00  0.00    -0.042 N 
ATOM     13  H32 UNL     1       0.685  13.062   7.512  1.00  0.00     0.280 HD
ATOM     14  H31 UNL     1       1.301  12.536   8.810  1.00  0.00     0.280 HD
BRANCH  11  15
HETATM   15  C11 UNL     1       3.366  13.906   8.475  1.00  0.00     0.072 C 
BRANCH  15  16
HETATM   16  C12 UNL     1       2.825  15.318   8.399  1.00  0.00     0.011 C 
BRANCH  16  17
HETATM   17  C13 UNL     1       3.654  16.341   9.100  1.00  0.00     0.000 C 
BRANCH  17  18
HETATM   18  C14 UNL     1       4.074  17.411   8.090  1.00  0.00    -0.005 C 
HETATM   19  C15 UNL     1       5.579  17.510   8.069  1.00  0.00     0.005 C 
ENDBRANCH  17  18
ENDBRANCH  16  17
ENDBRANCH  15  16
BRANCH  15  20
HETATM   20  C16 UNL     1       4.852  13.862   8.628  1.00  0.00     0.144 C 
BRANCH  20  21
HETATM   21  O2  UNL     1       5.472  13.880   7.379  1.00  0.00    -0.393 OA
ATOM     22  H2  UNL     1       5.509  14.766   7.040  1.00  0.00     0.210 HD
ENDBRANCH  20  21
BRANCH  20  23
HETATM   23  C17 UNL     1       5.320  12.781   9.530  1.00  0.00     0.154 C 
BRANCH  23  24
HETATM   24  N1  UNL     1       6.239  13.165  10.540  1.00  0.00    -0.387 N 
HETATM   25  C18 UNL     1       6.129  14.446  11.095  1.00  0.00     0.088 C 
HETATM   26  C19 UNL     1       7.203  14.587  12.175  1.00  0.00     0.317 C 
HETATM   27  N2  UNL     1       6.775  13.740  13.263  1.00  0.00     0.098 N 
HETATM   28  C22 UNL     1       6.487  12.396  12.860  1.00  0.00     0.237 C 
HETATM   29  C23 UNL     1       5.069  12.074  13.279  1.00  0.00     0.044 C 
HETATM   30  C24 UNL     1       6.685  12.127  11.401  1.00  0.00     0.157 C 
BRANCH  27  31
HETATM   31  C20 UNL     1       7.686  13.797  14.389  1.00  0.00     0.269 C 
HETATM   32  C21 UNL     1       8.879  12.913  14.150  1.00  0.00     0.037 C 
ENDBRANCH  27  31
ENDBRANCH  23  24
ENDBRANCH  20  23
ENDBRANCH  15  20
ENDBRANCH  11  15
ENDBRANCH   7   8
ENDBRANCH   3   4
TORSDOF 11
ENDMDL
MODEL 5
REMARK VINA RESULT: -5.737887107      0.837      1.394
REMARK  11 active torsions:
REMARK  status: ('A' for Active; 'I' for Inactive)
REMARK    1  A    between atoms: C3_3  and  C4_4 
REMARK    2  A    between atoms: C7_7  and  C8_8 
REMARK    3  A    between atoms: C10_11  and  C11_12 
REMARK    4  A    between atoms: C11_12  and  C12_13 
REMARK    5  A    between atoms: C11_12  and  C16_17 
REMARK    6  A    between atoms: C12_13  and  C13_14 
REMARK    7  A    between atoms: C13_14  and  C14_15 
REMARK    8  A    between atoms: C16_17  and  O2_18 
REMARK    9  A    between atoms: C16_17  and  C17_20 
REMARK   10  A    between atoms: C17_20  and  N1_21 
REMARK   11  A    between atoms: N2_24  and  C20_25 
ROOT
HETATM    1  C1  UNL     1      -0.551   6.569   5.498  1.00  0.00     0.012 C 
HETATM    2  C2  UNL     1      -1.012   7.670   5.728  1.00  0.00    -0.117 C 
HETATM    3  C3  UNL     1      -1.590   8.986   5.999  1.00  0.00     0.102 C 
ENDROOT
BRANCH   3   4
HETATM    4  C4  UNL     1      -0.677   9.694   7.007  1.00  0.00    -0.028 A 
HETATM    5  C5  UNL     1      -0.400   8.876   8.224  1.00  0.00     0.016 C 
HETATM    6  C6  UNL     1      -1.020  11.160   7.245  1.00  0.00     0.018 A 
HETATM    7  C7  UNL     1       0.222  10.742   6.522  1.00  0.00     0.028 A 
BRANCH   7   8
HETATM    8  C8  UNL     1       1.522  11.065   7.194  1.00  0.00     0.217 C 
HETATM    9  C9  UNL     1       2.589  11.322   6.118  1.00  0.00     0.204 C 
HETATM   10  O1  UNL     1       3.501  12.047   6.850  1.00  0.00    -0.357 OA
HETATM   11  C10 UNL     1       2.756  13.001   7.475  1.00  0.00     0.328 C 
HETATM   12  N3  UNL     1       1.522  12.344   7.855  1.00  0.00    -0.042 N 
ATOM     13  H32 UNL     1       0.690  12.901   7.659  1.00  0.00     0.280 HD
ATOM     14  H31 UNL     1       1.394  12.277   8.865  1.00  0.00     0.280 HD
BRANCH  11  15
HETATM   15  C11 UNL     1       3.381  13.766   8.573  1.00  0.00     0.072 C 
BRANCH  15  16
HETATM   16  C12 UNL     1       2.747  15.134   8.699  1.00  0.00     0.011 C 
BRANCH  16  17
HETATM   17  C13 UNL     1       2.345  15.756   7.404  1.00  0.00     0.000 C 
BRANCH  17  18
HETATM   18  C14 UNL     1       0.921  16.299   7.538  1.00  0.00    -0.005 C 
HETATM   19  C15 UNL     1      -0.008  15.474   6.681  1.00  0.00     0.005 C 
ENDBRANCH  17  18
ENDBRANCH  16  17
ENDBRANCH  15  16
BRANCH  15  20
HETATM   20  C16 UNL     1       4.875  13.812   8.623  1.00  0.00     0.144 C 
BRANCH  20  21
HETATM   21  O2  UNL     1       5.403  13.914   7.337  1.00  0.00    -0.393 OA
ATOM     22  H2  UNL     1       6.089  14.570   7.310  1.00  0.00     0.210 HD
ENDBRANCH  20  21
BRANCH  20  23
HETATM   23  C17 UNL     1       5.471  12.733   9.448  1.00  0.00     0.154 C 
BRANCH  23  24
HETATM   24  N1  UNL     1       6.270  13.152  10.542  1.00  0.00    -0.387 N 
HETATM   25  C18 UNL     1       6.076  14.439  11.061  1.00  0.00     0.088 C 
HETATM   26  C19 UNL     1       7.028  14.620  12.244  1.00  0.00     0.317 C 
HETATM   27  N2  UNL     1       6.507  13.779  13.295  1.00  0.00     0.098 N 
HETATM   28  C22 UNL     1       6.292  12.423  12.887  1.00  0.00     0.237 C 
HETATM   29  C23 UNL     1       4.845  12.075  13.162  1.00  0.00     0.044 C 
HETATM   30  C24 UNL     1       6.646  12.138  11.462  1.00  0.00     0.157 C 
BRANCH  27  31
HETATM   31  C20 UNL     1       7.294  13.874  14.509  1.00  0.00     0.269 C 
HETATM   32  C21 UNL     1       8.497  12.974  14.432  1.00  0.00     0.037 C 
ENDBRANCH  27  31
ENDBRANCH  23  24
ENDBRANCH  20  23
ENDBRANCH  15  20
ENDBRANCH  11  15
ENDBRANCH   7   8
ENDBRANCH   3   4
TORSDOF 11
ENDMDL
