MODEL 1
REMARK VINA RESULT: -9.499428641      0.000      0.000
REMARK  8 active torsions:
REMARK  status: ('A' for Active; 'I' for Inactive)
REMARK    1  A    between atoms: C2_3  and  O1_4 
REMARK    2  A    between atoms: C3_6  and  N2_7 
REMARK    3  A    between atoms: N3_9  and  C4_11 
REMARK    4  A    between atoms: C5_12  and  O2_13 
REMARK    5  A    between atoms: N4_17  and  O4_18 
REMARK    6  A    between atoms: N5_20  and  C7_21 
REMARK    7  A    between atoms: C7_21  and  C8_22 
REMARK    8  A    between atoms: C10_29  and  N8_30 
ROOT
HETATM    1  C4  UNL     1      18.063  14.938   6.213  1.00  0.00     0.157 A 
HETATM    2  C5  UNL     1      18.629  15.094   4.970  1.00  0.00     0.172 A 
HETATM    3  C6  UNL     1      19.147  16.311   4.569  1.00  0.00     0.323 A 
HETATM    4  O3  UNL     1      19.674  16.502   3.446  1.00  0.00    -0.261 OA
HETATM    5  N4  UNL     1      19.076  17.333   5.438  1.00  0.00    -0.114 N 
HETATM    6  N5  UNL     1      18.534  17.216   6.645  1.00  0.00    -0.217 N 
HETATM    7  C9  UNL     1      18.026  16.042   7.055  1.00  0.00     0.295 A 
HETATM    8  O6  UNL     1      17.500  15.898   8.207  1.00  0.00    -0.264 OA
ENDROOT
BRANCH   1   9
HETATM    9  N3  UNL     1      17.554  13.681   6.565  1.00  0.00    -0.291 N 
HETATM   10  N2  UNL     1      16.813  12.982   5.804  1.00  0.00    -0.281 N 
ATOM     11  H2  UNL     1      16.569  13.348   4.884  1.00  0.00     0.188 HD
ATOM     12  H3  UNL     1      17.791  13.305   7.483  1.00  0.00     0.187 HD
BRANCH  10  13
HETATM   13  C3  UNL     1      16.313  11.709   6.190  1.00  0.00     0.187 A 
HETATM   14  C2  UNL     1      16.628  10.984   7.329  1.00  0.00     0.204 A 
HETATM   15  N1  UNL     1      15.951   9.824   7.342  1.00  0.00    -0.163 N 
HETATM   16  C1  UNL     1      16.003   8.776   8.371  1.00  0.00     0.177 C 
HETATM   17  C10 UNL     1      15.209   9.808   6.222  1.00  0.00     0.681 A 
HETATM   18  N7  UNL     1      15.426  10.942   5.529  1.00  0.00    -0.171 N 
ATOM     19  H7  UNL     1      14.987  11.183   4.640  1.00  0.00     0.186 HD
BRANCH  14  20
HETATM   20  O1  UNL     1      17.512  11.383   8.321  1.00  0.00    -0.343 OA
ATOM     21  H1  UNL     1      18.192  12.035   8.200  1.00  0.00     0.219 HD
ENDBRANCH  14  20
BRANCH  17  22
HETATM   22  N8  UNL     1      14.399   8.844   5.858  1.00  0.00    -0.234 N 
ATOM     23  H82 UNL     1      13.387   8.927   5.770  1.00  0.00     0.174 HD
ATOM     24  H81 UNL     1      14.680   7.893   5.619  1.00  0.00     0.174 HD
ENDBRANCH  17  22
ENDBRANCH  10  13
ENDBRANCH   1   9
BRANCH   2  25
HETATM   25  O2  UNL     1      18.720  14.053   4.045  1.00  0.00    -0.354 OA
ATOM     26  H2  UNL     1      19.501  13.888   3.530  1.00  0.00     0.218 HD
ENDBRANCH   2  25
BRANCH   6  27
HETATM   27  C7  UNL     1      18.487  18.362   7.541  1.00  0.00     0.254 C 
BRANCH  27  28
HETATM   28  C8  UNL     1      19.757  18.516   8.290  1.00  0.00     0.251 C 
HETATM   29  N6  UNL     1      19.774  19.336   9.435  1.00  0.00    -0.061 NA
HETATM   30  O5  UNL     1      20.789  17.920   7.903  1.00  0.00    -0.275 OA
ENDBRANCH  27  28
ENDBRANCH   6  27
BRANCH   5  31
HETATM   31  O4  UNL     1      19.582  18.556   5.067  1.00  0.00    -0.265 OA
ATOM     32  H4  UNL     1      20.464  18.786   5.334  1.00  0.00     0.247 HD
ENDBRANCH   5  31
TORSDOF 8
ENDMDL
MODEL 2
REMARK VINA RESULT: -9.419589532      1.874      2.556
REMARK  8 active torsions:
REMARK  status: ('A' for Active; 'I' for Inactive)
REMARK    1  A    between atoms: C2_3  and  O1_4 
REMARK    2  A    between atoms: C3_6  and  N2_7 
REMARK    3  A    between atoms: N3_9  and  C4_11 
REMARK    4  A    between atoms: C5_12  and  O2_13 
REMARK    5  A    between atoms: N4_17  and  O4_18 
REMARK    6  A    between atoms: N5_20  and  C7_21 
REMARK    7  A    between atoms: C7_21  and  C8_22 
REMARK    8  A    between atoms: C10_29  and  N8_30 
ROOT
HETATM    1  C4  UNL     1      18.803  15.133   7.198  1.00  0.00     0.157 A 
HETATM    2  C5  UNL     1      20.166  15.030   7.052  1.00  0.00     0.172 A 
HETATM    3  C6  UNL     1      20.983  16.138   7.173  1.00  0.00     0.323 A 
HETATM    4  O3  UNL     1      22.232  16.094   7.049  1.00  0.00    -0.261 OA
HETATM    5  N4  UNL     1      20.396  17.317   7.439  1.00  0.00    -0.114 N 
HETATM    6  N5  UNL     1      19.082  17.450   7.585  1.00  0.00    -0.217 N 
HETATM    7  C9  UNL     1      18.271  16.386   7.472  1.00  0.00     0.295 A 
HETATM    8  O6  UNL     1      17.007  16.482   7.607  1.00  0.00    -0.264 OA
ENDROOT
BRANCH   1   9
HETATM    9  N3  UNL     1      18.026  13.975   7.064  1.00  0.00    -0.291 N 
HETATM   10  N2  UNL     1      18.209  12.920   7.749  1.00  0.00    -0.281 N 
ATOM     11  H2  UNL     1      18.961  12.904   8.438  1.00  0.00     0.188 HD
ATOM     12  H3  UNL     1      17.270  13.978   6.378  1.00  0.00     0.187 HD
BRANCH  10  13
HETATM   13  C3  UNL     1      17.401  11.760   7.589  1.00  0.00     0.187 A 
HETATM   14  C2  UNL     1      16.561  11.451   6.531  1.00  0.00     0.204 A 
HETATM   15  N1  UNL     1      15.966  10.266   6.742  1.00  0.00    -0.163 N 
HETATM   16  C1  UNL     1      15.008   9.584   5.862  1.00  0.00     0.177 C 
HETATM   17  C10 UNL     1      16.424   9.820   7.925  1.00  0.00     0.681 A 
HETATM   18  N7  UNL     1      17.287  10.719   8.434  1.00  0.00    -0.171 N 
ATOM     19  H7  UNL     1      17.779  10.626   9.323  1.00  0.00     0.186 HD
BRANCH  14  20
HETATM   20  O1  UNL     1      16.352  12.241   5.410  1.00  0.00    -0.343 OA
ATOM     21  H1  UNL     1      16.727  13.105   5.286  1.00  0.00     0.219 HD
ENDBRANCH  14  20
BRANCH  17  22
HETATM   22  N8  UNL     1      16.085   8.690   8.495  1.00  0.00    -0.234 N 
ATOM     23  H82 UNL     1      16.665   7.851   8.528  1.00  0.00     0.174 HD
ATOM     24  H81 UNL     1      15.204   8.508   8.975  1.00  0.00     0.174 HD
ENDBRANCH  17  22
ENDBRANCH  10  13
ENDBRANCH   1   9
BRANCH   2  25
HETATM   25  O2  UNL     1      20.809  13.821   6.777  1.00  0.00    -0.354 OA
ATOM     26  H2  UNL     1      20.983  13.167   7.443  1.00  0.00     0.218 HD
ENDBRANCH   2  25
BRANCH   6  27
HETATM   27  C7  UNL     1      18.506  18.755   7.872  1.00  0.00     0.254 C 
BRANCH  27  28
HETATM   28  C8  UNL     1      18.152  19.476   6.627  1.00  0.00     0.251 C 
HETATM   29  N6  UNL     1      16.961  20.228   6.593  1.00  0.00    -0.061 NA
HETATM   30  O5  UNL     1      18.907  19.411   5.629  1.00  0.00    -0.275 OA
ENDBRANCH  27  28
ENDBRANCH   6  27
BRANCH   5  31
HETATM   31  O4  UNL     1      21.182  18.437   7.565  1.00  0.00    -0.265 OA
ATOM     32  H4  UNL     1      20.903  19.129   8.152  1.00  0.00     0.247 HD
ENDBRANCH   5  31
TORSDOF 8
ENDMDL
MODEL 3
REMARK VINA RESULT: -9.218587665      1.806      2.278
REMARK  8 active torsions:
REMARK  status: ('A' for Active; 'I' for Inactive)
REMARK    1  A    between atoms: C2_3  and  O1_4 
REMARK    2  A    between atoms: C3_6  and  N2_7 
REMARK    3  A    between atoms: N3_9  and  C4_11 
REMARK    4  A    between atoms: C5_12  and  O2_13 
REMARK    5  A    between atoms: N4_17  and  O4_18 
REMARK    6  A    between atoms: N5_20  and  C7_21 
REMARK    7  A    between atoms: C7_21  and  C8_22 
REMARK    8  A    between atoms: C10_29  and  N8_30 
ROOT
HETATM    1  C4  UNL     1      19.151  15.329   7.458  1.00  0.00     0.157 A 
HETATM    2  C5  UNL     1      20.493  15.423   7.176  1.00  0.00     0.172 A 
HETATM    3  C6  UNL     1      21.120  16.652   7.089  1.00  0.00     0.323 A 
HETATM    4  O3  UNL     1      22.343  16.788   6.834  1.00  0.00    -0.261 OA
HETATM    5  N4  UNL     1      20.370  17.748   7.291  1.00  0.00    -0.114 N 
HETATM    6  N5  UNL     1      19.072  17.692   7.565  1.00  0.00    -0.217 N 
HETATM    7  C9  UNL     1      18.444  16.508   7.654  1.00  0.00     0.295 A 
HETATM    8  O6  UNL     1      17.198  16.421   7.915  1.00  0.00    -0.264 OA
ENDROOT
BRANCH   1   9
HETATM    9  N3  UNL     1      18.570  14.057   7.534  1.00  0.00    -0.291 N 
HETATM   10  N2  UNL     1      17.688  13.635   6.721  1.00  0.00    -0.281 N 
ATOM     11  H2  UNL     1      17.379  14.250   5.968  1.00  0.00     0.188 HD
ATOM     12  H3  UNL     1      18.871  13.433   8.283  1.00  0.00     0.187 HD
BRANCH  10  13
HETATM   13  C3  UNL     1      17.118  12.337   6.824  1.00  0.00     0.187 A 
HETATM   14  C2  UNL     1      17.540  11.286   7.625  1.00  0.00     0.204 A 
HETATM   15  N1  UNL     1      16.745  10.219   7.445  1.00  0.00    -0.163 N 
HETATM   16  C1  UNL     1      16.853   8.910   8.103  1.00  0.00     0.177 C 
HETATM   17  C10 UNL     1      15.822  10.585   6.540  1.00  0.00     0.681 A 
HETATM   18  N7  UNL     1      16.046  11.859   6.166  1.00  0.00    -0.171 N 
ATOM     19  H7  UNL     1      15.490  12.381   5.489  1.00  0.00     0.186 HD
BRANCH  14  20
HETATM   20  O1  UNL     1      18.624  11.316   8.489  1.00  0.00    -0.343 OA
ATOM     21  H1  UNL     1      19.469  11.694   8.275  1.00  0.00     0.219 HD
ENDBRANCH  14  20
BRANCH  17  22
HETATM   22  N8  UNL     1      14.854   9.824   6.089  1.00  0.00    -0.234 N 
ATOM     23  H82 UNL     1      14.793   8.813   6.213  1.00  0.00     0.174 HD
ATOM     24  H81 UNL     1      14.044  10.146   5.559  1.00  0.00     0.174 HD
ENDBRANCH  17  22
ENDBRANCH  10  13
ENDBRANCH   1   9
BRANCH   2  25
HETATM   25  O2  UNL     1      21.301  14.305   6.962  1.00  0.00    -0.354 OA
ATOM     26  H2  UNL     1      21.833  13.915   7.646  1.00  0.00     0.218 HD
ENDBRANCH   2  25
BRANCH   6  27
HETATM   27  C7  UNL     1      18.313  18.916   7.773  1.00  0.00     0.254 C 
BRANCH  27  28
HETATM   28  C8  UNL     1      17.791  19.453   6.494  1.00  0.00     0.251 C 
HETATM   29  N6  UNL     1      16.692  20.333   6.526  1.00  0.00    -0.061 NA
HETATM   30  O5  UNL     1      18.326  19.123   5.411  1.00  0.00    -0.275 OA
ENDBRANCH  27  28
ENDBRANCH   6  27
BRANCH   5  31
HETATM   31  O4  UNL     1      20.966  18.984   7.210  1.00  0.00    -0.265 OA
ATOM     32  H4  UNL     1      21.900  19.053   7.367  1.00  0.00     0.247 HD
ENDBRANCH   5  31
TORSDOF 8
ENDMDL
MODEL 4
REMARK VINA RESULT: -9.164197967      2.166      2.725
REMARK  8 active torsions:
REMARK  status: ('A' for Active; 'I' for Inactive)
REMARK    1  A    between atoms: C2_3  and  O1_4 
REMARK    2  A    between atoms: C3_6  and  N2_7 
REMARK    3  A    between atoms: N3_9  and  C4_11 
REMARK    4  A    between atoms: C5_12  and  O2_13 
REMARK    5  A    between atoms: N4_17  and  O4_18 
REMARK    6  A    between atoms: N5_20  and  C7_21 
REMARK    7  A    between atoms: C7_21  and  C8_22 
REMARK    8  A    between atoms: C10_29  and  N8_30 
ROOT
HETATM    1  C4  UNL     1      18.828  15.327   6.177  1.00  0.00     0.157 A 
HETATM    2  C5  UNL     1      20.110  15.241   6.666  1.00  0.00     0.172 A 
HETATM    3  C6  UNL     1      20.814  16.375   7.027  1.00  0.00     0.323 A 
HETATM    4  O3  UNL     1      21.986  16.347   7.478  1.00  0.00    -0.261 OA
HETATM    5  N4  UNL     1      20.198  17.560   6.883  1.00  0.00    -0.114 N 
HETATM    6  N5  UNL     1      18.962  17.678   6.413  1.00  0.00    -0.217 N 
HETATM    7  C9  UNL     1      18.261  16.589   6.057  1.00  0.00     0.295 A 
HETATM    8  O6  UNL     1      17.071  16.669   5.603  1.00  0.00    -0.264 OA
ENDROOT
BRANCH   1   9
HETATM    9  N3  UNL     1      18.164  14.144   5.826  1.00  0.00    -0.291 N 
HETATM   10  N2  UNL     1      17.758  13.885   4.650  1.00  0.00    -0.281 N 
ATOM     11  H2  UNL     1      17.919  14.571   3.912  1.00  0.00     0.188 HD
ATOM     12  H3  UNL     1      17.997  13.451   6.557  1.00  0.00     0.187 HD
BRANCH  10  13
HETATM   13  C3  UNL     1      17.087  12.674   4.327  1.00  0.00     0.187 A 
HETATM   14  C2  UNL     1      16.533  11.752   5.201  1.00  0.00     0.204 A 
HETATM   15  N1  UNL     1      15.986  10.735   4.516  1.00  0.00    -0.163 N 
HETATM   16  C1  UNL     1      15.301   9.558   5.069  1.00  0.00     0.177 C 
HETATM   17  C10 UNL     1      16.187  11.005   3.215  1.00  0.00     0.681 A 
HETATM   18  N7  UNL     1      16.849  12.172   3.101  1.00  0.00    -0.171 N 
ATOM     19  H7  UNL     1      17.128  12.608   2.222  1.00  0.00     0.186 HD
BRANCH  14  20
HETATM   20  O1  UNL     1      16.536  11.849   6.585  1.00  0.00    -0.343 OA
ATOM     21  H1  UNL     1      15.838  12.242   7.095  1.00  0.00     0.219 HD
ENDBRANCH  14  20
BRANCH  17  22
HETATM   22  N8  UNL     1      15.800  10.254   2.213  1.00  0.00    -0.234 N 
ATOM     23  H82 UNL     1      16.265  10.198   1.307  1.00  0.00     0.174 HD
ATOM     24  H81 UNL     1      14.989   9.636   2.213  1.00  0.00     0.174 HD
ENDBRANCH  17  22
ENDBRANCH  10  13
ENDBRANCH   1   9
BRANCH   2  25
HETATM   25  O2  UNL     1      20.778  14.026   6.828  1.00  0.00    -0.354 OA
ATOM     26  H2  UNL     1      21.518  13.920   7.414  1.00  0.00     0.218 HD
ENDBRANCH   2  25
BRANCH   6  27
HETATM   27  C7  UNL     1      18.350  18.991   6.281  1.00  0.00     0.254 C 
BRANCH  27  28
HETATM   28  C8  UNL     1      17.647  19.388   7.523  1.00  0.00     0.251 C 
HETATM   29  N6  UNL     1      16.249  19.559   7.488  1.00  0.00    -0.061 NA
HETATM   30  O5  UNL     1      18.295  19.565   8.581  1.00  0.00    -0.275 OA
ENDBRANCH  27  28
ENDBRANCH   6  27
BRANCH   5  31
HETATM   31  O4  UNL     1      20.873  18.705   7.234  1.00  0.00    -0.265 OA
ATOM     32  H4  UNL     1      20.713  19.501   6.740  1.00  0.00     0.247 HD
ENDBRANCH   5  31
TORSDOF 8
ENDMDL
MODEL 5
REMARK VINA RESULT: -9.146423819      3.087      5.677
REMARK  8 active torsions:
REMARK  status: ('A' for Active; 'I' for Inactive)
REMARK    1  A    between atoms: C2_3  and  O1_4 
REMARK    2  A    between atoms: C3_6  and  N2_7 
REMARK    3  A    between atoms: N3_9  and  C4_11 
REMARK    4  A    between atoms: C5_12  and  O2_13 
REMARK    5  A    between atoms: N4_17  and  O4_18 
REMARK    6  A    between atoms: N5_20  and  C7_21 
REMARK    7  A    between atoms: C7_21  and  C8_22 
REMARK    8  A    between atoms: C10_29  and  N8_30 
ROOT
HETATM    1  C4  UNL     1      18.073  19.013   7.912  1.00  0.00     0.157 A 
HETATM    2  C5  UNL     1      19.175  19.177   8.717  1.00  0.00     0.172 A 
HETATM    3  C6  UNL     1      19.220  20.175   9.672  1.00  0.00     0.323 A 
HETATM    4  O3  UNL     1      20.203  20.363  10.430  1.00  0.00    -0.261 OA
HETATM    5  N4  UNL     1      18.148  20.977   9.783  1.00  0.00    -0.114 N 
HETATM    6  N5  UNL     1      17.068  20.846   9.021  1.00  0.00    -0.217 N 
HETATM    7  C9  UNL     1      17.005  19.882   8.087  1.00  0.00     0.295 A 
HETATM    8  O6  UNL     1      15.982  19.732   7.340  1.00  0.00    -0.264 OA
ENDROOT
BRANCH   1   9
HETATM    9  N3  UNL     1      18.085  17.984   6.961  1.00  0.00    -0.291 N 
HETATM   10  N2  UNL     1      18.001  16.751   7.256  1.00  0.00    -0.281 N 
ATOM     11  H2  UNL     1      17.919  16.484   8.237  1.00  0.00     0.188 HD
ATOM     12  H3  UNL     1      18.166  18.239   5.976  1.00  0.00     0.187 HD
BRANCH  10  13
HETATM   13  C3  UNL     1      18.015  15.730   6.267  1.00  0.00     0.187 A 
HETATM   14  C2  UNL     1      18.685  15.734   5.053  1.00  0.00     0.204 A 
HETATM   15  N1  UNL     1      18.455  14.589   4.392  1.00  0.00    -0.163 N 
HETATM   16  C1  UNL     1      18.978  14.201   3.075  1.00  0.00     0.177 C 
HETATM   17  C10 UNL     1      17.645  13.857   5.177  1.00  0.00     0.681 A 
HETATM   18  N7  UNL     1      17.381  14.544   6.305  1.00  0.00    -0.171 N 
ATOM     19  H7  UNL     1      16.791  14.215   7.070  1.00  0.00     0.186 HD
BRANCH  14  20
HETATM   20  O1  UNL     1      19.481  16.765   4.575  1.00  0.00    -0.343 OA
ATOM     21  H1  UNL     1      20.052  16.693   3.819  1.00  0.00     0.219 HD
ENDBRANCH  14  20
BRANCH  17  22
HETATM   22  N8  UNL     1      17.184  12.663   4.893  1.00  0.00    -0.234 N 
ATOM     23  H82 UNL     1      17.165  12.246   3.963  1.00  0.00     0.174 HD
ATOM     24  H81 UNL     1      16.787  12.006   5.565  1.00  0.00     0.174 HD
ENDBRANCH  17  22
ENDBRANCH  10  13
ENDBRANCH   1   9
BRANCH   2  25
HETATM   25  O2  UNL     1      20.305  18.361   8.628  1.00  0.00    -0.354 OA
ATOM     26  H2  UNL     1      20.281  17.427   8.801  1.00  0.00     0.218 HD
ENDBRANCH   2  25
BRANCH   6  27
HETATM   27  C7  UNL     1      15.938  21.748   9.190  1.00  0.00     0.254 C 
BRANCH  27  28
HETATM   28  C8  UNL     1      16.066  22.943   8.324  1.00  0.00     0.251 C 
HETATM   29  N6  UNL     1      16.801  24.048   8.797  1.00  0.00    -0.061 NA
HETATM   30  O5  UNL     1      15.528  22.959   7.193  1.00  0.00    -0.275 OA
ENDBRANCH  27  28
ENDBRANCH   6  27
BRANCH   5  31
HETATM   31  O4  UNL     1      18.163  21.979  10.723  1.00  0.00    -0.265 OA
ATOM     32  H4  UNL     1      18.471  21.780  11.600  1.00  0.00     0.247 HD
ENDBRANCH   5  31
TORSDOF 8
ENDMDL
