MODEL 1
REMARK VINA RESULT: -10.529935185      0.000      0.000
REMARK  14 active torsions:
REMARK  status: ('A' for Active; 'I' for Inactive)
REMARK    1  A    between atoms: N1_2  and  N2_3 
REMARK    2  A    between atoms: N1_2  and  S1_6 
REMARK    3  A    between atoms: S1_6  and  N3_9 
REMARK    4  A    between atoms: N3_9  and  N4_11 
REMARK    5  A    between atoms: N4_11  and  C2_13 
REMARK    6  A    between atoms: C6_17  and  C7_18 
REMARK    7  A    between atoms: C7_18  and  N8_26 
REMARK    8  A    between atoms: N5_19  and  N6_21 
REMARK    9  A    between atoms: N6_21  and  C8_23 
REMARK   10  A    between atoms: N8_26  and  N9_28 
REMARK       I    between atoms: N9_28  and  C9_30 
REMARK   11  A    between atoms: C9_30  and  C10_32 
REMARK   12  A    between atoms: C12_34  and  O4_35 
REMARK   13  A    between atoms: C13_37  and  O5_38 
REMARK   14  A    between atoms: C14_40  and  O6_41 
ROOT
HETATM    1  C7  UNL     1     109.725  61.806  43.596  1.00  0.00     0.150 C 
HETATM    2  N5  UNL     1     108.722  61.989  42.860  1.00  0.00    -0.282 N 
ATOM      3  H5  UNL     1     108.928  62.403  41.951  1.00  0.00     0.188 HD
ENDROOT
BRANCH   1   4
HETATM    4  C6  UNL     1     109.741  61.241  44.930  1.00  0.00     0.079 C 
HETATM    5  C5  UNL     1     109.762  62.076  46.022  1.00  0.00     0.021 C 
HETATM    6  C4  UNL     1     109.505  61.733  47.326  1.00  0.00     0.005 C 
HETATM    7  C3  UNL     1     109.200  60.463  47.833  1.00  0.00     0.050 C 
HETATM    8  C2  UNL     1     108.794  59.331  47.131  1.00  0.00     0.123 C 
HETATM    9  N10 UNL     1     109.167  59.028  45.861  1.00  0.00    -0.308 N 
HETATM   10  C16 UNL     1     109.725  59.839  44.914  1.00  0.00     0.261 C 
ATOM     11  H10 UNL     1     109.009  58.061  45.574  1.00  0.00     0.170 HD
HETATM   12  O7  UNL     1     110.273  59.263  43.941  1.00  0.00    -0.267 OA
BRANCH   8  13
HETATM   13  N4  UNL     1     107.927  58.438  47.810  1.00  0.00    -0.275 N 
ATOM     14  H4  UNL     1     107.080  58.097  47.355  1.00  0.00     0.189 HD
BRANCH  13  15
HETATM   15  N3  UNL     1     108.241  58.034  49.092  1.00  0.00    -0.211 N 
ATOM     16  H3  UNL     1     108.949  58.505  49.656  1.00  0.00     0.201 HD
BRANCH  15  17
HETATM   17  S1  UNL     1     107.360  56.689  49.666  1.00  0.00     0.332 S 
HETATM   18  O1  UNL     1     106.043  57.143  50.227  1.00  0.00    -0.185 OA
HETATM   19  O2  UNL     1     108.184  56.061  50.784  1.00  0.00    -0.185 OA
BRANCH  17  20
HETATM   20  N1  UNL     1     107.051  55.489  48.487  1.00  0.00    -0.113 NA
HETATM   21  C1  UNL     1     107.272  54.140  48.948  1.00  0.00     0.157 C 
BRANCH  20  22
HETATM   22  N2  UNL     1     105.853  55.634  47.823  1.00  0.00    -0.349 NA
ATOM     23  H22 UNL     1     105.510  54.783  47.377  1.00  0.00     0.172 HD
ATOM     24  H21 UNL     1     105.834  56.457  47.220  1.00  0.00     0.172 HD
ENDBRANCH  20  22
ENDBRANCH  17  20
ENDBRANCH  15  17
ENDBRANCH  13  15
ENDBRANCH   8  13
ENDBRANCH   1   4
BRANCH   1  25
HETATM   25  N8  UNL     1     111.007  62.205  43.045  1.00  0.00    -0.281 N 
ATOM     26  H8  UNL     1     111.796  61.564  42.970  1.00  0.00     0.188 HD
BRANCH  25  27
HETATM   27  N9  UNL     1     111.078  63.546  42.621  1.00  0.00    -0.264 N 
HETATM   28  C9  UNL     1     111.746  64.483  43.443  1.00  0.00     0.270 C 
HETATM   29  O3  UNL     1     112.267  64.116  44.539  1.00  0.00    -0.266 OA
ATOM     30  H9  UNL     1     110.657  63.836  41.738  1.00  0.00     0.190 HD
BRANCH  28  31
HETATM   31  C10 UNL     1     111.855  65.884  43.062  1.00  0.00     0.039 A 
HETATM   32  C11 UNL     1     110.828  66.774  43.254  1.00  0.00     0.056 A 
HETATM   33  C12 UNL     1     110.960  68.101  42.878  1.00  0.00     0.102 A 
HETATM   34  C13 UNL     1     112.114  68.567  42.302  1.00  0.00     0.132 A 
HETATM   35  C14 UNL     1     113.136  67.648  42.119  1.00  0.00     0.102 A 
HETATM   36  C15 UNL     1     113.034  66.341  42.479  1.00  0.00     0.056 A 
BRANCH  33  37
HETATM   37  O4  UNL     1     109.934  69.016  43.064  1.00  0.00    -0.358 OA
ATOM     38  H4  UNL     1     109.643  69.271  43.932  1.00  0.00     0.217 HD
ENDBRANCH  33  37
BRANCH  34  39
HETATM   39  O5  UNL     1     112.278  69.897  41.912  1.00  0.00    -0.356 OA
ATOM     40  H5  UNL     1     112.654  70.144  41.075  1.00  0.00     0.218 HD
ENDBRANCH  34  39
BRANCH  35  41
HETATM   41  O6  UNL     1     114.305  68.136  41.532  1.00  0.00    -0.358 OA
ATOM     42  H6  UNL     1     115.079  68.144  42.083  1.00  0.00     0.217 HD
ENDBRANCH  35  41
ENDBRANCH  28  31
ENDBRANCH  25  27
ENDBRANCH   1  25
BRANCH   2  43
HETATM   43  N6  UNL     1     107.396  61.721  43.083  1.00  0.00    -0.277 N 
ATOM     44  H6  UNL     1     106.919  62.100  43.900  1.00  0.00     0.189 HD
BRANCH  43  45
HETATM   45  C8  UNL     1     106.701  60.906  42.153  1.00  0.00     0.199 C 
HETATM   46  N7  UNL     1     105.767  61.496  41.272  1.00  0.00    -0.068 NA
HETATM   47  S2  UNL     1     106.968  59.312  42.098  1.00  0.00    -0.043 SA
ENDBRANCH  43  45
ENDBRANCH   2  43
TORSDOF 14
ENDMDL
MODEL 2
REMARK VINA RESULT: -10.431641134      1.282      1.466
REMARK  14 active torsions:
REMARK  status: ('A' for Active; 'I' for Inactive)
REMARK    1  A    between atoms: N1_2  and  N2_3 
REMARK    2  A    between atoms: N1_2  and  S1_6 
REMARK    3  A    between atoms: S1_6  and  N3_9 
REMARK    4  A    between atoms: N3_9  and  N4_11 
REMARK    5  A    between atoms: N4_11  and  C2_13 
REMARK    6  A    between atoms: C6_17  and  C7_18 
REMARK    7  A    between atoms: C7_18  and  N8_26 
REMARK    8  A    between atoms: N5_19  and  N6_21 
REMARK    9  A    between atoms: N6_21  and  C8_23 
REMARK   10  A    between atoms: N8_26  and  N9_28 
REMARK       I    between atoms: N9_28  and  C9_30 
REMARK   11  A    between atoms: C9_30  and  C10_32 
REMARK   12  A    between atoms: C12_34  and  O4_35 
REMARK   13  A    between atoms: C13_37  and  O5_38 
REMARK   14  A    between atoms: C14_40  and  O6_41 
ROOT
HETATM    1  C7  UNL     1     109.402  61.488  43.055  1.00  0.00     0.150 C 
HETATM    2  N5  UNL     1     108.321  61.444  42.414  1.00  0.00    -0.282 N 
ATOM      3  H5  UNL     1     108.392  61.723  41.436  1.00  0.00     0.188 HD
ENDROOT
BRANCH   1   4
HETATM    4  C6  UNL     1     109.607  61.153  44.449  1.00  0.00     0.079 C 
HETATM    5  C5  UNL     1     109.734  62.157  45.379  1.00  0.00     0.021 C 
HETATM    6  C4  UNL     1     109.657  62.031  46.743  1.00  0.00     0.005 C 
HETATM    7  C3  UNL     1     109.467  60.857  47.485  1.00  0.00     0.050 C 
HETATM    8  C2  UNL     1     109.020  59.618  47.036  1.00  0.00     0.123 C 
HETATM    9  N10 UNL     1     109.241  59.115  45.794  1.00  0.00    -0.308 N 
HETATM   10  C16 UNL     1     109.643  59.767  44.664  1.00  0.00     0.261 C 
ATOM     11  H10 UNL     1     109.084  58.112  45.691  1.00  0.00     0.170 HD
HETATM   12  O7  UNL     1     110.086  59.047  43.733  1.00  0.00    -0.267 OA
BRANCH   8  13
HETATM   13  N4  UNL     1     108.280  58.835  47.958  1.00  0.00    -0.275 N 
ATOM     14  H4  UNL     1     108.442  58.930  48.961  1.00  0.00     0.189 HD
BRANCH  13  15
HETATM   15  N3  UNL     1     107.338  57.944  47.484  1.00  0.00    -0.211 N 
ATOM     16  H3  UNL     1     107.041  57.929  46.509  1.00  0.00     0.201 HD
BRANCH  15  17
HETATM   17  S1  UNL     1     106.707  56.867  48.650  1.00  0.00     0.332 S 
HETATM   18  O1  UNL     1     107.821  56.077  49.272  1.00  0.00    -0.185 OA
HETATM   19  O2  UNL     1     105.774  55.912  47.914  1.00  0.00    -0.185 OA
BRANCH  17  20
HETATM   20  N1  UNL     1     105.823  57.621  49.905  1.00  0.00    -0.113 NA
HETATM   21  C1  UNL     1     106.529  57.691  51.161  1.00  0.00     0.157 C 
BRANCH  20  22
HETATM   22  N2  UNL     1     105.240  58.818  49.555  1.00  0.00    -0.349 NA
ATOM     23  H22 UNL     1     105.844  59.633  49.669  1.00  0.00     0.172 HD
ATOM     24  H21 UNL     1     104.307  58.933  49.952  1.00  0.00     0.172 HD
ENDBRANCH  20  22
ENDBRANCH  17  20
ENDBRANCH  15  17
ENDBRANCH  13  15
ENDBRANCH   8  13
ENDBRANCH   1   4
BRANCH   1  25
HETATM   25  N8  UNL     1     110.570  61.923  42.313  1.00  0.00    -0.281 N 
ATOM     26  H8  UNL     1     111.268  61.271  41.955  1.00  0.00     0.188 HD
BRANCH  25  27
HETATM   27  N9  UNL     1     110.668  63.315  42.124  1.00  0.00    -0.264 N 
HETATM   28  C9  UNL     1     111.691  64.022  42.798  1.00  0.00     0.270 C 
HETATM   29  O3  UNL     1     112.499  63.408  43.557  1.00  0.00    -0.266 OA
ATOM     30  H9  UNL     1     110.015  63.804  41.512  1.00  0.00     0.190 HD
BRANCH  28  31
HETATM   31  C10 UNL     1     111.845  65.462  42.645  1.00  0.00     0.039 A 
HETATM   32  C11 UNL     1     110.824  66.337  42.916  1.00  0.00     0.056 A 
HETATM   33  C12 UNL     1     111.000  67.703  42.757  1.00  0.00     0.102 A 
HETATM   34  C13 UNL     1     112.193  68.222  42.325  1.00  0.00     0.132 A 
HETATM   35  C14 UNL     1     113.209  67.316  42.058  1.00  0.00     0.102 A 
HETATM   36  C15 UNL     1     113.063  65.972  42.206  1.00  0.00     0.056 A 
BRANCH  33  37
HETATM   37  O4  UNL     1     109.980  68.604  43.026  1.00  0.00    -0.358 OA
ATOM     38  H4  UNL     1     110.114  69.543  42.963  1.00  0.00     0.217 HD
ENDBRANCH  33  37
BRANCH  34  39
HETATM   39  O5  UNL     1     112.402  69.591  42.155  1.00  0.00    -0.356 OA
ATOM     40  H5  UNL     1     112.551  69.986  41.303  1.00  0.00     0.218 HD
ENDBRANCH  34  39
BRANCH  35  41
HETATM   41  O6  UNL     1     114.418  67.858  41.620  1.00  0.00    -0.358 OA
ATOM     42  H6  UNL     1     114.928  67.320  41.025  1.00  0.00     0.217 HD
ENDBRANCH  35  41
ENDBRANCH  28  31
ENDBRANCH  25  27
ENDBRANCH   1  25
BRANCH   2  43
HETATM   43  N6  UNL     1     107.063  61.079  42.818  1.00  0.00    -0.277 N 
ATOM     44  H6  UNL     1     106.806  61.100  43.805  1.00  0.00     0.189 HD
BRANCH  43  45
HETATM   45  C8  UNL     1     106.123  60.671  41.837  1.00  0.00     0.199 C 
HETATM   46  N7  UNL     1     105.487  61.645  41.034  1.00  0.00    -0.068 NA
HETATM   47  S2  UNL     1     105.777  59.104  41.633  1.00  0.00    -0.043 SA
ENDBRANCH  43  45
ENDBRANCH   2  43
TORSDOF 14
ENDMDL
MODEL 3
REMARK VINA RESULT: -10.424544727      3.223      5.267
REMARK  14 active torsions:
REMARK  status: ('A' for Active; 'I' for Inactive)
REMARK    1  A    between atoms: N1_2  and  N2_3 
REMARK    2  A    between atoms: N1_2  and  S1_6 
REMARK    3  A    between atoms: S1_6  and  N3_9 
REMARK    4  A    between atoms: N3_9  and  N4_11 
REMARK    5  A    between atoms: N4_11  and  C2_13 
REMARK    6  A    between atoms: C6_17  and  C7_18 
REMARK    7  A    between atoms: C7_18  and  N8_26 
REMARK    8  A    between atoms: N5_19  and  N6_21 
REMARK    9  A    between atoms: N6_21  and  C8_23 
REMARK   10  A    between atoms: N8_26  and  N9_28 
REMARK       I    between atoms: N9_28  and  C9_30 
REMARK   11  A    between atoms: C9_30  and  C10_32 
REMARK   12  A    between atoms: C12_34  and  O4_35 
REMARK   13  A    between atoms: C13_37  and  O5_38 
REMARK   14  A    between atoms: C14_40  and  O6_41 
ROOT
HETATM    1  C7  UNL     1     110.717  62.272  45.412  1.00  0.00     0.150 C 
HETATM    2  N5  UNL     1     110.987  62.692  46.566  1.00  0.00    -0.282 N 
ATOM      3  H5  UNL     1     111.896  63.147  46.655  1.00  0.00     0.188 HD
ENDROOT
BRANCH   1   4
HETATM    4  C6  UNL     1     109.511  61.590  44.988  1.00  0.00     0.079 C 
HETATM    5  C5  UNL     1     108.551  62.279  44.287  1.00  0.00     0.021 C 
HETATM    6  C4  UNL     1     107.502  61.743  43.583  1.00  0.00     0.005 C 
HETATM    7  C3  UNL     1     107.162  60.390  43.451  1.00  0.00     0.050 C 
HETATM    8  C2  UNL     1     107.945  59.275  43.733  1.00  0.00     0.123 C 
HETATM    9  N10 UNL     1     108.896  59.216  44.701  1.00  0.00    -0.308 N 
HETATM   10  C16 UNL     1     109.500  60.241  45.372  1.00  0.00     0.261 C 
ATOM     11  H10 UNL     1     109.201  58.279  44.963  1.00  0.00     0.170 HD
HETATM   12  O7  UNL     1     110.101  59.934  46.433  1.00  0.00    -0.267 OA
BRANCH   8  13
HETATM   13  N4  UNL     1     107.719  58.120  42.942  1.00  0.00    -0.275 N 
ATOM     14  H4  UNL     1     108.501  57.536  42.647  1.00  0.00     0.189 HD
BRANCH  13  15
HETATM   15  N3  UNL     1     106.428  57.795  42.574  1.00  0.00    -0.211 N 
ATOM     16  H3  UNL     1     105.710  57.549  43.256  1.00  0.00     0.201 HD
BRANCH  15  17
HETATM   17  S1  UNL     1     106.120  57.834  40.895  1.00  0.00     0.332 S 
HETATM   18  O1  UNL     1     107.416  57.842  40.137  1.00  0.00    -0.185 OA
HETATM   19  O2  UNL     1     105.371  59.130  40.609  1.00  0.00    -0.185 OA
BRANCH  17  20
HETATM   20  N1  UNL     1     105.175  56.530  40.319  1.00  0.00    -0.113 NA
HETATM   21  C1  UNL     1     105.894  55.613  39.468  1.00  0.00     0.157 C 
BRANCH  20  22
HETATM   22  N2  UNL     1     104.435  55.888  41.286  1.00  0.00    -0.349 NA
ATOM     23  H22 UNL     1     104.567  54.877  41.320  1.00  0.00     0.172 HD
ATOM     24  H21 UNL     1     103.457  56.180  41.292  1.00  0.00     0.172 HD
ENDBRANCH  20  22
ENDBRANCH  17  20
ENDBRANCH  15  17
ENDBRANCH  13  15
ENDBRANCH   8  13
ENDBRANCH   1   4
BRANCH   1  25
HETATM   25  N8  UNL     1     111.727  62.499  44.395  1.00  0.00    -0.281 N 
ATOM     26  H8  UNL     1     112.172  61.737  43.884  1.00  0.00     0.188 HD
BRANCH  25  27
HETATM   27  N9  UNL     1     112.045  63.852  44.166  1.00  0.00    -0.264 N 
HETATM   28  C9  UNL     1     111.401  64.530  43.105  1.00  0.00     0.270 C 
HETATM   29  O3  UNL     1     110.557  63.927  42.378  1.00  0.00    -0.266 OA
ATOM     30  H9  UNL     1     112.726  64.332  44.754  1.00  0.00     0.190 HD
BRANCH  28  31
HETATM   31  C10 UNL     1     111.687  65.929  42.816  1.00  0.00     0.039 A 
HETATM   32  C11 UNL     1     110.768  66.922  43.045  1.00  0.00     0.056 A 
HETATM   33  C12 UNL     1     111.067  68.245  42.758  1.00  0.00     0.102 A 
HETATM   34  C13 UNL     1     112.285  68.602  42.237  1.00  0.00     0.132 A 
HETATM   35  C14 UNL     1     113.195  67.580  42.015  1.00  0.00     0.102 A 
HETATM   36  C15 UNL     1     112.927  66.274  42.289  1.00  0.00     0.056 A 
BRANCH  33  37
HETATM   37  O4  UNL     1     110.153  69.264  42.981  1.00  0.00    -0.358 OA
ATOM     38  H4  UNL     1     110.429  70.164  43.107  1.00  0.00     0.217 HD
ENDBRANCH  33  37
BRANCH  34  39
HETATM   39  O5  UNL     1     112.617  69.924  41.937  1.00  0.00    -0.356 OA
ATOM     40  H5  UNL     1     112.722  70.592  42.605  1.00  0.00     0.218 HD
ENDBRANCH  34  39
BRANCH  35  41
HETATM   41  O6  UNL     1     114.430  67.958  41.486  1.00  0.00    -0.358 OA
ATOM     42  H6  UNL     1     114.449  68.782  41.013  1.00  0.00     0.217 HD
ENDBRANCH  35  41
ENDBRANCH  28  31
ENDBRANCH  25  27
ENDBRANCH   1  25
BRANCH   2  43
HETATM   43  N6  UNL     1     110.257  62.638  47.725  1.00  0.00    -0.277 N 
ATOM     44  H6  UNL     1     109.481  61.982  47.821  1.00  0.00     0.189 HD
BRANCH  43  45
HETATM   45  C8  UNL     1     110.600  63.510  48.789  1.00  0.00     0.199 C 
HETATM   46  N7  UNL     1     111.003  64.834  48.502  1.00  0.00    -0.068 NA
HETATM   47  S2  UNL     1     110.537  63.000  50.323  1.00  0.00    -0.043 SA
ENDBRANCH  43  45
ENDBRANCH   2  43
TORSDOF 14
ENDMDL
MODEL 4
REMARK VINA RESULT: -9.916862990      3.676      5.269
REMARK  14 active torsions:
REMARK  status: ('A' for Active; 'I' for Inactive)
REMARK    1  A    between atoms: N1_2  and  N2_3 
REMARK    2  A    between atoms: N1_2  and  S1_6 
REMARK    3  A    between atoms: S1_6  and  N3_9 
REMARK    4  A    between atoms: N3_9  and  N4_11 
REMARK    5  A    between atoms: N4_11  and  C2_13 
REMARK    6  A    between atoms: C6_17  and  C7_18 
REMARK    7  A    between atoms: C7_18  and  N8_26 
REMARK    8  A    between atoms: N5_19  and  N6_21 
REMARK    9  A    between atoms: N6_21  and  C8_23 
REMARK   10  A    between atoms: N8_26  and  N9_28 
REMARK       I    between atoms: N9_28  and  C9_30 
REMARK   11  A    between atoms: C9_30  and  C10_32 
REMARK   12  A    between atoms: C12_34  and  O4_35 
REMARK   13  A    between atoms: C13_37  and  O5_38 
REMARK   14  A    between atoms: C14_40  and  O6_41 
ROOT
HETATM    1  C7  UNL     1     111.380  62.053  43.130  1.00  0.00     0.150 C 
HETATM    2  N5  UNL     1     111.628  62.288  44.340  1.00  0.00    -0.282 N 
ATOM      3  H5  UNL     1     112.115  63.168  44.514  1.00  0.00     0.188 HD
ENDROOT
BRANCH   1   4
HETATM    4  C6  UNL     1     110.707  60.893  42.583  1.00  0.00     0.079 C 
HETATM    5  C5  UNL     1     111.421  59.744  42.341  1.00  0.00     0.021 C 
HETATM    6  C4  UNL     1     110.911  58.494  42.094  1.00  0.00     0.005 C 
HETATM    7  C3  UNL     1     109.563  58.121  42.003  1.00  0.00     0.050 C 
HETATM    8  C2  UNL     1     108.444  58.832  42.426  1.00  0.00     0.123 C 
HETATM    9  N10 UNL     1     108.345  60.186  42.448  1.00  0.00    -0.308 N 
HETATM   10  C16 UNL     1     109.339  61.120  42.374  1.00  0.00     0.261 C 
ATOM     11  H10 UNL     1     107.398  60.557  42.532  1.00  0.00     0.170 HD
HETATM   12  O7  UNL     1     108.982  62.292  42.090  1.00  0.00    -0.267 OA
BRANCH   8  13
HETATM   13  N4  UNL     1     107.332  58.069  42.863  1.00  0.00    -0.275 N 
ATOM     14  H4  UNL     1     107.225  57.833  43.850  1.00  0.00     0.189 HD
BRANCH  13  15
HETATM   15  N3  UNL     1     106.396  57.648  41.940  1.00  0.00    -0.211 N 
ATOM     16  H3  UNL     1     106.425  56.721  41.514  1.00  0.00     0.201 HD
BRANCH  15  17
HETATM   17  S1  UNL     1     105.186  58.792  41.560  1.00  0.00     0.332 S 
HETATM   18  O1  UNL     1     103.931  58.479  42.321  1.00  0.00    -0.185 OA
HETATM   19  O2  UNL     1     104.905  58.663  40.067  1.00  0.00    -0.185 OA
BRANCH  17  20
HETATM   20  N1  UNL     1     105.617  60.414  41.888  1.00  0.00    -0.113 NA
HETATM   21  C1  UNL     1     105.195  61.351  40.876  1.00  0.00     0.157 C 
BRANCH  20  22
HETATM   22  N2  UNL     1     105.318  60.839  43.163  1.00  0.00    -0.349 NA
ATOM     23  H22 UNL     1     105.501  61.828  43.334  1.00  0.00     0.172 HD
ATOM     24  H21 UNL     1     105.688  60.217  43.883  1.00  0.00     0.172 HD
ENDBRANCH  20  22
ENDBRANCH  17  20
ENDBRANCH  15  17
ENDBRANCH  13  15
ENDBRANCH   8  13
ENDBRANCH   1   4
BRANCH   1  25
HETATM   25  N8  UNL     1     111.817  63.058  42.178  1.00  0.00    -0.281 N 
ATOM     26  H8  UNL     1     112.272  62.819  41.298  1.00  0.00     0.188 HD
BRANCH  25  27
HETATM   27  N9  UNL     1     111.566  64.389  42.564  1.00  0.00    -0.264 N 
HETATM   28  C9  UNL     1     112.401  65.412  42.058  1.00  0.00     0.270 C 
HETATM   29  O3  UNL     1     113.356  65.129  41.274  1.00  0.00    -0.266 OA
ATOM     30  H9  UNL     1     110.796  64.611  43.195  1.00  0.00     0.190 HD
BRANCH  28  31
HETATM   31  C10 UNL     1     112.193  66.807  42.418  1.00  0.00     0.039 A 
HETATM   32  C11 UNL     1     113.221  67.715  42.440  1.00  0.00     0.056 A 
HETATM   33  C12 UNL     1     112.994  69.037  42.790  1.00  0.00     0.102 A 
HETATM   34  C13 UNL     1     111.740  69.478  43.126  1.00  0.00     0.132 A 
HETATM   35  C14 UNL     1     110.718  68.541  43.096  1.00  0.00     0.102 A 
HETATM   36  C15 UNL     1     110.914  67.239  42.756  1.00  0.00     0.056 A 
BRANCH  33  37
HETATM   37  O4  UNL     1     114.020  69.970  42.818  1.00  0.00    -0.358 OA
ATOM     38  H4  UNL     1     114.173  70.566  42.094  1.00  0.00     0.217 HD
ENDBRANCH  33  37
BRANCH  34  39
HETATM   39  O5  UNL     1     111.477  70.802  43.483  1.00  0.00    -0.356 OA
ATOM     40  H5  UNL     1     110.595  71.139  43.591  1.00  0.00     0.218 HD
ENDBRANCH  34  39
BRANCH  35  41
HETATM   41  O6  UNL     1     109.447  69.004  43.440  1.00  0.00    -0.358 OA
ATOM     42  H6  UNL     1     109.414  69.832  43.906  1.00  0.00     0.217 HD
ENDBRANCH  35  41
ENDBRANCH  28  31
ENDBRANCH  25  27
ENDBRANCH   1  25
BRANCH   2  43
HETATM   43  N6  UNL     1     111.349  61.554  45.463  1.00  0.00    -0.277 N 
ATOM     44  H6  UNL     1     112.095  61.268  46.097  1.00  0.00     0.189 HD
BRANCH  43  45
HETATM   45  C8  UNL     1     110.001  61.197  45.726  1.00  0.00     0.199 C 
HETATM   46  N7  UNL     1     109.011  62.204  45.772  1.00  0.00    -0.068 NA
HETATM   47  S2  UNL     1     109.595  59.651  45.975  1.00  0.00    -0.043 SA
ENDBRANCH  43  45
ENDBRANCH   2  43
TORSDOF 14
ENDMDL
MODEL 5
REMARK VINA RESULT: -9.901866975      3.870      5.189
REMARK  14 active torsions:
REMARK  status: ('A' for Active; 'I' for Inactive)
REMARK    1  A    between atoms: N1_2  and  N2_3 
REMARK    2  A    between atoms: N1_2  and  S1_6 
REMARK    3  A    between atoms: S1_6  and  N3_9 
REMARK    4  A    between atoms: N3_9  and  N4_11 
REMARK    5  A    between atoms: N4_11  and  C2_13 
REMARK    6  A    between atoms: C6_17  and  C7_18 
REMARK    7  A    between atoms: C7_18  and  N8_26 
REMARK    8  A    between atoms: N5_19  and  N6_21 
REMARK    9  A    between atoms: N6_21  and  C8_23 
REMARK   10  A    between atoms: N8_26  and  N9_28 
REMARK       I    between atoms: N9_28  and  C9_30 
REMARK   11  A    between atoms: C9_30  and  C10_32 
REMARK   12  A    between atoms: C12_34  and  O4_35 
REMARK   13  A    between atoms: C13_37  and  O5_38 
REMARK   14  A    between atoms: C14_40  and  O6_41 
ROOT
HETATM    1  C7  UNL     1     111.364  62.040  43.213  1.00  0.00     0.150 C 
HETATM    2  N5  UNL     1     111.418  62.268  44.448  1.00  0.00    -0.282 N 
ATOM      3  H5  UNL     1     111.858  63.153  44.701  1.00  0.00     0.188 HD
ENDROOT
BRANCH   1   4
HETATM    4  C6  UNL     1     110.803  60.874  42.562  1.00  0.00     0.079 C 
HETATM    5  C5  UNL     1     111.614  59.805  42.263  1.00  0.00     0.021 C 
HETATM    6  C4  UNL     1     111.213  58.541  41.909  1.00  0.00     0.005 C 
HETATM    7  C3  UNL     1     109.903  58.073  41.745  1.00  0.00     0.050 C 
HETATM    8  C2  UNL     1     108.718  58.661  42.179  1.00  0.00     0.123 C 
HETATM    9  N10 UNL     1     108.510  59.998  42.294  1.00  0.00    -0.308 N 
HETATM   10  C16 UNL     1     109.428  61.009  42.321  1.00  0.00     0.261 C 
ATOM     11  H10 UNL     1     107.535  60.287  42.371  1.00  0.00     0.170 HD
HETATM   12  O7  UNL     1     108.986  62.167  42.110  1.00  0.00    -0.267 OA
BRANCH   8  13
HETATM   13  N4  UNL     1     107.659  57.783  42.521  1.00  0.00    -0.275 N 
ATOM     14  H4  UNL     1     107.858  56.832  42.833  1.00  0.00     0.189 HD
BRANCH  13  15
HETATM   15  N3  UNL     1     106.355  58.228  42.427  1.00  0.00    -0.211 N 
ATOM     16  H3  UNL     1     105.950  58.879  43.100  1.00  0.00     0.201 HD
BRANCH  15  17
HETATM   17  S1  UNL     1     105.470  57.609  41.104  1.00  0.00     0.332 S 
HETATM   18  O1  UNL     1     105.020  58.735  40.219  1.00  0.00    -0.185 OA
HETATM   19  O2  UNL     1     104.243  56.910  41.677  1.00  0.00    -0.185 OA
BRANCH  17  20
HETATM   20  N1  UNL     1     106.328  56.486  40.141  1.00  0.00    -0.113 NA
HETATM   21  C1  UNL     1     105.488  55.671  39.298  1.00  0.00     0.157 C 
BRANCH  20  22
HETATM   22  N2  UNL     1     107.405  57.015  39.466  1.00  0.00    -0.349 NA
ATOM     23  H22 UNL     1     107.370  56.897  38.453  1.00  0.00     0.172 HD
ATOM     24  H21 UNL     1     108.299  56.756  39.884  1.00  0.00     0.172 HD
ENDBRANCH  20  22
ENDBRANCH  17  20
ENDBRANCH  15  17
ENDBRANCH  13  15
ENDBRANCH   8  13
ENDBRANCH   1   4
BRANCH   1  25
HETATM   25  N8  UNL     1     111.927  63.059  42.347  1.00  0.00    -0.281 N 
ATOM     26  H8  UNL     1     112.478  62.834  41.519  1.00  0.00     0.188 HD
BRANCH  25  27
HETATM   27  N9  UNL     1     111.655  64.385  42.737  1.00  0.00    -0.264 N 
HETATM   28  C9  UNL     1     112.361  65.436  42.107  1.00  0.00     0.270 C 
HETATM   29  O3  UNL     1     113.220  65.184  41.211  1.00  0.00    -0.266 OA
ATOM     30  H9  UNL     1     110.963  64.583  43.460  1.00  0.00     0.190 HD
BRANCH  28  31
HETATM   31  C10 UNL     1     112.125  66.828  42.466  1.00  0.00     0.039 A 
HETATM   32  C11 UNL     1     110.876  67.298  42.782  1.00  0.00     0.056 A 
HETATM   33  C12 UNL     1     110.682  68.629  43.116  1.00  0.00     0.102 A 
HETATM   34  C13 UNL     1     111.727  69.516  43.141  1.00  0.00     0.132 A 
HETATM   35  C14 UNL     1     112.980  69.016  42.818  1.00  0.00     0.102 A 
HETATM   36  C15 UNL     1     113.197  67.715  42.487  1.00  0.00     0.056 A 
BRANCH  33  37
HETATM   37  O4  UNL     1     109.426  69.124  43.439  1.00  0.00    -0.358 OA
ATOM     38  H4  UNL     1     108.997  69.783  42.906  1.00  0.00     0.217 HD
ENDBRANCH  33  37
BRANCH  34  39
HETATM   39  O5  UNL     1     111.565  70.862  43.473  1.00  0.00    -0.356 OA
ATOM     40  H5  UNL     1     112.297  71.427  43.696  1.00  0.00     0.218 HD
ENDBRANCH  34  39
BRANCH  35  41
HETATM   41  O6  UNL     1     114.034  69.930  42.848  1.00  0.00    -0.358 OA
ATOM     42  H6  UNL     1     114.910  69.562  42.809  1.00  0.00     0.217 HD
ENDBRANCH  35  41
ENDBRANCH  28  31
ENDBRANCH  25  27
ENDBRANCH   1  25
BRANCH   2  43
HETATM   43  N6  UNL     1     110.981  61.519  45.510  1.00  0.00    -0.277 N 
ATOM     44  H6  UNL     1     111.529  60.729  45.850  1.00  0.00     0.189 HD
BRANCH  43  45
HETATM   45  C8  UNL     1     109.752  61.865  46.127  1.00  0.00     0.199 C 
HETATM   46  N7  UNL     1     108.630  62.170  45.323  1.00  0.00    -0.068 NA
HETATM   47  S2  UNL     1     109.628  61.914  47.740  1.00  0.00    -0.043 SA
ENDBRANCH  43  45
ENDBRANCH   2  43
TORSDOF 14
ENDMDL
