MODEL 1
REMARK VINA RESULT: -7.742846180      0.000      0.000
REMARK  12 active torsions:
REMARK  status: ('A' for Active; 'I' for Inactive)
REMARK    1  A    between atoms: O1_2  and  C2_3 
REMARK    2  A    between atoms: C2_3  and  C3_5 
REMARK    3  A    between atoms: C3_5  and  N1_6 
REMARK    4  A    between atoms: N1_6  and  N2_7 
REMARK    5  A    between atoms: N2_7  and  C4_9 
REMARK    6  A    between atoms: C5_12  and  C6_13 
REMARK    7  A    between atoms: C9_25  and  N9_26 
REMARK    8  A    between atoms: N9_26  and  C10_28 
REMARK    9  A    between atoms: C10_28  and  O3_29 
REMARK   10  A    between atoms: C10_28  and  C11_31 
REMARK   11  A    between atoms: C13_41  and  N13_42 
REMARK   12  A    between atoms: N13_42  and  N14_44 
ROOT
HETATM    1  C6  UNL     1     -11.531  96.156  22.345  1.00  0.00     0.167 A 
HETATM    2  N4  UNL     1     -12.500  96.009  23.253  1.00  0.00    -0.315 N 
ATOM      3  H4  UNL     1     -13.495  95.971  23.035  1.00  0.00     0.170 HD
HETATM    4  C7  UNL     1     -11.987  95.918  24.495  1.00  0.00     0.204 A 
HETATM    5  C8  UNL     1     -12.704  95.751  25.742  1.00  0.00     0.138 C 
HETATM    6  N5  UNL     1     -13.269  95.602  26.750  1.00  0.00    -0.188 NA
HETATM    7  N6  UNL     1     -10.657  96.012  24.345  1.00  0.00    -0.275 N 
ATOM      8  H6  UNL     1      -9.969  95.980  25.098  1.00  0.00     0.189 HD
HETATM    9  N7  UNL     1     -10.383  96.156  23.047  1.00  0.00    -0.280 N 
ATOM     10  H7  UNL     1      -9.448  96.251  22.649  1.00  0.00     0.188 HD
ENDROOT
BRANCH   1  11
HETATM   11  C5  UNL     1     -11.619  96.303  20.898  1.00  0.00     0.155 A 
HETATM   12  N3  UNL     1     -12.132  95.345  20.116  1.00  0.00    -0.322 N 
HETATM   13  C4  UNL     1     -12.215  95.459  18.780  1.00  0.00     0.165 A 
ATOM     14  H3  UNL     1     -12.474  94.489  20.554  1.00  0.00     0.169 HD
HETATM   15  C13 UNL     1     -11.769  96.586  18.135  1.00  0.00     0.138 A 
HETATM   16  C9  UNL     1     -11.228  97.600  18.942  1.00  0.00     0.137 A 
HETATM   17  N8  UNL     1     -11.173  97.430  20.277  1.00  0.00    -0.324 N 
ATOM     18  H8  UNL     1     -10.779  98.178  20.848  1.00  0.00     0.169 HD
BRANCH  13  19
HETATM   19  N2  UNL     1     -12.774  94.436  17.930  1.00  0.00    -0.217 N 
ATOM     20  H2  UNL     1     -13.149  94.682  17.014  1.00  0.00     0.203 HD
BRANCH  19  21
HETATM   21  N1  UNL     1     -12.799  93.193  18.334  1.00  0.00    -0.331 NA
BRANCH  21  22
HETATM   22  C3  UNL     1     -12.904  92.121  18.797  1.00  0.00     0.290 C 
BRANCH  22  23
HETATM   23  C2  UNL     1     -13.177  91.873  20.221  1.00  0.00     0.313 C 
HETATM   24  O2  UNL     1     -13.427  90.681  20.631  1.00  0.00    -0.257 OA
BRANCH  23  25
HETATM   25  O1  UNL     1     -13.184  92.850  21.167  1.00  0.00    -0.321 OA
HETATM   26  C1  UNL     1     -13.200  92.553  22.572  1.00  0.00     0.213 C 
ENDBRANCH  23  25
ENDBRANCH  22  23
ENDBRANCH  21  22
ENDBRANCH  19  21
ENDBRANCH  13  19
BRANCH  15  27
HETATM   27  N13 UNL     1     -11.862  96.770  16.746  1.00  0.00    -0.300 N 
ATOM     28  H13 UNL     1     -12.680  97.249  16.371  1.00  0.00     0.186 HD
BRANCH  27  29
HETATM   29  N14 UNL     1     -10.877  96.322  15.851  1.00  0.00    -0.344 N 
ATOM     30 2H14 UNL     1     -10.978  95.382  15.470  1.00  0.00     0.176 HD
ATOM     31 1H14 UNL     1     -10.079  96.895  15.574  1.00  0.00     0.176 HD
ENDBRANCH  27  29
ENDBRANCH  15  27
BRANCH  16  32
HETATM   32  N9  UNL     1     -10.833  98.627  18.307  1.00  0.00    -0.341 N 
ATOM     33  H9  UNL     1     -11.521  99.282  17.935  1.00  0.00     0.164 HD
BRANCH  32  34
HETATM   34  C10 UNL     1      -9.430  98.882  18.106  1.00  0.00     0.297 C 
BRANCH  34  35
HETATM   35  O3  UNL     1      -8.648  98.384  19.165  1.00  0.00    -0.369 OA
ATOM     36  H3  UNL     1      -8.351  97.497  19.000  1.00  0.00     0.212 HD
ENDBRANCH  34  35
BRANCH  34  37
HETATM   37  C11 UNL     1      -9.281 100.368  18.074  1.00  0.00     0.191 A 
HETATM   38  N10 UNL     1      -9.402 101.205  17.048  1.00  0.00    -0.276 N 
HETATM   39  N11 UNL     1      -9.187 102.426  17.470  1.00  0.00    -0.263 N 
ATOM     40  H10 UNL     1      -9.627 100.940  16.089  1.00  0.00     0.189 HD
HETATM   41  C12 UNL     1      -8.928 102.355  18.780  1.00  0.00     0.238 A 
ATOM     42  H11 UNL     1      -9.211 103.274  16.905  1.00  0.00     0.190 HD
HETATM   43  N12 UNL     1      -8.665 103.343  19.557  1.00  0.00    -0.364 N 
HETATM   44  O4  UNL     1      -8.995 101.093  19.113  1.00  0.00    -0.259 OA
ATOM     45 2H12 UNL     1      -8.613 104.328  19.298  1.00  0.00     0.159 HD
ATOM     46 1H12 UNL     1      -8.468 103.289  20.557  1.00  0.00     0.159 HD
ENDBRANCH  34  37
ENDBRANCH  32  34
ENDBRANCH  16  32
ENDBRANCH   1  11
TORSDOF 12
ENDMDL
MODEL 2
REMARK VINA RESULT: -7.545676998      2.891      7.410
REMARK  12 active torsions:
REMARK  status: ('A' for Active; 'I' for Inactive)
REMARK    1  A    between atoms: O1_2  and  C2_3 
REMARK    2  A    between atoms: C2_3  and  C3_5 
REMARK    3  A    between atoms: C3_5  and  N1_6 
REMARK    4  A    between atoms: N1_6  and  N2_7 
REMARK    5  A    between atoms: N2_7  and  C4_9 
REMARK    6  A    between atoms: C5_12  and  C6_13 
REMARK    7  A    between atoms: C9_25  and  N9_26 
REMARK    8  A    between atoms: N9_26  and  C10_28 
REMARK    9  A    between atoms: C10_28  and  O3_29 
REMARK   10  A    between atoms: C10_28  and  C11_31 
REMARK   11  A    between atoms: C13_41  and  N13_42 
REMARK   12  A    between atoms: N13_42  and  N14_44 
ROOT
HETATM    1  C6  UNL     1     -10.850  97.241  19.860  1.00  0.00     0.167 A 
HETATM    2  N4  UNL     1      -9.981  97.151  18.849  1.00  0.00    -0.315 N 
ATOM      3  H4  UNL     1      -9.639  96.274  18.456  1.00  0.00     0.170 HD
HETATM    4  C7  UNL     1      -9.614  98.374  18.418  1.00  0.00     0.204 A 
HETATM    5  C8  UNL     1      -8.696  98.700  17.347  1.00  0.00     0.138 C 
HETATM    6  N5  UNL     1      -7.971  98.975  16.477  1.00  0.00    -0.188 NA
HETATM    7  N6  UNL     1     -10.282  99.245  19.191  1.00  0.00    -0.275 N 
ATOM      8  H6  UNL     1     -10.229 100.261  19.125  1.00  0.00     0.189 HD
HETATM    9  N7  UNL     1     -11.027  98.560  20.061  1.00  0.00    -0.280 N 
ATOM     10  H7  UNL     1     -11.636  98.972  20.768  1.00  0.00     0.188 HD
ENDROOT
BRANCH   1  11
HETATM   11  C5  UNL     1     -11.497  96.189  20.633  1.00  0.00     0.155 A 
HETATM   12  N3  UNL     1     -11.726  94.971  20.125  1.00  0.00    -0.322 N 
HETATM   13  C4  UNL     1     -12.328  93.991  20.819  1.00  0.00     0.165 A 
ATOM     14  H3  UNL     1     -11.430  94.779  19.168  1.00  0.00     0.169 HD
HETATM   15  C13 UNL     1     -12.748  94.191  22.111  1.00  0.00     0.138 A 
HETATM   16  C9  UNL     1     -12.516  95.464  22.658  1.00  0.00     0.137 A 
HETATM   17  N8  UNL     1     -11.906  96.407  21.914  1.00  0.00    -0.324 N 
ATOM     18  H8  UNL     1     -11.743  97.325  22.328  1.00  0.00     0.169 HD
BRANCH  13  19
HETATM   19  N2  UNL     1     -12.570  92.673  20.284  1.00  0.00    -0.217 N 
ATOM     20  H2  UNL     1     -12.530  91.859  20.896  1.00  0.00     0.203 HD
BRANCH  19  21
HETATM   21  N1  UNL     1     -12.841  92.524  19.013  1.00  0.00    -0.331 NA
BRANCH  21  22
HETATM   22  C3  UNL     1     -13.147  92.512  17.881  1.00  0.00     0.290 C 
BRANCH  22  23
HETATM   23  C2  UNL     1     -13.302  93.726  17.067  1.00  0.00     0.313 C 
HETATM   24  O2  UNL     1     -14.315  93.853  16.286  1.00  0.00    -0.257 OA
BRANCH  23  25
HETATM   25  O1  UNL     1     -12.418  94.760  17.082  1.00  0.00    -0.321 OA
HETATM   26  C1  UNL     1     -12.787  96.086  16.673  1.00  0.00     0.213 C 
ENDBRANCH  23  25
ENDBRANCH  22  23
ENDBRANCH  21  22
ENDBRANCH  19  21
ENDBRANCH  13  19
BRANCH  15  27
HETATM   27  N13 UNL     1     -13.352  93.193  22.891  1.00  0.00    -0.300 N 
ATOM     28  H13 UNL     1     -14.335  92.976  22.729  1.00  0.00     0.186 HD
BRANCH  27  29
HETATM   29  N14 UNL     1     -12.662  92.481  23.885  1.00  0.00    -0.344 N 
ATOM     30 2H14 UNL     1     -12.757  92.804  24.848  1.00  0.00     0.176 HD
ATOM     31 1H14 UNL     1     -12.081  91.668  23.681  1.00  0.00     0.176 HD
ENDBRANCH  27  29
ENDBRANCH  15  27
BRANCH  16  32
HETATM   32  N9  UNL     1     -12.914  95.606  23.855  1.00  0.00    -0.341 N 
ATOM     33  H9  UNL     1     -13.811  95.210  24.136  1.00  0.00     0.164 HD
BRANCH  32  34
HETATM   34  C10 UNL     1     -12.120  96.319  24.823  1.00  0.00     0.297 C 
BRANCH  34  35
HETATM   35  O3  UNL     1     -10.759  95.969  24.746  1.00  0.00    -0.369 OA
ATOM     36  H3  UNL     1     -10.300  96.149  25.557  1.00  0.00     0.212 HD
ENDBRANCH  34  35
BRANCH  34  37
HETATM   37  C11 UNL     1     -12.633  95.903  26.164  1.00  0.00     0.191 A 
HETATM   38  N10 UNL     1     -12.038  95.970  27.351  1.00  0.00    -0.276 N 
HETATM   39  N11 UNL     1     -12.851  95.491  28.259  1.00  0.00    -0.263 N 
ATOM     40  H10 UNL     1     -11.101  96.334  27.526  1.00  0.00     0.189 HD
HETATM   41  C12 UNL     1     -13.974  95.121  27.634  1.00  0.00     0.238 A 
ATOM     42  H11 UNL     1     -12.664  95.416  29.258  1.00  0.00     0.190 HD
HETATM   43  N12 UNL     1     -15.013  94.603  28.181  1.00  0.00    -0.364 N 
HETATM   44  O4  UNL     1     -13.806  95.385  26.365  1.00  0.00    -0.259 OA
ATOM     45 2H12 UNL     1     -15.144  94.397  29.172  1.00  0.00     0.159 HD
ATOM     46 1H12 UNL     1     -15.869  94.321  27.705  1.00  0.00     0.159 HD
ENDBRANCH  34  37
ENDBRANCH  32  34
ENDBRANCH  16  32
ENDBRANCH   1  11
TORSDOF 12
ENDMDL
MODEL 3
REMARK VINA RESULT: -7.501871457      2.919      7.712
REMARK  12 active torsions:
REMARK  status: ('A' for Active; 'I' for Inactive)
REMARK    1  A    between atoms: O1_2  and  C2_3 
REMARK    2  A    between atoms: C2_3  and  C3_5 
REMARK    3  A    between atoms: C3_5  and  N1_6 
REMARK    4  A    between atoms: N1_6  and  N2_7 
REMARK    5  A    between atoms: N2_7  and  C4_9 
REMARK    6  A    between atoms: C5_12  and  C6_13 
REMARK    7  A    between atoms: C9_25  and  N9_26 
REMARK    8  A    between atoms: N9_26  and  C10_28 
REMARK    9  A    between atoms: C10_28  and  O3_29 
REMARK   10  A    between atoms: C10_28  and  C11_31 
REMARK   11  A    between atoms: C13_41  and  N13_42 
REMARK   12  A    between atoms: N13_42  and  N14_44 
ROOT
HETATM    1  C6  UNL     1     -11.620  95.724  20.373  1.00  0.00     0.167 A 
HETATM    2  N4  UNL     1     -10.602  96.588  20.338  1.00  0.00    -0.315 N 
ATOM      3  H4  UNL     1     -10.076  96.896  21.156  1.00  0.00     0.170 HD
HETATM    4  C7  UNL     1     -10.361  96.999  19.078  1.00  0.00     0.204 A 
HETATM    5  C8  UNL     1      -9.346  97.927  18.625  1.00  0.00     0.138 C 
HETATM    6  N5  UNL     1      -8.523  98.660  18.246  1.00  0.00    -0.188 NA
HETATM    7  N6  UNL     1     -11.263  96.365  18.312  1.00  0.00    -0.275 N 
ATOM      8  H6  UNL     1     -11.353  96.456  17.300  1.00  0.00     0.189 HD
HETATM    9  N7  UNL     1     -12.022  95.596  19.095  1.00  0.00    -0.280 N 
ATOM     10  H7  UNL     1     -12.788  95.004  18.774  1.00  0.00     0.188 HD
ENDROOT
BRANCH   1  11
HETATM   11  C5  UNL     1     -12.227  95.039  21.507  1.00  0.00     0.155 A 
HETATM   12  N3  UNL     1     -12.452  93.719  21.502  1.00  0.00    -0.322 N 
HETATM   13  C4  UNL     1     -13.018  93.072  22.535  1.00  0.00     0.165 A 
ATOM     14  H3  UNL     1     -12.184  93.181  20.679  1.00  0.00     0.169 HD
HETATM   15  C13 UNL     1     -13.401  93.742  23.670  1.00  0.00     0.138 A 
HETATM   16  C9  UNL     1     -13.172  95.128  23.689  1.00  0.00     0.137 A 
HETATM   17  N8  UNL     1     -12.600  95.723  22.625  1.00  0.00    -0.324 N 
ATOM     18  H8  UNL     1     -12.438  96.729  22.656  1.00  0.00     0.169 HD
BRANCH  13  19
HETATM   19  N2  UNL     1     -13.256  91.649  22.544  1.00  0.00    -0.217 N 
ATOM     20  H2  UNL     1     -13.414  91.163  23.427  1.00  0.00     0.203 HD
BRANCH  19  21
HETATM   21  N1  UNL     1     -13.269  90.982  21.419  1.00  0.00    -0.331 NA
BRANCH  21  22
HETATM   22  C3  UNL     1     -13.178  90.464  20.371  1.00  0.00     0.290 C 
BRANCH  22  23
HETATM   23  C2  UNL     1     -12.543  91.095  19.205  1.00  0.00     0.313 C 
HETATM   24  O2  UNL     1     -12.757  92.336  18.948  1.00  0.00    -0.257 OA
BRANCH  23  25
HETATM   25  O1  UNL     1     -11.719  90.435  18.348  1.00  0.00    -0.321 OA
HETATM   26  C1  UNL     1     -10.538  89.752  18.797  1.00  0.00     0.213 C 
ENDBRANCH  23  25
ENDBRANCH  22  23
ENDBRANCH  21  22
ENDBRANCH  19  21
ENDBRANCH  13  19
BRANCH  15  27
HETATM   27  N13 UNL     1     -13.966  93.110  24.789  1.00  0.00    -0.300 N 
ATOM     28  H13 UNL     1     -14.972  92.943  24.799  1.00  0.00     0.186 HD
BRANCH  27  29
HETATM   29  N14 UNL     1     -13.206  92.698  25.895  1.00  0.00    -0.344 N 
ATOM     30 2H14 UNL     1     -12.195  92.821  25.844  1.00  0.00     0.176 HD
ATOM     31 1H14 UNL     1     -13.622  92.288  26.731  1.00  0.00     0.176 HD
ENDBRANCH  27  29
ENDBRANCH  15  27
BRANCH  16  32
HETATM   32  N9  UNL     1     -13.535  95.710  24.758  1.00  0.00    -0.341 N 
ATOM     33  H9  UNL     1     -14.519  95.694  25.028  1.00  0.00     0.164 HD
BRANCH  32  34
HETATM   34  C10 UNL     1     -12.581  96.392  25.594  1.00  0.00     0.297 C 
BRANCH  34  35
HETATM   35  O3  UNL     1     -11.259  96.015  25.298  1.00  0.00    -0.369 OA
ATOM     36  H3  UNL     1     -10.935  95.356  25.901  1.00  0.00     0.212 HD
ENDBRANCH  34  35
BRANCH  34  37
HETATM   37  C11 UNL     1     -12.885  95.969  26.995  1.00  0.00     0.191 A 
HETATM   38  N10 UNL     1     -12.082  95.927  28.055  1.00  0.00    -0.276 N 
HETATM   39  N11 UNL     1     -12.764  95.490  29.084  1.00  0.00    -0.263 N 
ATOM     40  H10 UNL     1     -11.097  96.193  28.064  1.00  0.00     0.189 HD
HETATM   41  C12 UNL     1     -14.012  95.255  28.665  1.00  0.00     0.238 A 
ATOM     42  H11 UNL     1     -12.408  95.353  30.030  1.00  0.00     0.190 HD
HETATM   43  N12 UNL     1     -14.983  94.816  29.381  1.00  0.00    -0.364 N 
HETATM   44  O4  UNL     1     -14.049  95.557  27.394  1.00  0.00    -0.259 OA
ATOM     45 2H12 UNL     1     -14.954  94.581  30.373  1.00  0.00     0.159 HD
ATOM     46 1H12 UNL     1     -15.936  94.637  29.062  1.00  0.00     0.159 HD
ENDBRANCH  34  37
ENDBRANCH  32  34
ENDBRANCH  16  32
ENDBRANCH   1  11
TORSDOF 12
ENDMDL
MODEL 4
REMARK VINA RESULT: -7.364573253      2.569      3.509
REMARK  12 active torsions:
REMARK  status: ('A' for Active; 'I' for Inactive)
REMARK    1  A    between atoms: O1_2  and  C2_3 
REMARK    2  A    between atoms: C2_3  and  C3_5 
REMARK    3  A    between atoms: C3_5  and  N1_6 
REMARK    4  A    between atoms: N1_6  and  N2_7 
REMARK    5  A    between atoms: N2_7  and  C4_9 
REMARK    6  A    between atoms: C5_12  and  C6_13 
REMARK    7  A    between atoms: C9_25  and  N9_26 
REMARK    8  A    between atoms: N9_26  and  C10_28 
REMARK    9  A    between atoms: C10_28  and  O3_29 
REMARK   10  A    between atoms: C10_28  and  C11_31 
REMARK   11  A    between atoms: C13_41  and  N13_42 
REMARK   12  A    between atoms: N13_42  and  N14_44 
ROOT
HETATM    1  C6  UNL     1     -11.720  95.996  21.529  1.00  0.00     0.167 A 
HETATM    2  N4  UNL     1     -12.665  96.049  22.472  1.00  0.00    -0.315 N 
ATOM      3  H4  UNL     1     -13.623  96.359  22.314  1.00  0.00     0.170 HD
HETATM    4  C7  UNL     1     -12.182  95.640  23.662  1.00  0.00     0.204 A 
HETATM    5  C8  UNL     1     -12.888  95.550  24.923  1.00  0.00     0.138 C 
HETATM    6  N5  UNL     1     -13.448  95.459  25.940  1.00  0.00    -0.188 NA
HETATM    7  N6  UNL     1     -10.896  95.325  23.441  1.00  0.00    -0.275 N 
ATOM      8  H6  UNL     1     -10.241  94.978  24.141  1.00  0.00     0.189 HD
HETATM    9  N7  UNL     1     -10.619  95.540  22.154  1.00  0.00    -0.280 N 
ATOM     10  H7  UNL     1      -9.712  95.383  21.712  1.00  0.00     0.188 HD
ENDROOT
BRANCH   1  11
HETATM   11  C5  UNL     1     -11.787  96.349  20.117  1.00  0.00     0.155 A 
HETATM   12  N3  UNL     1     -12.381  95.559  19.214  1.00  0.00    -0.322 N 
HETATM   13  C4  UNL     1     -12.447  95.865  17.907  1.00  0.00     0.165 A 
ATOM     14  H3  UNL     1     -12.803  94.687  19.532  1.00  0.00     0.169 HD
HETATM   15  C13 UNL     1     -11.897  97.024  17.421  1.00  0.00     0.138 A 
HETATM   16  C9  UNL     1     -11.270  97.864  18.356  1.00  0.00     0.137 A 
HETATM   17  N8  UNL     1     -11.236  97.506  19.654  1.00  0.00    -0.324 N 
ATOM     18  H8  UNL     1     -10.779  98.129  20.320  1.00  0.00     0.169 HD
BRANCH  13  19
HETATM   19  N2  UNL     1     -13.092  95.024  16.928  1.00  0.00    -0.217 N 
ATOM     20  H2  UNL     1     -14.078  94.783  17.033  1.00  0.00     0.203 HD
BRANCH  19  21
HETATM   21  N1  UNL     1     -12.414  94.572  15.906  1.00  0.00    -0.331 NA
BRANCH  21  22
HETATM   22  C3  UNL     1     -11.882  94.054  14.998  1.00  0.00     0.290 C 
BRANCH  22  23
HETATM   23  C2  UNL     1     -11.241  94.793  13.901  1.00  0.00     0.313 C 
HETATM   24  O2  UNL     1     -11.801  95.846  13.420  1.00  0.00    -0.257 OA
BRANCH  23  25
HETATM   25  O1  UNL     1     -10.058  94.428  13.338  1.00  0.00    -0.321 OA
HETATM   26  C1  UNL     1      -9.400  95.236  12.349  1.00  0.00     0.213 C 
ENDBRANCH  23  25
ENDBRANCH  22  23
ENDBRANCH  21  22
ENDBRANCH  19  21
ENDBRANCH  13  19
BRANCH  15  27
HETATM   27  N13 UNL     1     -11.965  97.407  16.071  1.00  0.00    -0.300 N 
ATOM     28  H13 UNL     1     -11.126  97.322  15.498  1.00  0.00     0.186 HD
BRANCH  27  29
HETATM   29  N14 UNL     1     -13.138  97.900  15.478  1.00  0.00    -0.344 N 
ATOM     30 2H14 UNL     1     -13.979  97.328  15.549  1.00  0.00     0.176 HD
ATOM     31 1H14 UNL     1     -13.176  98.794  14.988  1.00  0.00     0.176 HD
ENDBRANCH  27  29
ENDBRANCH  15  27
BRANCH  16  32
HETATM   32  N9  UNL     1     -10.779  98.928  17.867  1.00  0.00    -0.341 N 
ATOM     33  H9  UNL     1     -11.400  99.622  17.451  1.00  0.00     0.164 HD
BRANCH  32  34
HETATM   34  C10 UNL     1      -9.359  99.172  17.890  1.00  0.00     0.297 C 
BRANCH  34  35
HETATM   35  O3  UNL     1      -8.744  98.581  19.009  1.00  0.00    -0.369 OA
ATOM     36  H3  UNL     1      -8.752  99.157  19.764  1.00  0.00     0.212 HD
ENDBRANCH  34  35
BRANCH  34  37
HETATM   37  C11 UNL     1      -9.197 100.653  17.997  1.00  0.00     0.191 A 
HETATM   38  N10 UNL     1      -9.300 101.582  17.050  1.00  0.00    -0.276 N 
HETATM   39  N11 UNL     1      -9.078 102.757  17.585  1.00  0.00    -0.263 N 
ATOM     40  H10 UNL     1      -9.517 101.408  16.069  1.00  0.00     0.189 HD
HETATM   41  C12 UNL     1      -8.834 102.563  18.886  1.00  0.00     0.238 A 
ATOM     42  H11 UNL     1      -9.089 103.653  17.100  1.00  0.00     0.190 HD
HETATM   43  N12 UNL     1      -8.569 103.473  19.753  1.00  0.00    -0.364 N 
HETATM   44  O4  UNL     1      -8.914 101.277  19.100  1.00  0.00    -0.259 OA
ATOM     45 2H12 UNL     1      -8.506 104.477  19.585  1.00  0.00     0.159 HD
ATOM     46 1H12 UNL     1      -8.383 103.326  20.745  1.00  0.00     0.159 HD
ENDBRANCH  34  37
ENDBRANCH  32  34
ENDBRANCH  16  32
ENDBRANCH   1  11
TORSDOF 12
ENDMDL
MODEL 5
REMARK VINA RESULT: -7.351083291      4.841      7.857
REMARK  12 active torsions:
REMARK  status: ('A' for Active; 'I' for Inactive)
REMARK    1  A    between atoms: O1_2  and  C2_3 
REMARK    2  A    between atoms: C2_3  and  C3_5 
REMARK    3  A    between atoms: C3_5  and  N1_6 
REMARK    4  A    between atoms: N1_6  and  N2_7 
REMARK    5  A    between atoms: N2_7  and  C4_9 
REMARK    6  A    between atoms: C5_12  and  C6_13 
REMARK    7  A    between atoms: C9_25  and  N9_26 
REMARK    8  A    between atoms: N9_26  and  C10_28 
REMARK    9  A    between atoms: C10_28  and  O3_29 
REMARK   10  A    between atoms: C10_28  and  C11_31 
REMARK   11  A    between atoms: C13_41  and  N13_42 
REMARK   12  A    between atoms: N13_42  and  N14_44 
ROOT
HETATM    1  C6  UNL     1     -13.886 101.258  14.152  1.00  0.00     0.167 A 
HETATM    2  N4  UNL     1     -14.319 101.578  12.930  1.00  0.00    -0.315 N 
ATOM      3  H4  UNL     1     -14.456 100.910  12.172  1.00  0.00     0.170 HD
HETATM    4  C7  UNL     1     -14.553 102.902  12.832  1.00  0.00     0.204 A 
HETATM    5  C8  UNL     1     -15.030 103.636  11.679  1.00  0.00     0.138 C 
HETATM    6  N5  UNL     1     -15.427 104.237  10.763  1.00  0.00    -0.188 NA
HETATM    7  N6  UNL     1     -14.251 103.411  14.036  1.00  0.00    -0.275 N 
ATOM      8  H6  UNL     1     -14.319 104.394  14.300  1.00  0.00     0.189 HD
HETATM    9  N7  UNL     1     -13.849 102.419  14.832  1.00  0.00    -0.280 N 
ATOM     10  H7  UNL     1     -13.559 102.524  15.804  1.00  0.00     0.188 HD
ENDROOT
BRANCH   1  11
HETATM   11  C5  UNL     1     -13.504  99.963  14.700  1.00  0.00     0.155 A 
HETATM   12  N3  UNL     1     -13.881  98.811  14.130  1.00  0.00    -0.322 N 
HETATM   13  C4  UNL     1     -13.545  97.607  14.625  1.00  0.00     0.165 A 
ATOM     14  H3  UNL     1     -14.448  98.849  13.283  1.00  0.00     0.169 HD
HETATM   15  C13 UNL     1     -12.785  97.494  15.761  1.00  0.00     0.138 A 
HETATM   16  C9  UNL     1     -12.382  98.694  16.371  1.00  0.00     0.137 A 
HETATM   17  N8  UNL     1     -12.747  99.871  15.829  1.00  0.00    -0.324 N 
ATOM     18  H8  UNL     1     -12.444 100.733  16.283  1.00  0.00     0.169 HD
BRANCH  13  19
HETATM   19  N2  UNL     1     -13.938  96.361  14.013  1.00  0.00    -0.217 N 
ATOM     20  H2  UNL     1     -14.922  96.095  13.985  1.00  0.00     0.203 HD
BRANCH  19  21
HETATM   21  N1  UNL     1     -13.032  95.574  13.494  1.00  0.00    -0.331 NA
BRANCH  21  22
HETATM   22  C3  UNL     1     -12.324  94.796  12.976  1.00  0.00     0.290 C 
BRANCH  22  23
HETATM   23  C2  UNL     1     -11.381  93.940  13.710  1.00  0.00     0.313 C 
HETATM   24  O2  UNL     1     -11.575  93.686  14.955  1.00  0.00    -0.257 OA
BRANCH  23  25
HETATM   25  O1  UNL     1     -10.277  93.380  13.145  1.00  0.00    -0.321 OA
HETATM   26  C1  UNL     1      -9.387  94.127  12.302  1.00  0.00     0.213 C 
ENDBRANCH  23  25
ENDBRANCH  22  23
ENDBRANCH  21  22
ENDBRANCH  19  21
ENDBRANCH  13  19
BRANCH  15  27
HETATM   27  N13 UNL     1     -12.379  96.263  16.302  1.00  0.00    -0.300 N 
ATOM     28  H13 UNL     1     -11.396  96.003  16.236  1.00  0.00     0.186 HD
BRANCH  27  29
HETATM   29  N14 UNL     1     -13.269  95.376  16.928  1.00  0.00    -0.344 N 
ATOM     30 2H14 UNL     1     -13.488  94.507  16.441  1.00  0.00     0.176 HD
ATOM     31 1H14 UNL     1     -13.695  95.567  17.834  1.00  0.00     0.176 HD
ENDBRANCH  27  29
ENDBRANCH  15  27
BRANCH  16  32
HETATM   32  N9  UNL     1     -11.676  98.545  17.416  1.00  0.00    -0.341 N 
ATOM     33  H9  UNL     1     -12.132  98.479  18.325  1.00  0.00     0.164 HD
BRANCH  32  34
HETATM   34  C10 UNL     1     -10.239  98.470  17.338  1.00  0.00     0.297 C 
BRANCH  34  35
HETATM   35  O3  UNL     1      -9.723  97.434  18.138  1.00  0.00    -0.369 OA
ATOM     36  H3  UNL     1      -8.931  97.061  17.768  1.00  0.00     0.212 HD
ENDBRANCH  34  35
BRANCH  34  37
HETATM   37  C11 UNL     1      -9.728  99.769  17.871  1.00  0.00     0.191 A 
HETATM   38  N10 UNL     1      -9.295 100.066  19.093  1.00  0.00    -0.276 N 
HETATM   39  N11 UNL     1      -8.943 101.327  19.122  1.00  0.00    -0.263 N 
ATOM     40  H10 UNL     1      -9.245  99.417  19.879  1.00  0.00     0.189 HD
HETATM   41  C12 UNL     1      -9.157 101.829  17.901  1.00  0.00     0.238 A 
ATOM     42  H11 UNL     1      -8.575 101.833  19.926  1.00  0.00     0.190 HD
HETATM   43  N12 UNL     1      -8.936 103.037  17.526  1.00  0.00    -0.364 N 
HETATM   44  O4  UNL     1      -9.633 100.857  17.168  1.00  0.00    -0.259 OA
ATOM     45 2H12 UNL     1      -8.564 103.796  18.098  1.00  0.00     0.159 HD
ATOM     46 1H12 UNL     1      -9.098 103.420  16.595  1.00  0.00     0.159 HD
ENDBRANCH  34  37
ENDBRANCH  32  34
ENDBRANCH  16  32
ENDBRANCH   1  11
TORSDOF 12
ENDMDL
