MODEL 1
REMARK VINA RESULT: -10.057553303      0.000      0.000
REMARK  18 active torsions:
REMARK  status: ('A' for Active; 'I' for Inactive)
REMARK    1  A    between atoms: C2_2  and  C3_3 
REMARK    2  A    between atoms: C3_3  and  C4_4 
REMARK    3  A    between atoms: C3_3  and  C7_9 
REMARK    4  A    between atoms: C3_3  and  N1_12 
REMARK    5  A    between atoms: C4_4  and  C5_5 
REMARK    6  A    between atoms: C5_5  and  C6_6 
REMARK    7  A    between atoms: N2_15  and  C10_16 
REMARK    8  A    between atoms: C10_16  and  N3_17 
REMARK    9  A    between atoms: C12_19  and  C13_20 
REMARK   10  A    between atoms: C13_20  and  O5_21 
REMARK   11  A    between atoms: O5_21  and  C14_22 
REMARK       I    between atoms: C14_22  and  N4_24 
REMARK   12  A    between atoms: N4_24  and  C15_26 
REMARK   13  A    between atoms: N7_30  and  C16_31 
REMARK   14  A    between atoms: N8_37  and  O9_38 
REMARK   15  A    between atoms: C21_41  and  O10_42 
REMARK   16  A    between atoms: C22_44  and  O11_45 
REMARK   17  A    between atoms: C22_44  and  C23_47 
REMARK   18  A    between atoms: C23_47  and  O12_48 
ROOT
HETATM    1  C14 UNL     1      23.665   4.715  37.795  1.00  0.00     0.379 C 
HETATM    2  O6  UNL     1      24.874   5.004  37.863  1.00  0.00    -0.238 OA
HETATM    3  N4  UNL     1      22.684   5.716  37.962  1.00  0.00    -0.133 N 
ATOM      4  H4  UNL     1      22.056   5.663  38.763  1.00  0.00     0.190 HD
ENDROOT
BRANCH   1   5
HETATM    5  O5  UNL     1      23.270   3.424  37.557  1.00  0.00    -0.297 OA
BRANCH   5   6
HETATM    6  C13 UNL     1      22.649   3.038  36.378  1.00  0.00     0.240 C 
BRANCH   6   7
HETATM    7  C12 UNL     1      23.533   2.378  35.390  1.00  0.00     0.069 A 
HETATM    8  C11 UNL     1      24.906   2.451  35.255  1.00  0.00     0.146 A 
HETATM    9  N3  UNL     1      25.286   1.680  34.224  1.00  0.00    -0.252 N 
HETATM   10  N11 UNL     1      24.169   1.152  33.746  1.00  0.00    -0.236 N 
HETATM   11  N10 UNL     1      23.111   1.552  34.423  1.00  0.00    -0.286 N 
ATOM     12  H11 UNL     1      24.132   0.514  32.951  1.00  0.00     0.209 HD
ATOM     13  H10 UNL     1      22.144   1.281  34.244  1.00  0.00     0.188 HD
BRANCH   9  14
HETATM   14  C10 UNL     1      26.642   1.522  33.803  1.00  0.00     0.180 C 
BRANCH  14  15
HETATM   15  N2  UNL     1      27.625   1.480  34.821  1.00  0.00    -0.250 NA
HETATM   16  C9  UNL     1      27.383   0.615  35.924  1.00  0.00     0.128 C 
HETATM   17  C8  UNL     1      27.957   1.337  37.146  1.00  0.00     0.290 C 
HETATM   18  N1  UNL     1      28.274   2.648  36.710  1.00  0.00     0.123 N 
HETATM   19  C24 UNL     1      28.105   2.740  35.304  1.00  0.00     0.372 C 
BRANCH  18  20
HETATM   20  C3  UNL     1      29.585   3.140  37.121  1.00  0.00     0.247 C 
BRANCH  20  21
HETATM   21  C2  UNL     1      30.392   1.918  37.499  1.00  0.00     0.049 C 
HETATM   22  C1  UNL     1      31.771   1.936  36.884  1.00  0.00     0.008 C 
ENDBRANCH  20  21
BRANCH  20  23
HETATM   23  C4  UNL     1      30.253   3.854  35.991  1.00  0.00     0.064 C 
BRANCH  23  24
HETATM   24  C5  UNL     1      30.497   5.307  36.252  1.00  0.00     0.116 C 
BRANCH  24  25
HETATM   25  C6  UNL     1      31.684   5.739  35.429  1.00  0.00     0.172 C 
HETATM   26  O1  UNL     1      32.718   5.074  35.433  1.00  0.00    -0.648 OA
HETATM   27  O2  UNL     1      31.582   6.889  34.681  1.00  0.00    -0.648 OA
ENDBRANCH  24  25
ENDBRANCH  23  24
ENDBRANCH  20  23
BRANCH  20  28
HETATM   28  C7  UNL     1      29.486   4.019  38.297  1.00  0.00     0.213 C 
HETATM   29  O3  UNL     1      28.345   4.390  38.762  1.00  0.00    -0.646 OA
HETATM   30  O4  UNL     1      30.557   4.530  39.018  1.00  0.00    -0.646 OA
ENDBRANCH  20  28
ENDBRANCH  18  20
ENDBRANCH  14  15
ENDBRANCH   9  14
ENDBRANCH   6   7
ENDBRANCH   5   6
ENDBRANCH   1   5
BRANCH   3  31
HETATM   31  C15 UNL     1      22.559   6.693  37.132  1.00  0.00     0.715 A 
HETATM   32  N5  UNL     1      23.534   7.576  36.844  1.00  0.00    -0.113 N 
HETATM   33  N6  UNL     1      23.048   8.430  35.961  1.00  0.00     0.014 NA
ATOM     34  H5  UNL     1      24.476   7.584  37.237  1.00  0.00     0.203 HD
HETATM   35  N7  UNL     1      21.795   8.129  35.670  1.00  0.00    -0.171 N 
HETATM   36  N9  UNL     1      21.488   7.064  36.386  1.00  0.00    -0.113 N 
ATOM     37  H9  UNL     1      20.584   6.592  36.379  1.00  0.00     0.207 HD
BRANCH  35  38
HETATM   38  C16 UNL     1      20.912   8.823  34.745  1.00  0.00     0.287 C 
HETATM   39  C17 UNL     1      19.928   7.839  34.185  1.00  0.00     0.225 C 
HETATM   40  O7  UNL     1      18.974   8.437  33.399  1.00  0.00    -0.374 OA
HETATM   41  C18 UNL     1      18.618   9.711  33.765  1.00  0.00     0.206 C 
HETATM   42  C19 UNL     1      18.981   9.979  35.223  1.00  0.00     0.255 C 
HETATM   43  C22 UNL     1      17.153  10.013  33.618  1.00  0.00     0.135 C 
HETATM   44  O8  UNL     1      20.329   9.867  35.444  1.00  0.00    -0.337 OA
HETATM   45  N8  UNL     1      18.258   9.103  36.099  1.00  0.00    -0.165 NA
HETATM   46  C20 UNL     1      16.829   9.202  35.948  1.00  0.00     0.158 C 
HETATM   47  C21 UNL     1      16.382   9.094  34.521  1.00  0.00     0.172 C 
BRANCH  45  48
HETATM   48  O9  UNL     1      18.563   9.449  37.373  1.00  0.00    -0.310 OA
ATOM     49  H9  UNL     1      18.543  10.398  37.428  1.00  0.00     0.237 HD
ENDBRANCH  45  48
BRANCH  47  50
HETATM   50  O10 UNL     1      16.609   7.795  34.100  1.00  0.00    -0.391 OA
ATOM     51  H10 UNL     1      16.962   7.830  33.218  1.00  0.00     0.210 HD
ENDBRANCH  47  50
BRANCH  43  52
HETATM   52  O11 UNL     1      16.983  11.364  33.996  1.00  0.00    -0.382 OA
ATOM     53  H11 UNL     1      16.103  11.608  33.732  1.00  0.00     0.210 HD
ENDBRANCH  43  52
BRANCH  43  54
HETATM   54  C23 UNL     1      16.661   9.894  32.203  1.00  0.00     0.207 C 
BRANCH  54  55
HETATM   55  O12 UNL     1      17.773   9.993  31.366  1.00  0.00    -0.398 OA
ATOM     56  H12 UNL     1      17.643  10.753  30.812  1.00  0.00     0.209 HD
ENDBRANCH  54  55
ENDBRANCH  43  54
ENDBRANCH  35  38
ENDBRANCH   3  31
TORSDOF 18
ENDMDL
MODEL 2
REMARK VINA RESULT: -9.994419856      2.086      2.979
REMARK  18 active torsions:
REMARK  status: ('A' for Active; 'I' for Inactive)
REMARK    1  A    between atoms: C2_2  and  C3_3 
REMARK    2  A    between atoms: C3_3  and  C4_4 
REMARK    3  A    between atoms: C3_3  and  C7_9 
REMARK    4  A    between atoms: C3_3  and  N1_12 
REMARK    5  A    between atoms: C4_4  and  C5_5 
REMARK    6  A    between atoms: C5_5  and  C6_6 
REMARK    7  A    between atoms: N2_15  and  C10_16 
REMARK    8  A    between atoms: C10_16  and  N3_17 
REMARK    9  A    between atoms: C12_19  and  C13_20 
REMARK   10  A    between atoms: C13_20  and  O5_21 
REMARK   11  A    between atoms: O5_21  and  C14_22 
REMARK       I    between atoms: C14_22  and  N4_24 
REMARK   12  A    between atoms: N4_24  and  C15_26 
REMARK   13  A    between atoms: N7_30  and  C16_31 
REMARK   14  A    between atoms: N8_37  and  O9_38 
REMARK   15  A    between atoms: C21_41  and  O10_42 
REMARK   16  A    between atoms: C22_44  and  O11_45 
REMARK   17  A    between atoms: C22_44  and  C23_47 
REMARK   18  A    between atoms: C23_47  and  O12_48 
ROOT
HETATM    1  C14 UNL     1      23.470   5.888  38.599  1.00  0.00     0.379 C 
HETATM    2  O6  UNL     1      24.186   6.818  38.183  1.00  0.00    -0.238 OA
HETATM    3  N4  UNL     1      22.328   6.163  39.380  1.00  0.00    -0.133 N 
ATOM      4  H4  UNL     1      22.300   5.841  40.347  1.00  0.00     0.190 HD
ENDROOT
BRANCH   1   5
HETATM    5  O5  UNL     1      23.781   4.585  38.304  1.00  0.00    -0.297 OA
BRANCH   5   6
HETATM    6  C13 UNL     1      23.312   3.944  37.167  1.00  0.00     0.240 C 
BRANCH   6   7
HETATM    7  C12 UNL     1      24.362   3.438  36.254  1.00  0.00     0.069 A 
HETATM    8  C11 UNL     1      25.268   2.412  36.443  1.00  0.00     0.146 A 
HETATM    9  N3  UNL     1      26.030   2.293  35.343  1.00  0.00    -0.252 N 
HETATM   10  N11 UNL     1      25.595   3.225  34.508  1.00  0.00    -0.236 N 
HETATM   11  N10 UNL     1      24.601   3.920  35.027  1.00  0.00    -0.286 N 
ATOM     12  H11 UNL     1      25.980   3.386  33.578  1.00  0.00     0.209 HD
ATOM     13  H10 UNL     1      24.104   4.687  34.575  1.00  0.00     0.188 HD
BRANCH   9  14
HETATM   14  C10 UNL     1      27.073   1.328  35.195  1.00  0.00     0.180 C 
BRANCH  14  15
HETATM   15  N2  UNL     1      28.307   1.620  35.825  1.00  0.00    -0.250 NA
HETATM   16  C9  UNL     1      28.459   1.207  37.178  1.00  0.00     0.128 C 
HETATM   17  C8  UNL     1      29.300   2.296  37.848  1.00  0.00     0.290 C 
HETATM   18  N1  UNL     1      29.375   3.360  36.914  1.00  0.00     0.123 N 
HETATM   19  C24 UNL     1      28.804   2.955  35.679  1.00  0.00     0.372 C 
BRANCH  18  20
HETATM   20  C3  UNL     1      30.707   3.927  36.722  1.00  0.00     0.247 C 
BRANCH  20  21
HETATM   21  C2  UNL     1      30.560   4.992  35.659  1.00  0.00     0.049 C 
HETATM   22  C1  UNL     1      31.821   5.804  35.491  1.00  0.00     0.008 C 
ENDBRANCH  20  21
BRANCH  20  23
HETATM   23  C4  UNL     1      31.199   4.546  37.990  1.00  0.00     0.064 C 
BRANCH  23  24
HETATM   24  C5  UNL     1      30.180   5.392  38.686  1.00  0.00     0.116 C 
BRANCH  24  25
HETATM   25  C6  UNL     1      30.906   6.479  39.437  1.00  0.00     0.172 C 
HETATM   26  O1  UNL     1      30.471   7.629  39.441  1.00  0.00    -0.648 OA
HETATM   27  O2  UNL     1      32.060   6.155  40.112  1.00  0.00    -0.648 OA
ENDBRANCH  24  25
ENDBRANCH  23  24
ENDBRANCH  20  23
BRANCH  20  28
HETATM   28  C7  UNL     1      31.659   2.912  36.242  1.00  0.00     0.213 C 
HETATM   29  O3  UNL     1      32.190   2.058  37.045  1.00  0.00    -0.646 OA
HETATM   30  O4  UNL     1      32.080   2.756  34.928  1.00  0.00    -0.646 OA
ENDBRANCH  20  28
ENDBRANCH  18  20
ENDBRANCH  14  15
ENDBRANCH   9  14
ENDBRANCH   6   7
ENDBRANCH   5   6
ENDBRANCH   1   5
BRANCH   3  31
HETATM   31  C15 UNL     1      21.318   6.808  38.907  1.00  0.00     0.715 A 
HETATM   32  N5  UNL     1      20.342   7.350  39.660  1.00  0.00    -0.113 N 
HETATM   33  N6  UNL     1      19.482   7.928  38.839  1.00  0.00     0.014 NA
ATOM     34  H5  UNL     1      20.279   7.321  40.677  1.00  0.00     0.203 HD
HETATM   35  N7  UNL     1      19.870   7.776  37.585  1.00  0.00    -0.171 N 
HETATM   36  N9  UNL     1      20.996   7.089  37.619  1.00  0.00    -0.113 N 
ATOM     37  H9  UNL     1      21.540   6.813  36.803  1.00  0.00     0.207 HD
BRANCH  35  38
HETATM   38  C16 UNL     1      19.199   8.264  36.389  1.00  0.00     0.287 C 
HETATM   39  C17 UNL     1      19.986   7.836  35.185  1.00  0.00     0.225 C 
HETATM   40  O7  UNL     1      19.354   8.144  34.006  1.00  0.00    -0.374 OA
HETATM   41  C18 UNL     1      17.982   8.112  34.042  1.00  0.00     0.206 C 
HETATM   42  C19 UNL     1      17.489   7.268  35.214  1.00  0.00     0.255 C 
HETATM   43  C22 UNL     1      17.341   7.553  32.803  1.00  0.00     0.135 C 
HETATM   44  O8  UNL     1      17.904   7.773  36.419  1.00  0.00    -0.337 OA
HETATM   45  N8  UNL     1      17.911   5.904  35.075  1.00  0.00    -0.165 NA
HETATM   46  C20 UNL     1      17.470   5.297  33.845  1.00  0.00     0.158 C 
HETATM   47  C21 UNL     1      17.784   6.128  32.637  1.00  0.00     0.172 C 
BRANCH  45  48
HETATM   48  O9  UNL     1      17.372   5.199  36.098  1.00  0.00    -0.310 OA
ATOM     49  H9  UNL     1      16.560   4.815  35.789  1.00  0.00     0.237 HD
ENDBRANCH  45  48
BRANCH  47  50
HETATM   50  O10 UNL     1      19.157   6.126  32.462  1.00  0.00    -0.391 OA
ATOM     51  H10 UNL     1      19.418   6.995  32.180  1.00  0.00     0.210 HD
ENDBRANCH  47  50
BRANCH  43  52
HETATM   52  O11 UNL     1      15.945   7.637  33.002  1.00  0.00    -0.382 OA
ATOM     53  H11 UNL     1      15.541   7.183  32.270  1.00  0.00     0.210 HD
ENDBRANCH  43  52
BRANCH  43  54
HETATM   54  C23 UNL     1      17.650   8.347  31.565  1.00  0.00     0.207 C 
BRANCH  54  55
HETATM   55  O12 UNL     1      17.369   7.533  30.468  1.00  0.00    -0.398 OA
ATOM     56  H12 UNL     1      16.640   7.926  30.004  1.00  0.00     0.209 HD
ENDBRANCH  54  55
ENDBRANCH  43  54
ENDBRANCH  35  38
ENDBRANCH   3  31
TORSDOF 18
ENDMDL
MODEL 3
REMARK VINA RESULT: -9.887380338      2.526     11.386
REMARK  18 active torsions:
REMARK  status: ('A' for Active; 'I' for Inactive)
REMARK    1  A    between atoms: C2_2  and  C3_3 
REMARK    2  A    between atoms: C3_3  and  C4_4 
REMARK    3  A    between atoms: C3_3  and  C7_9 
REMARK    4  A    between atoms: C3_3  and  N1_12 
REMARK    5  A    between atoms: C4_4  and  C5_5 
REMARK    6  A    between atoms: C5_5  and  C6_6 
REMARK    7  A    between atoms: N2_15  and  C10_16 
REMARK    8  A    between atoms: C10_16  and  N3_17 
REMARK    9  A    between atoms: C12_19  and  C13_20 
REMARK   10  A    between atoms: C13_20  and  O5_21 
REMARK   11  A    between atoms: O5_21  and  C14_22 
REMARK       I    between atoms: C14_22  and  N4_24 
REMARK   12  A    between atoms: N4_24  and  C15_26 
REMARK   13  A    between atoms: N7_30  and  C16_31 
REMARK   14  A    between atoms: N8_37  and  O9_38 
REMARK   15  A    between atoms: C21_41  and  O10_42 
REMARK   16  A    between atoms: C22_44  and  O11_45 
REMARK   17  A    between atoms: C22_44  and  C23_47 
REMARK   18  A    between atoms: C23_47  and  O12_48 
ROOT
HETATM    1  C14 UNL     1      24.239   4.723  37.691  1.00  0.00     0.379 C 
HETATM    2  O6  UNL     1      24.364   5.707  36.939  1.00  0.00    -0.238 OA
HETATM    3  N4  UNL     1      24.152   3.422  37.152  1.00  0.00    -0.133 N 
ATOM      4  H4  UNL     1      23.289   2.892  37.274  1.00  0.00     0.190 HD
ENDROOT
BRANCH   1   5
HETATM    5  O5  UNL     1      24.183   4.889  39.051  1.00  0.00    -0.297 OA
BRANCH   5   6
HETATM    6  C13 UNL     1      24.079   6.136  39.648  1.00  0.00     0.240 C 
BRANCH   6   7
HETATM    7  C12 UNL     1      22.702   6.673  39.746  1.00  0.00     0.069 A 
HETATM    8  C11 UNL     1      21.739   6.799  38.764  1.00  0.00     0.146 A 
HETATM    9  N3  UNL     1      20.630   7.330  39.305  1.00  0.00    -0.252 N 
HETATM   10  N11 UNL     1      20.916   7.521  40.584  1.00  0.00    -0.236 N 
HETATM   11  N10 UNL     1      22.144   7.137  40.872  1.00  0.00    -0.286 N 
ATOM     12  H11 UNL     1      20.266   7.916  41.263  1.00  0.00     0.209 HD
ATOM     13  H10 UNL     1      22.590   7.185  41.788  1.00  0.00     0.188 HD
BRANCH   9  14
HETATM   14  C10 UNL     1      19.434   7.598  38.571  1.00  0.00     0.180 C 
BRANCH  14  15
HETATM   15  N2  UNL     1      19.531   7.566  37.159  1.00  0.00    -0.250 NA
HETATM   16  C9  UNL     1      19.263   8.776  36.461  1.00  0.00     0.128 C 
HETATM   17  C8  UNL     1      18.568   8.357  35.163  1.00  0.00     0.290 C 
HETATM   18  N1  UNL     1      18.276   6.977  35.306  1.00  0.00     0.123 N 
HETATM   19  C24 UNL     1      18.876   6.480  36.493  1.00  0.00     0.372 C 
BRANCH  18  20
HETATM   20  C3  UNL     1      18.612   6.147  34.154  1.00  0.00     0.247 C 
BRANCH  20  21
HETATM   21  C2  UNL     1      19.454   7.014  33.244  1.00  0.00     0.049 C 
HETATM   22  C1  UNL     1      19.231   6.690  31.787  1.00  0.00     0.008 C 
ENDBRANCH  20  21
BRANCH  20  23
HETATM   23  C4  UNL     1      19.401   4.953  34.582  1.00  0.00     0.064 C 
BRANCH  23  24
HETATM   24  C5  UNL     1      20.867   5.062  34.302  1.00  0.00     0.116 C 
BRANCH  24  25
HETATM   25  C6  UNL     1      21.570   3.949  35.038  1.00  0.00     0.172 C 
HETATM   26  O1  UNL     1      22.353   3.211  34.445  1.00  0.00    -0.648 OA
HETATM   27  O2  UNL     1      21.314   3.783  36.379  1.00  0.00    -0.648 OA
ENDBRANCH  24  25
ENDBRANCH  23  24
ENDBRANCH  20  23
BRANCH  20  28
HETATM   28  C7  UNL     1      17.406   5.730  33.420  1.00  0.00     0.213 C 
HETATM   29  O3  UNL     1      17.160   4.489  33.184  1.00  0.00    -0.646 OA
HETATM   30  O4  UNL     1      16.429   6.580  32.921  1.00  0.00    -0.646 OA
ENDBRANCH  20  28
ENDBRANCH  18  20
ENDBRANCH  14  15
ENDBRANCH   9  14
ENDBRANCH   6   7
ENDBRANCH   5   6
ENDBRANCH   1   5
BRANCH   3  31
HETATM   31  C15 UNL     1      25.131   2.883  36.511  1.00  0.00     0.715 A 
HETATM   32  N5  UNL     1      24.993   1.913  35.587  1.00  0.00    -0.113 N 
HETATM   33  N6  UNL     1      26.202   1.609  35.147  1.00  0.00     0.014 NA
ATOM     34  H5  UNL     1      24.116   1.491  35.282  1.00  0.00     0.203 HD
HETATM   35  N7  UNL     1      27.112   2.348  35.755  1.00  0.00    -0.171 N 
HETATM   36  N9  UNL     1      26.462   3.131  36.594  1.00  0.00    -0.113 N 
ATOM     37  H9  UNL     1      26.895   3.819  37.211  1.00  0.00     0.207 HD
BRANCH  35  38
HETATM   38  C16 UNL     1      28.553   2.317  35.552  1.00  0.00     0.287 C 
HETATM   39  C17 UNL     1      29.018   3.692  35.173  1.00  0.00     0.225 C 
HETATM   40  O7  UNL     1      30.385   3.782  35.088  1.00  0.00    -0.374 OA
HETATM   41  C18 UNL     1      31.086   2.976  35.950  1.00  0.00     0.206 C 
HETATM   42  C19 UNL     1      30.214   2.550  37.128  1.00  0.00     0.255 C 
HETATM   43  C22 UNL     1      32.319   3.611  36.529  1.00  0.00     0.135 C 
HETATM   44  O8  UNL     1      29.119   1.834  36.721  1.00  0.00    -0.337 OA
HETATM   45  N8  UNL     1      29.805   3.689  37.899  1.00  0.00    -0.165 NA
HETATM   46  C20 UNL     1      30.913   4.465  38.395  1.00  0.00     0.158 C 
HETATM   47  C21 UNL     1      31.908   4.813  37.329  1.00  0.00     0.172 C 
BRANCH  45  48
HETATM   48  O9  UNL     1      29.108   3.234  38.968  1.00  0.00    -0.310 OA
ATOM     49  H9  UNL     1      28.482   3.906  39.212  1.00  0.00     0.237 HD
ENDBRANCH  45  48
BRANCH  47  50
HETATM   50  O10 UNL     1      31.311   5.715  36.466  1.00  0.00    -0.391 OA
ATOM     51  H10 UNL     1      31.990   6.283  36.120  1.00  0.00     0.210 HD
ENDBRANCH  47  50
BRANCH  43  52
HETATM   52  O11 UNL     1      32.927   2.633  37.348  1.00  0.00    -0.382 OA
ATOM     53  H11 UNL     1      32.440   2.625  38.164  1.00  0.00     0.210 HD
ENDBRANCH  43  52
BRANCH  43  54
HETATM   54  C23 UNL     1      33.334   3.995  35.488  1.00  0.00     0.207 C 
BRANCH  54  55
HETATM   55  O12 UNL     1      33.069   3.236  34.349  1.00  0.00    -0.398 OA
ATOM     56  H12 UNL     1      32.414   2.590  34.585  1.00  0.00     0.209 HD
ENDBRANCH  54  55
ENDBRANCH  43  54
ENDBRANCH  35  38
ENDBRANCH   3  31
TORSDOF 18
ENDMDL
MODEL 4
REMARK VINA RESULT: -9.857873073      1.569      2.054
REMARK  18 active torsions:
REMARK  status: ('A' for Active; 'I' for Inactive)
REMARK    1  A    between atoms: C2_2  and  C3_3 
REMARK    2  A    between atoms: C3_3  and  C4_4 
REMARK    3  A    between atoms: C3_3  and  C7_9 
REMARK    4  A    between atoms: C3_3  and  N1_12 
REMARK    5  A    between atoms: C4_4  and  C5_5 
REMARK    6  A    between atoms: C5_5  and  C6_6 
REMARK    7  A    between atoms: N2_15  and  C10_16 
REMARK    8  A    between atoms: C10_16  and  N3_17 
REMARK    9  A    between atoms: C12_19  and  C13_20 
REMARK   10  A    between atoms: C13_20  and  O5_21 
REMARK   11  A    between atoms: O5_21  and  C14_22 
REMARK       I    between atoms: C14_22  and  N4_24 
REMARK   12  A    between atoms: N4_24  and  C15_26 
REMARK   13  A    between atoms: N7_30  and  C16_31 
REMARK   14  A    between atoms: N8_37  and  O9_38 
REMARK   15  A    between atoms: C21_41  and  O10_42 
REMARK   16  A    between atoms: C22_44  and  O11_45 
REMARK   17  A    between atoms: C22_44  and  C23_47 
REMARK   18  A    between atoms: C23_47  and  O12_48 
ROOT
HETATM    1  C14 UNL     1      23.482   5.619  38.090  1.00  0.00     0.379 C 
HETATM    2  O6  UNL     1      24.194   6.516  37.604  1.00  0.00    -0.238 OA
HETATM    3  N4  UNL     1      22.451   5.941  38.998  1.00  0.00    -0.133 N 
ATOM      4  H4  UNL     1      22.515   5.608  39.959  1.00  0.00     0.190 HD
ENDROOT
BRANCH   1   5
HETATM    5  O5  UNL     1      23.688   4.305  37.751  1.00  0.00    -0.297 OA
BRANCH   5   6
HETATM    6  C13 UNL     1      22.891   3.638  36.833  1.00  0.00     0.240 C 
BRANCH   6   7
HETATM    7  C12 UNL     1      23.629   2.897  35.784  1.00  0.00     0.069 A 
HETATM    8  C11 UNL     1      24.985   2.865  35.522  1.00  0.00     0.146 A 
HETATM    9  N3  UNL     1      25.210   2.050  34.479  1.00  0.00    -0.252 N 
HETATM   10  N11 UNL     1      24.018   1.599  34.118  1.00  0.00    -0.236 N 
HETATM   11  N10 UNL     1      23.060   2.088  34.880  1.00  0.00    -0.286 N 
ATOM     12  H11 UNL     1      23.861   0.953  33.345  1.00  0.00     0.209 HD
ATOM     13  H10 UNL     1      22.064   1.887  34.796  1.00  0.00     0.188 HD
BRANCH   9  14
HETATM   14  C10 UNL     1      26.506   1.784  33.940  1.00  0.00     0.180 C 
BRANCH  14  15
HETATM   15  N2  UNL     1      27.573   1.678  34.865  1.00  0.00    -0.250 NA
HETATM   16  C9  UNL     1      27.408   0.766  35.945  1.00  0.00     0.128 C 
HETATM   17  C8  UNL     1      28.101   1.420  37.143  1.00  0.00     0.290 C 
HETATM   18  N1  UNL     1      28.407   2.744  36.741  1.00  0.00     0.123 N 
HETATM   19  C24 UNL     1      28.120   2.905  35.360  1.00  0.00     0.372 C 
BRANCH  18  20
HETATM   20  C3  UNL     1      29.760   3.194  37.057  1.00  0.00     0.247 C 
BRANCH  20  21
HETATM   21  C2  UNL     1      30.547   1.948  37.395  1.00  0.00     0.049 C 
HETATM   22  C1  UNL     1      31.939   1.982  36.813  1.00  0.00     0.008 C 
ENDBRANCH  20  21
BRANCH  20  23
HETATM   23  C4  UNL     1      30.374   3.873  35.877  1.00  0.00     0.064 C 
BRANCH  23  24
HETATM   24  C5  UNL     1      30.552   5.348  36.052  1.00  0.00     0.116 C 
BRANCH  24  25
HETATM   25  C6  UNL     1      31.827   5.754  35.356  1.00  0.00     0.172 C 
HETATM   26  O1  UNL     1      32.840   5.067  35.468  1.00  0.00    -0.648 OA
HETATM   27  O2  UNL     1      31.827   6.903  34.600  1.00  0.00    -0.648 OA
ENDBRANCH  24  25
ENDBRANCH  23  24
ENDBRANCH  20  23
BRANCH  20  28
HETATM   28  C7  UNL     1      29.769   4.087  38.227  1.00  0.00     0.213 C 
HETATM   29  O3  UNL     1      28.676   4.496  38.768  1.00  0.00    -0.646 OA
HETATM   30  O4  UNL     1      30.904   4.572  38.864  1.00  0.00    -0.646 OA
ENDBRANCH  20  28
ENDBRANCH  18  20
ENDBRANCH  14  15
ENDBRANCH   9  14
ENDBRANCH   6   7
ENDBRANCH   5   6
ENDBRANCH   1   5
BRANCH   3  31
HETATM   31  C15 UNL     1      21.430   6.645  38.648  1.00  0.00     0.715 A 
HETATM   32  N5  UNL     1      20.561   7.205  39.510  1.00  0.00    -0.113 N 
HETATM   33  N6  UNL     1      19.651   7.846  38.797  1.00  0.00     0.014 NA
ATOM     34  H5  UNL     1      20.598   7.146  40.528  1.00  0.00     0.203 HD
HETATM   35  N7  UNL     1      19.903   7.717  37.507  1.00  0.00    -0.171 N 
HETATM   36  N9  UNL     1      20.993   6.981  37.408  1.00  0.00    -0.113 N 
ATOM     37  H9  UNL     1      21.440   6.707  36.533  1.00  0.00     0.207 HD
BRANCH  35  38
HETATM   38  C16 UNL     1      19.139   8.272  36.399  1.00  0.00     0.287 C 
HETATM   39  C17 UNL     1      19.955   8.159  35.145  1.00  0.00     0.225 C 
HETATM   40  O7  UNL     1      19.258   8.541  34.026  1.00  0.00    -0.374 OA
HETATM   41  C18 UNL     1      17.908   8.292  34.055  1.00  0.00     0.206 C 
HETATM   42  C19 UNL     1      17.576   7.214  35.082  1.00  0.00     0.255 C 
HETATM   43  C22 UNL     1      17.333   7.836  32.744  1.00  0.00     0.135 C 
HETATM   44  O8  UNL     1      17.936   7.588  36.351  1.00  0.00    -0.337 OA
HETATM   45  N8  UNL     1      18.198   5.969  34.735  1.00  0.00    -0.165 NA
HETATM   46  C20 UNL     1      17.828   5.495  33.426  1.00  0.00     0.158 C 
HETATM   47  C21 UNL     1      17.985   6.539  32.361  1.00  0.00     0.172 C 
BRANCH  45  48
HETATM   48  O9  UNL     1      17.797   5.041  35.637  1.00  0.00    -0.310 OA
ATOM     49  H9  UNL     1      17.627   4.234  35.166  1.00  0.00     0.237 HD
ENDBRANCH  45  48
BRANCH  47  50
HETATM   50  O10 UNL     1      19.338   6.776  32.190  1.00  0.00    -0.391 OA
ATOM     51  H10 UNL     1      19.550   7.590  32.631  1.00  0.00     0.210 HD
ENDBRANCH  47  50
BRANCH  43  52
HETATM   52  O11 UNL     1      15.945   7.672  32.950  1.00  0.00    -0.382 OA
ATOM     53  H11 UNL     1      15.673   8.376  33.528  1.00  0.00     0.210 HD
ENDBRANCH  43  52
BRANCH  43  54
HETATM   54  C23 UNL     1      17.489   8.847  31.642  1.00  0.00     0.207 C 
BRANCH  54  55
HETATM   55  O12 UNL     1      17.478   8.152  30.434  1.00  0.00    -0.398 OA
ATOM     56  H12 UNL     1      16.687   8.399  29.972  1.00  0.00     0.209 HD
ENDBRANCH  54  55
ENDBRANCH  43  54
ENDBRANCH  35  38
ENDBRANCH   3  31
TORSDOF 18
ENDMDL
MODEL 5
REMARK VINA RESULT: -9.778732627      2.268     12.488
REMARK  18 active torsions:
REMARK  status: ('A' for Active; 'I' for Inactive)
REMARK    1  A    between atoms: C2_2  and  C3_3 
REMARK    2  A    between atoms: C3_3  and  C4_4 
REMARK    3  A    between atoms: C3_3  and  C7_9 
REMARK    4  A    between atoms: C3_3  and  N1_12 
REMARK    5  A    between atoms: C4_4  and  C5_5 
REMARK    6  A    between atoms: C5_5  and  C6_6 
REMARK    7  A    between atoms: N2_15  and  C10_16 
REMARK    8  A    between atoms: C10_16  and  N3_17 
REMARK    9  A    between atoms: C12_19  and  C13_20 
REMARK   10  A    between atoms: C13_20  and  O5_21 
REMARK   11  A    between atoms: O5_21  and  C14_22 
REMARK       I    between atoms: C14_22  and  N4_24 
REMARK   12  A    between atoms: N4_24  and  C15_26 
REMARK   13  A    between atoms: N7_30  and  C16_31 
REMARK   14  A    between atoms: N8_37  and  O9_38 
REMARK   15  A    between atoms: C21_41  and  O10_42 
REMARK   16  A    between atoms: C22_44  and  O11_45 
REMARK   17  A    between atoms: C22_44  and  C23_47 
REMARK   18  A    between atoms: C23_47  and  O12_48 
ROOT
HETATM    1  C14 UNL     1      24.506   1.926  35.013  1.00  0.00     0.379 C 
HETATM    2  O6  UNL     1      24.936   1.154  34.137  1.00  0.00    -0.238 OA
HETATM    3  N4  UNL     1      25.091   1.942  36.297  1.00  0.00    -0.133 N 
ATOM      4  H4  UNL     1      24.531   1.653  37.099  1.00  0.00     0.190 HD
ENDROOT
BRANCH   1   5
HETATM    5  O5  UNL     1      23.459   2.770  34.744  1.00  0.00    -0.297 OA
BRANCH   5   6
HETATM    6  C13 UNL     1      22.134   2.388  34.891  1.00  0.00     0.240 C 
BRANCH   6   7
HETATM    7  C12 UNL     1      21.210   3.471  35.299  1.00  0.00     0.069 A 
HETATM    8  C11 UNL     1      21.496   4.716  35.823  1.00  0.00     0.146 A 
HETATM    9  N3  UNL     1      20.345   5.376  36.037  1.00  0.00    -0.252 N 
HETATM   10  N11 UNL     1      19.386   4.548  35.651  1.00  0.00    -0.236 N 
HETATM   11  N10 UNL     1      19.875   3.407  35.207  1.00  0.00    -0.286 N 
ATOM     12  H11 UNL     1      18.391   4.767  35.692  1.00  0.00     0.209 HD
ATOM     13  H10 UNL     1      19.334   2.617  34.856  1.00  0.00     0.188 HD
BRANCH   9  14
HETATM   14  C10 UNL     1      20.271   6.698  36.573  1.00  0.00     0.180 C 
BRANCH  14  15
HETATM   15  N2  UNL     1      19.280   7.552  36.032  1.00  0.00    -0.250 NA
HETATM   16  C9  UNL     1      17.961   7.029  35.922  1.00  0.00     0.128 C 
HETATM   17  C8  UNL     1      17.387   7.630  34.637  1.00  0.00     0.290 C 
HETATM   18  N1  UNL     1      18.475   8.259  33.981  1.00  0.00     0.123 N 
HETATM   19  C24 UNL     1      19.617   8.245  34.825  1.00  0.00     0.372 C 
BRANCH  18  20
HETATM   20  C3  UNL     1      18.205   9.603  33.477  1.00  0.00     0.247 C 
BRANCH  20  21
HETATM   21  C2  UNL     1      19.421  10.433  33.824  1.00  0.00     0.049 C 
HETATM   22  C1  UNL     1      19.262  11.874  33.404  1.00  0.00     0.008 C 
ENDBRANCH  20  21
BRANCH  20  23
HETATM   23  C4  UNL     1      18.019   9.578  31.995  1.00  0.00     0.064 C 
BRANCH  23  24
HETATM   24  C5  UNL     1      18.551   8.343  31.339  1.00  0.00     0.116 C 
BRANCH  24  25
HETATM   25  C6  UNL     1      18.436   8.518  29.845  1.00  0.00     0.172 C 
HETATM   26  O1  UNL     1      17.858   9.497  29.378  1.00  0.00    -0.648 OA
HETATM   27  O2  UNL     1      18.989   7.562  29.026  1.00  0.00    -0.648 OA
ENDBRANCH  24  25
ENDBRANCH  23  24
ENDBRANCH  20  23
BRANCH  20  28
HETATM   28  C7  UNL     1      17.028  10.197  34.133  1.00  0.00     0.213 C 
HETATM   29  O3  UNL     1      15.946  10.436  33.480  1.00  0.00    -0.646 OA
HETATM   30  O4  UNL     1      16.943  10.551  35.473  1.00  0.00    -0.646 OA
ENDBRANCH  20  28
ENDBRANCH  18  20
ENDBRANCH  14  15
ENDBRANCH   9  14
ENDBRANCH   6   7
ENDBRANCH   5   6
ENDBRANCH   1   5
BRANCH   3  31
HETATM   31  C15 UNL     1      26.310   2.311  36.486  1.00  0.00     0.715 A 
HETATM   32  N5  UNL     1      26.676   3.384  37.214  1.00  0.00    -0.113 N 
HETATM   33  N6  UNL     1      27.996   3.451  37.186  1.00  0.00     0.014 NA
ATOM     34  H5  UNL     1      26.049   4.027  37.697  1.00  0.00     0.203 HD
HETATM   35  N7  UNL     1      28.492   2.460  36.467  1.00  0.00    -0.171 N 
HETATM   36  N9  UNL     1      27.463   1.757  36.034  1.00  0.00    -0.113 N 
ATOM     37  H9  UNL     1      27.525   0.924  35.449  1.00  0.00     0.207 HD
BRANCH  35  38
HETATM   38  C16 UNL     1      29.895   2.183  36.196  1.00  0.00     0.287 C 
HETATM   39  C17 UNL     1      30.391   3.160  35.171  1.00  0.00     0.225 C 
HETATM   40  O7  UNL     1      31.741   3.052  34.950  1.00  0.00    -0.374 OA
HETATM   41  C18 UNL     1      32.491   2.677  36.037  1.00  0.00     0.206 C 
HETATM   42  C19 UNL     1      31.740   2.951  37.337  1.00  0.00     0.255 C 
HETATM   43  C22 UNL     1      33.818   3.373  36.146  1.00  0.00     0.135 C 
HETATM   44  O8  UNL     1      30.565   2.249  37.407  1.00  0.00    -0.337 OA
HETATM   45  N8  UNL     1      31.491   4.354  37.497  1.00  0.00    -0.165 NA
HETATM   46  C20 UNL     1      32.693   5.150  37.476  1.00  0.00     0.158 C 
HETATM   47  C21 UNL     1      33.574   4.847  36.302  1.00  0.00     0.172 C 
BRANCH  45  48
HETATM   48  O9  UNL     1      30.900   4.534  38.702  1.00  0.00    -0.310 OA
ATOM     49  H9  UNL     1      29.981   4.724  38.549  1.00  0.00     0.237 HD
ENDBRANCH  45  48
BRANCH  47  50
HETATM   50  O10 UNL     1      32.933   5.295  35.160  1.00  0.00    -0.391 OA
ATOM     51  H10 UNL     1      32.541   6.138  35.355  1.00  0.00     0.210 HD
ENDBRANCH  47  50
BRANCH  43  52
HETATM   52  O11 UNL     1      34.460   2.837  37.285  1.00  0.00    -0.382 OA
ATOM     53  H11 UNL     1      35.317   3.246  37.329  1.00  0.00     0.210 HD
ENDBRANCH  43  52
BRANCH  43  54
HETATM   54  C23 UNL     1      34.724   3.112  34.975  1.00  0.00     0.207 C 
BRANCH  54  55
HETATM   55  O12 UNL     1      35.776   4.024  35.052  1.00  0.00    -0.398 OA
ATOM     56  H12 UNL     1      36.075   4.037  35.953  1.00  0.00     0.209 HD
ENDBRANCH  54  55
ENDBRANCH  43  54
ENDBRANCH  35  38
ENDBRANCH   3  31
TORSDOF 18
ENDMDL
