MODEL 1
REMARK VINA RESULT: -4.754561086      0.000      0.000
REMARK  3 active torsions:
REMARK  status: ('A' for Active; 'I' for Inactive)
REMARK    1  A    between atoms: N1_1  and  C1_4 
REMARK    2  A    between atoms: C2_7  and  C3_8 
REMARK       I    between atoms: C3_8  and  N3_10 
REMARK    3  A    between atoms: N3_10  and  N4_12 
ROOT
HETATM    1  C1  UNL     1      52.220  55.972  67.113  1.00  0.00     0.681 A 
HETATM    2  N2  UNL     1      52.225  57.231  67.588  1.00  0.00    -0.171 N 
ATOM      3  H2  UNL     1      53.067  57.793  67.461  1.00  0.00     0.186 HD
HETATM    4  C2  UNL     1      51.172  57.789  68.222  1.00  0.00     0.195 A 
HETATM    5  N5  UNL     1      50.048  57.051  68.396  1.00  0.00    -0.289 N 
ATOM      6  H5  UNL     1      49.235  57.443  68.873  1.00  0.00     0.172 HD
HETATM    7  C4  UNL     1      50.030  55.791  67.927  1.00  0.00     0.340 A 
HETATM    8  O2  UNL     1      48.989  55.108  68.087  1.00  0.00    -0.246 OA
HETATM    9  N6  UNL     1      51.096  55.255  67.294  1.00  0.00    -0.141 N 
ATOM     10  H6  UNL     1      51.049  54.296  66.950  1.00  0.00     0.189 HD
ENDROOT
BRANCH   4  11
HETATM   11  C3  UNL     1      51.252  59.161  68.708  1.00  0.00     0.304 C 
HETATM   12  O1  UNL     1      52.045  59.962  68.194  1.00  0.00    -0.263 OA
HETATM   13  N3  UNL     1      50.416  59.579  69.772  1.00  0.00    -0.270 N 
ATOM     14  H3  UNL     1      49.772  58.898  70.175  1.00  0.00     0.189 HD
BRANCH  13  15
HETATM   15  N4  UNL     1      50.426  60.866  70.298  1.00  0.00    -0.342 N 
ATOM     16  H42 UNL     1      50.511  60.954  71.311  1.00  0.00     0.176 HD
ATOM     17  H41 UNL     1      50.355  61.710  69.727  1.00  0.00     0.176 HD
ENDBRANCH  13  15
ENDBRANCH   4  11
BRANCH   1  18
HETATM   18  N1  UNL     1      53.251  55.453  66.503  1.00  0.00    -0.234 N 
ATOM     19  H12 UNL     1      54.175  55.475  66.932  1.00  0.00     0.174 HD
ATOM     20  H11 UNL     1      53.176  55.011  65.586  1.00  0.00     0.174 HD
ENDBRANCH   1  18
TORSDOF 3
ENDMDL
MODEL 2
REMARK VINA RESULT: -4.719501106      2.010      4.988
REMARK  3 active torsions:
REMARK  status: ('A' for Active; 'I' for Inactive)
REMARK    1  A    between atoms: N1_1  and  C1_4 
REMARK    2  A    between atoms: C2_7  and  C3_8 
REMARK       I    between atoms: C3_8  and  N3_10 
REMARK    3  A    between atoms: N3_10  and  N4_12 
ROOT
HETATM    1  C1  UNL     1      49.760  56.139  68.340  1.00  0.00     0.681 A 
HETATM    2  N2  UNL     1      50.532  55.272  67.660  1.00  0.00    -0.171 N 
ATOM      3  H2  UNL     1      50.192  54.319  67.532  1.00  0.00     0.186 HD
HETATM    4  C2  UNL     1      51.734  55.599  67.139  1.00  0.00     0.195 A 
HETATM    5  N5  UNL     1      52.197  56.862  67.304  1.00  0.00    -0.289 N 
ATOM      6  H5  UNL     1      53.101  57.141  66.923  1.00  0.00     0.172 HD
HETATM    7  C4  UNL     1      51.434  57.739  67.982  1.00  0.00     0.340 A 
HETATM    8  O2  UNL     1      51.862  58.909  68.134  1.00  0.00    -0.246 OA
HETATM    9  N6  UNL     1      50.235  57.389  68.493  1.00  0.00    -0.141 N 
ATOM     10  H6  UNL     1      49.682  58.079  69.002  1.00  0.00     0.189 HD
ENDROOT
BRANCH   4  11
HETATM   11  C3  UNL     1      52.513  54.603  66.413  1.00  0.00     0.304 C 
HETATM   12  O1  UNL     1      52.173  54.249  65.275  1.00  0.00    -0.263 OA
HETATM   13  N3  UNL     1      53.666  54.040  67.012  1.00  0.00    -0.270 N 
ATOM     14  H3  UNL     1      53.923  54.351  67.949  1.00  0.00     0.189 HD
BRANCH  13  15
HETATM   15  N4  UNL     1      54.466  53.086  66.394  1.00  0.00    -0.342 N 
ATOM     16  H42 UNL     1      55.208  53.427  65.781  1.00  0.00     0.176 HD
ATOM     17  H41 UNL     1      54.348  52.080  66.523  1.00  0.00     0.176 HD
ENDBRANCH  13  15
ENDBRANCH   4  11
BRANCH   1  18
HETATM   18  N1  UNL     1      48.601  55.800  68.835  1.00  0.00    -0.234 N 
ATOM     19  H12 UNL     1      48.163  54.917  68.577  1.00  0.00     0.174 HD
ATOM     20  H11 UNL     1      48.093  56.395  69.490  1.00  0.00     0.174 HD
ENDBRANCH   1  18
TORSDOF 3
ENDMDL
MODEL 3
REMARK VINA RESULT: -4.705656927      2.094      5.003
REMARK  3 active torsions:
REMARK  status: ('A' for Active; 'I' for Inactive)
REMARK    1  A    between atoms: N1_1  and  C1_4 
REMARK    2  A    between atoms: C2_7  and  C3_8 
REMARK       I    between atoms: C3_8  and  N3_10 
REMARK    3  A    between atoms: N3_10  and  N4_12 
ROOT
HETATM    1  C1  UNL     1      49.829  56.147  68.342  1.00  0.00     0.681 A 
HETATM    2  N2  UNL     1      50.663  55.306  67.702  1.00  0.00    -0.171 N 
ATOM      3  H2  UNL     1      50.372  54.336  67.580  1.00  0.00     0.186 HD
HETATM    4  C2  UNL     1      51.864  55.682  67.213  1.00  0.00     0.195 A 
HETATM    5  N5  UNL     1      52.261  56.969  67.370  1.00  0.00    -0.289 N 
ATOM      6  H5  UNL     1      53.163  57.284  67.012  1.00  0.00     0.172 HD
HETATM    7  C4  UNL     1      51.437  57.819  68.008  1.00  0.00     0.340 A 
HETATM    8  O2  UNL     1      51.803  59.011  68.153  1.00  0.00    -0.246 OA
HETATM    9  N6  UNL     1      50.239  57.420  68.489  1.00  0.00    -0.141 N 
ATOM     10  H6  UNL     1      49.639  58.091  68.967  1.00  0.00     0.189 HD
ENDROOT
BRANCH   4  11
HETATM   11  C3  UNL     1      52.712  54.714  66.529  1.00  0.00     0.304 C 
HETATM   12  O1  UNL     1      53.598  54.108  67.149  1.00  0.00    -0.263 OA
HETATM   13  N3  UNL     1      52.520  54.463  65.148  1.00  0.00    -0.270 N 
ATOM     14  H3  UNL     1      51.782  54.974  64.663  1.00  0.00     0.189 HD
BRANCH  13  15
HETATM   15  N4  UNL     1      53.282  53.557  64.418  1.00  0.00    -0.342 N 
ATOM     16  H42 UNL     1      54.003  53.943  63.807  1.00  0.00     0.176 HD
ATOM     17  H41 UNL     1      53.155  52.546  64.465  1.00  0.00     0.176 HD
ENDBRANCH  13  15
ENDBRANCH   4  11
BRANCH   1  18
HETATM   18  N1  UNL     1      48.673  55.761  68.808  1.00  0.00    -0.234 N 
ATOM     19  H12 UNL     1      47.975  56.445  69.100  1.00  0.00     0.174 HD
ATOM     20  H11 UNL     1      48.422  54.777  68.898  1.00  0.00     0.174 HD
ENDBRANCH   1  18
TORSDOF 3
ENDMDL
MODEL 4
REMARK VINA RESULT: -4.585160927      1.475      2.306
REMARK  3 active torsions:
REMARK  status: ('A' for Active; 'I' for Inactive)
REMARK    1  A    between atoms: N1_1  and  C1_4 
REMARK    2  A    between atoms: C2_7  and  C3_8 
REMARK       I    between atoms: C3_8  and  N3_10 
REMARK    3  A    between atoms: N3_10  and  N4_12 
ROOT
HETATM    1  C1  UNL     1      50.123  55.862  68.174  1.00  0.00     0.681 A 
HETATM    2  N2  UNL     1      50.217  57.155  68.538  1.00  0.00    -0.171 N 
ATOM      3  H2  UNL     1      49.443  57.568  69.059  1.00  0.00     0.186 HD
HETATM    4  C2  UNL     1      51.282  57.931  68.248  1.00  0.00     0.195 A 
HETATM    5  N5  UNL     1      52.315  57.393  67.555  1.00  0.00    -0.289 N 
ATOM      6  H5  UNL     1      53.134  57.954  67.320  1.00  0.00     0.172 HD
HETATM    7  C4  UNL     1      52.234  56.102  67.186  1.00  0.00     0.340 A 
HETATM    8  O2  UNL     1      53.191  55.603  66.545  1.00  0.00    -0.246 OA
HETATM    9  N6  UNL     1      51.158  55.344  67.488  1.00  0.00    -0.141 N 
ATOM     10  H6  UNL     1      51.129  54.368  67.193  1.00  0.00     0.189 HD
ENDROOT
BRANCH   4  11
HETATM   11  C3  UNL     1      51.311  59.324  68.677  1.00  0.00     0.304 C 
HETATM   12  O1  UNL     1      52.131  60.114  68.187  1.00  0.00    -0.263 OA
HETATM   13  N3  UNL     1      50.396  59.776  69.658  1.00  0.00    -0.270 N 
ATOM     14  H3  UNL     1      49.731  59.105  70.044  1.00  0.00     0.189 HD
BRANCH  13  15
HETATM   15  N4  UNL     1      50.353  61.085  70.126  1.00  0.00    -0.342 N 
ATOM     16  H42 UNL     1      50.242  61.824  69.431  1.00  0.00     0.176 HD
ATOM     17  H41 UNL     1      50.426  61.335  71.113  1.00  0.00     0.176 HD
ENDBRANCH  13  15
ENDBRANCH   4  11
BRANCH   1  18
HETATM   18  N1  UNL     1      49.083  55.130  68.465  1.00  0.00    -0.234 N 
ATOM     19  H12 UNL     1      48.215  55.561  68.784  1.00  0.00     0.174 HD
ATOM     20  H11 UNL     1      49.093  54.113  68.387  1.00  0.00     0.174 HD
ENDBRANCH   1  18
TORSDOF 3
ENDMDL
MODEL 5
REMARK VINA RESULT: -4.548285823      2.112      4.635
REMARK  3 active torsions:
REMARK  status: ('A' for Active; 'I' for Inactive)
REMARK    1  A    between atoms: N1_1  and  C1_4 
REMARK    2  A    between atoms: C2_7  and  C3_8 
REMARK       I    between atoms: C3_8  and  N3_10 
REMARK    3  A    between atoms: N3_10  and  N4_12 
ROOT
HETATM    1  C1  UNL     1      51.201  57.571  68.138  1.00  0.00     0.681 A 
HETATM    2  N2  UNL     1      52.100  56.774  67.532  1.00  0.00    -0.171 N 
ATOM      3  H2  UNL     1      53.050  57.124  67.408  1.00  0.00     0.186 HD
HETATM    4  C2  UNL     1      51.809  55.535  67.081  1.00  0.00     0.195 A 
HETATM    5  N5  UNL     1      50.549  55.061  67.240  1.00  0.00    -0.289 N 
ATOM      6  H5  UNL     1      50.296  54.129  66.909  1.00  0.00     0.172 HD
HETATM    7  C4  UNL     1      49.641  55.847  67.844  1.00  0.00     0.340 A 
HETATM    8  O2  UNL     1      48.474  55.408  67.993  1.00  0.00    -0.246 OA
HETATM    9  N6  UNL     1      49.955  57.083  68.289  1.00  0.00    -0.141 N 
ATOM     10  H6  UNL     1      49.242  57.653  68.743  1.00  0.00     0.189 HD
ENDROOT
BRANCH   4  11
HETATM   11  C3  UNL     1      52.837  54.730  66.435  1.00  0.00     0.304 C 
HETATM   12  O1  UNL     1      53.892  54.466  67.030  1.00  0.00    -0.263 OA
HETATM   13  N3  UNL     1      52.629  54.247  65.120  1.00  0.00    -0.270 N 
ATOM     14  H3  UNL     1      51.751  54.480  64.655  1.00  0.00     0.189 HD
BRANCH  13  15
HETATM   15  N4  UNL     1      53.555  53.474  64.428  1.00  0.00    -0.342 N 
ATOM     16  H42 UNL     1      53.518  52.465  64.571  1.00  0.00     0.176 HD
ATOM     17  H41 UNL     1      54.256  53.864  63.796  1.00  0.00     0.176 HD
ENDBRANCH  13  15
ENDBRANCH   4  11
BRANCH   1  18
HETATM   18  N1  UNL     1      51.505  58.766  68.567  1.00  0.00    -0.234 N 
ATOM     19  H12 UNL     1      51.392  59.580  67.963  1.00  0.00     0.174 HD
ATOM     20  H11 UNL     1      51.862  58.933  69.507  1.00  0.00     0.174 HD
ENDBRANCH   1  18
TORSDOF 3
ENDMDL
