MODEL 1
REMARK VINA RESULT: -5.559624992      0.000      0.000
REMARK  14 active torsions:
REMARK  status: ('A' for Active; 'I' for Inactive)
REMARK    1  A    between atoms: N1_1  and  C1_5 
REMARK    2  A    between atoms: C1_5  and  C2_6 
REMARK    3  A    between atoms: C2_6  and  N2_7 
REMARK    4  A    between atoms: N2_7  and  C3_9 
REMARK    5  A    between atoms: C4_12  and  N4_13 
REMARK    6  A    between atoms: N4_13  and  C5_15 
REMARK    7  A    between atoms: C5_15  and  C6_16 
REMARK    8  A    between atoms: C5_15  and  C7_18 
REMARK       I    between atoms: C7_18  and  N5_20 
REMARK    9  A    between atoms: N5_20  and  C8_22 
REMARK   10  A    between atoms: C9_31  and  C10_32 
REMARK   11  A    between atoms: C10_32  and  N10_33 
REMARK   12  A    between atoms: C10_32  and  C11_37 
REMARK   13  A    between atoms: C11_37  and  N11_38 
REMARK   14  A    between atoms: C11_37  and  O3_42 
ROOT
HETATM    1  C3  UNL     1      38.880  33.456  26.093  1.00  0.00     0.149 A 
HETATM    2  N3  UNL     1      37.534  33.241  26.152  1.00  0.00    -0.322 N 
ATOM      3  H3  UNL     1      37.244  32.290  26.379  1.00  0.00     0.169 HD
HETATM    4  C4  UNL     1      36.572  34.102  25.955  1.00  0.00     0.113 A 
HETATM    5  C9  UNL     1      36.725  35.464  25.633  1.00  0.00     0.027 A 
HETATM    6  C12 UNL     1      37.953  36.067  25.484  1.00  0.00     0.066 A 
HETATM    7  S1  UNL     1      39.298  35.052  25.715  1.00  0.00    -0.065 SA
ENDROOT
BRANCH   4   8
HETATM    8  N4  UNL     1      35.326  33.714  26.084  1.00  0.00    -0.357 N 
ATOM      9  H4  UNL     1      34.638  34.022  25.398  1.00  0.00     0.162 HD
BRANCH   8  10
HETATM   10  C5  UNL     1      34.906  32.871  27.159  1.00  0.00     0.238 C 
BRANCH  10  11
HETATM   11  C6  UNL     1      33.432  33.082  27.444  1.00  0.00     0.266 C 
HETATM   12  O1  UNL     1      32.599  32.277  27.068  1.00  0.00    -0.304 OA
ENDBRANCH  10  11
BRANCH  10  13
HETATM   13  C7  UNL     1      35.076  31.424  26.764  1.00  0.00     0.265 C 
HETATM   14  O2  UNL     1      35.307  31.116  25.595  1.00  0.00    -0.270 OA
HETATM   15  N5  UNL     1      34.951  30.459  27.828  1.00  0.00    -0.155 N 
ATOM     16  H5  UNL     1      34.055  30.009  28.012  1.00  0.00     0.187 HD
BRANCH  15  17
HETATM   17  C8  UNL     1      35.992  30.170  28.550  1.00  0.00     0.716 A 
HETATM   18  N6  UNL     1      37.268  30.352  28.177  1.00  0.00    -0.115 N 
HETATM   19  N7  UNL     1      38.023  29.938  29.176  1.00  0.00    -0.213 N 
ATOM     20  H6  UNL     1      37.592  30.738  27.289  1.00  0.00     0.207 HD
HETATM   21  N8  UNL     1      37.237  29.511  30.143  1.00  0.00    -0.213 N 
ATOM     22  H7  UNL     1      39.042  29.947  29.197  1.00  0.00     0.210 HD
HETATM   23  N9  UNL     1      35.975  29.643  29.780  1.00  0.00    -0.115 N 
ATOM     24  H8  UNL     1      37.556  29.137  31.036  1.00  0.00     0.210 HD
ATOM     25  H9  UNL     1      35.152  29.393  30.329  1.00  0.00     0.207 HD
ENDBRANCH  15  17
ENDBRANCH  10  13
ENDBRANCH   8  10
ENDBRANCH   4   8
BRANCH   5  26
HETATM   26  C10 UNL     1      35.479  36.261  25.441  1.00  0.00     0.276 C 
BRANCH  26  27
HETATM   27  N10 UNL     1      35.558  37.187  24.334  1.00  0.00    -0.067 N 
ATOM     28 3H10 UNL     1      34.768  37.834  24.344  1.00  0.00     0.275 HD
ATOM     29 2H10 UNL     1      36.320  37.851  24.469  1.00  0.00     0.275 HD
ATOM     30 1H10 UNL     1      35.636  36.726  23.428  1.00  0.00     0.275 HD
ENDBRANCH  26  27
BRANCH  26  31
HETATM   31  C11 UNL     1      34.984  36.916  26.693  1.00  0.00     0.351 C 
BRANCH  31  32
HETATM   32  N11 UNL     1      33.527  36.764  26.798  1.00  0.00    -0.051 N 
ATOM     33 3H11 UNL     1      33.242  35.785  26.779  1.00  0.00     0.277 HD
ATOM     34 2H11 UNL     1      33.183  37.002  27.727  1.00  0.00     0.277 HD
ATOM     35 1H11 UNL     1      33.066  37.308  26.069  1.00  0.00     0.277 HD
ENDBRANCH  31  32
BRANCH  31  36
HETATM   36  O3  UNL     1      35.360  38.234  26.845  1.00  0.00    -0.368 OA
ATOM     37  H3  UNL     1      35.176  38.606  27.699  1.00  0.00     0.212 HD
ENDBRANCH  31  36
ENDBRANCH  26  31
ENDBRANCH   5  26
BRANCH   1  38
HETATM   38  N2  UNL     1      39.708  32.529  26.306  1.00  0.00    -0.348 N 
ATOM     39  H2  UNL     1      40.428  32.767  26.988  1.00  0.00     0.167 HD
BRANCH  38  40
HETATM   40  C2  UNL     1      39.827  31.234  25.785  1.00  0.00     0.090 C 
BRANCH  40  41
HETATM   41  C1  UNL     1      39.378  30.989  24.381  1.00  0.00     0.274 C 
BRANCH  41  42
HETATM   42  N1  UNL     1      38.094  30.252  24.470  1.00  0.00    -0.075 N 
ATOM     43  H13 UNL     1      38.105  29.360  23.974  1.00  0.00     0.274 HD
ATOM     44  H12 UNL     1      37.906  29.878  25.400  1.00  0.00     0.274 HD
ATOM     45  H11 UNL     1      37.369  30.888  24.137  1.00  0.00     0.274 HD
ENDBRANCH  41  42
ENDBRANCH  40  41
ENDBRANCH  38  40
ENDBRANCH   1  38
TORSDOF 14
ENDMDL
MODEL 2
REMARK VINA RESULT: -5.450487686      1.030      1.625
REMARK  14 active torsions:
REMARK  status: ('A' for Active; 'I' for Inactive)
REMARK    1  A    between atoms: N1_1  and  C1_5 
REMARK    2  A    between atoms: C1_5  and  C2_6 
REMARK    3  A    between atoms: C2_6  and  N2_7 
REMARK    4  A    between atoms: N2_7  and  C3_9 
REMARK    5  A    between atoms: C4_12  and  N4_13 
REMARK    6  A    between atoms: N4_13  and  C5_15 
REMARK    7  A    between atoms: C5_15  and  C6_16 
REMARK    8  A    between atoms: C5_15  and  C7_18 
REMARK       I    between atoms: C7_18  and  N5_20 
REMARK    9  A    between atoms: N5_20  and  C8_22 
REMARK   10  A    between atoms: C9_31  and  C10_32 
REMARK   11  A    between atoms: C10_32  and  N10_33 
REMARK   12  A    between atoms: C10_32  and  C11_37 
REMARK   13  A    between atoms: C11_37  and  N11_38 
REMARK   14  A    between atoms: C11_37  and  O3_42 
ROOT
HETATM    1  C3  UNL     1      38.967  33.547  26.174  1.00  0.00     0.149 A 
HETATM    2  N3  UNL     1      37.628  33.281  26.187  1.00  0.00    -0.322 N 
ATOM      3  H3  UNL     1      37.367  32.315  26.388  1.00  0.00     0.169 HD
HETATM    4  C4  UNL     1      36.641  34.108  25.975  1.00  0.00     0.113 A 
HETATM    5  C9  UNL     1      36.752  35.481  25.682  1.00  0.00     0.027 A 
HETATM    6  C12 UNL     1      37.960  36.132  25.582  1.00  0.00     0.066 A 
HETATM    7  S1  UNL     1      39.335  35.163  25.837  1.00  0.00    -0.065 SA
ENDROOT
BRANCH   4   8
HETATM    8  N4  UNL     1      35.407  33.672  26.059  1.00  0.00    -0.357 N 
ATOM      9  H4  UNL     1      34.739  33.931  25.334  1.00  0.00     0.162 HD
BRANCH   8  10
HETATM   10  C5  UNL     1      34.972  32.842  27.139  1.00  0.00     0.238 C 
BRANCH  10  11
HETATM   11  C6  UNL     1      33.496  33.062  27.405  1.00  0.00     0.266 C 
HETATM   12  O1  UNL     1      32.666  32.246  27.048  1.00  0.00    -0.304 OA
ENDBRANCH  10  11
BRANCH  10  13
HETATM   13  C7  UNL     1      35.140  31.390  26.761  1.00  0.00     0.265 C 
HETATM   14  O2  UNL     1      35.384  31.069  25.598  1.00  0.00    -0.270 OA
HETATM   15  N5  UNL     1      34.997  30.438  27.833  1.00  0.00    -0.155 N 
ATOM     16  H5  UNL     1      34.096  29.993  28.010  1.00  0.00     0.187 HD
BRANCH  15  17
HETATM   17  C8  UNL     1      36.027  30.150  28.571  1.00  0.00     0.716 A 
HETATM   18  N6  UNL     1      37.308  30.327  28.214  1.00  0.00    -0.115 N 
HETATM   19  N7  UNL     1      38.049  29.918  29.226  1.00  0.00    -0.213 N 
ATOM     20  H6  UNL     1      37.645  30.704  27.328  1.00  0.00     0.207 HD
HETATM   21  N8  UNL     1      37.249  29.501  30.185  1.00  0.00    -0.213 N 
ATOM     22  H7  UNL     1      39.068  29.924  29.260  1.00  0.00     0.210 HD
HETATM   23  N9  UNL     1      35.993  29.633  29.805  1.00  0.00    -0.115 N 
ATOM     24  H8  UNL     1      37.555  29.131  31.085  1.00  0.00     0.210 HD
ATOM     25  H9  UNL     1      35.161  29.389  30.344  1.00  0.00     0.207 HD
ENDBRANCH  15  17
ENDBRANCH  10  13
ENDBRANCH   8  10
ENDBRANCH   4   8
BRANCH   5  26
HETATM   26  C10 UNL     1      35.483  36.234  25.466  1.00  0.00     0.276 C 
BRANCH  26  27
HETATM   27  N10 UNL     1      35.541  37.141  24.340  1.00  0.00    -0.067 N 
ATOM     28 3H10 UNL     1      36.503  37.421  24.149  1.00  0.00     0.275 HD
ATOM     29 2H10 UNL     1      35.332  36.652  23.470  1.00  0.00     0.275 HD
ATOM     30 1H10 UNL     1      34.941  37.958  24.450  1.00  0.00     0.275 HD
ENDBRANCH  26  27
BRANCH  26  31
HETATM   31  C11 UNL     1      34.959  36.899  26.701  1.00  0.00     0.351 C 
BRANCH  31  32
HETATM   32  N11 UNL     1      33.499  36.751  26.769  1.00  0.00    -0.051 N 
ATOM     33 3H11 UNL     1      33.069  37.465  27.358  1.00  0.00     0.277 HD
ATOM     34 2H11 UNL     1      33.048  36.994  25.888  1.00  0.00     0.277 HD
ATOM     35 1H11 UNL     1      33.257  35.809  27.074  1.00  0.00     0.277 HD
ENDBRANCH  31  32
BRANCH  31  36
HETATM   36  O3  UNL     1      35.335  38.216  26.854  1.00  0.00    -0.368 OA
ATOM     37  H3  UNL     1      34.643  38.797  27.146  1.00  0.00     0.212 HD
ENDBRANCH  31  36
ENDBRANCH  26  31
ENDBRANCH   5  26
BRANCH   1  38
HETATM   38  N2  UNL     1      39.822  32.647  26.396  1.00  0.00    -0.348 N 
ATOM     39  H2  UNL     1      40.169  32.189  25.554  1.00  0.00     0.167 HD
BRANCH  38  40
HETATM   40  C2  UNL     1      40.386  32.156  27.580  1.00  0.00     0.090 C 
BRANCH  40  41
HETATM   41  C1  UNL     1      41.454  32.962  28.246  1.00  0.00     0.274 C 
BRANCH  41  42
HETATM   42  N1  UNL     1      40.877  33.463  29.517  1.00  0.00    -0.075 N 
ATOM     43  H13 UNL     1      40.982  32.809  30.294  1.00  0.00     0.274 HD
ATOM     44  H12 UNL     1      41.408  34.233  29.926  1.00  0.00     0.274 HD
ATOM     45  H11 UNL     1      39.905  33.703  29.321  1.00  0.00     0.274 HD
ENDBRANCH  41  42
ENDBRANCH  40  41
ENDBRANCH  38  40
ENDBRANCH   1  38
TORSDOF 14
ENDMDL
MODEL 3
REMARK VINA RESULT: -5.416824507      1.806      4.284
REMARK  14 active torsions:
REMARK  status: ('A' for Active; 'I' for Inactive)
REMARK    1  A    between atoms: N1_1  and  C1_5 
REMARK    2  A    between atoms: C1_5  and  C2_6 
REMARK    3  A    between atoms: C2_6  and  N2_7 
REMARK    4  A    between atoms: N2_7  and  C3_9 
REMARK    5  A    between atoms: C4_12  and  N4_13 
REMARK    6  A    between atoms: N4_13  and  C5_15 
REMARK    7  A    between atoms: C5_15  and  C6_16 
REMARK    8  A    between atoms: C5_15  and  C7_18 
REMARK       I    between atoms: C7_18  and  N5_20 
REMARK    9  A    between atoms: N5_20  and  C8_22 
REMARK   10  A    between atoms: C9_31  and  C10_32 
REMARK   11  A    between atoms: C10_32  and  N10_33 
REMARK   12  A    between atoms: C10_32  and  C11_37 
REMARK   13  A    between atoms: C11_37  and  N11_38 
REMARK   14  A    between atoms: C11_37  and  O3_42 
ROOT
HETATM    1  C3  UNL     1      36.181  35.984  25.261  1.00  0.00     0.149 A 
HETATM    2  N3  UNL     1      35.617  34.772  25.536  1.00  0.00    -0.322 N 
ATOM      3  H3  UNL     1      34.602  34.722  25.450  1.00  0.00     0.169 HD
HETATM    4  C4  UNL     1      36.216  33.669  25.895  1.00  0.00     0.113 A 
HETATM    5  C9  UNL     1      37.601  33.493  26.078  1.00  0.00     0.027 A 
HETATM    6  C12 UNL     1      38.517  34.502  25.892  1.00  0.00     0.066 A 
HETATM    7  S1  UNL     1      37.865  36.001  25.419  1.00  0.00    -0.065 SA
ENDROOT
BRANCH   4   8
HETATM    8  N4  UNL     1      35.503  32.585  26.091  1.00  0.00    -0.357 N 
ATOM      9  H4  UNL     1      35.240  32.013  25.289  1.00  0.00     0.162 HD
BRANCH   8  10
HETATM   10  C5  UNL     1      35.085  32.183  27.397  1.00  0.00     0.238 C 
BRANCH  10  11
HETATM   11  C6  UNL     1      33.690  32.703  27.683  1.00  0.00     0.266 C 
HETATM   12  O1  UNL     1      32.729  32.302  27.050  1.00  0.00    -0.304 OA
ENDBRANCH  10  11
BRANCH  10  13
HETATM   13  C7  UNL     1      35.016  30.676  27.466  1.00  0.00     0.265 C 
HETATM   14  O2  UNL     1      34.971  30.004  26.436  1.00  0.00    -0.270 OA
HETATM   15  N5  UNL     1      35.008  30.103  28.788  1.00  0.00    -0.155 N 
ATOM     16  H5  UNL     1      34.125  29.881  29.247  1.00  0.00     0.187 HD
BRANCH  15  17
HETATM   17  C8  UNL     1      36.136  29.873  29.390  1.00  0.00     0.716 A 
HETATM   18  N6  UNL     1      37.323  29.728  28.779  1.00  0.00    -0.115 N 
HETATM   19  N7  UNL     1      38.216  29.508  29.725  1.00  0.00    -0.213 N 
ATOM     20  H6  UNL     1      37.499  29.778  27.776  1.00  0.00     0.207 HD
HETATM   21  N8  UNL     1      37.601  29.517  30.889  1.00  0.00    -0.213 N 
ATOM     22  H7  UNL     1      39.213  29.356  29.579  1.00  0.00     0.210 HD
HETATM   23  N9  UNL     1      36.313  29.740  30.709  1.00  0.00    -0.115 N 
ATOM     24  H8  UNL     1      38.052  29.373  31.792  1.00  0.00     0.210 HD
ATOM     25  H9  UNL     1      35.596  29.798  31.433  1.00  0.00     0.207 HD
ENDBRANCH  15  17
ENDBRANCH  10  13
ENDBRANCH   8  10
ENDBRANCH   4   8
BRANCH   5  26
HETATM   26  C10 UNL     1      38.064  32.140  26.504  1.00  0.00     0.276 C 
BRANCH  26  27
HETATM   27  N10 UNL     1      39.141  32.182  27.467  1.00  0.00    -0.067 N 
ATOM     28 3H10 UNL     1      39.977  32.600  27.059  1.00  0.00     0.275 HD
ATOM     29 2H10 UNL     1      38.949  32.868  28.197  1.00  0.00     0.275 HD
ATOM     30 1H10 UNL     1      39.353  31.271  27.874  1.00  0.00     0.275 HD
ENDBRANCH  26  27
BRANCH  26  31
HETATM   31  C11 UNL     1      38.361  31.218  25.362  1.00  0.00     0.351 C 
BRANCH  31  32
HETATM   32  N11 UNL     1      39.449  31.768  24.542  1.00  0.00    -0.051 N 
ATOM     33 3H11 UNL     1      39.357  32.775  24.410  1.00  0.00     0.277 HD
ATOM     34 2H11 UNL     1      40.340  31.763  25.037  1.00  0.00     0.277 HD
ATOM     35 1H11 UNL     1      39.502  31.269  23.654  1.00  0.00     0.277 HD
ENDBRANCH  31  32
BRANCH  31  36
HETATM   36  O3  UNL     1      37.269  30.887  24.586  1.00  0.00    -0.368 OA
ATOM     37  H3  UNL     1      36.438  30.892  25.045  1.00  0.00     0.212 HD
ENDBRANCH  31  36
ENDBRANCH  26  31
ENDBRANCH   5  26
BRANCH   1  38
HETATM   38  N2  UNL     1      35.481  36.977  24.922  1.00  0.00    -0.348 N 
ATOM     39  H2  UNL     1      34.965  37.400  25.693  1.00  0.00     0.167 HD
BRANCH  38  40
HETATM   40  C2  UNL     1      35.277  37.609  23.689  1.00  0.00     0.090 C 
BRANCH  40  41
HETATM   41  C1  UNL     1      36.084  37.154  22.516  1.00  0.00     0.274 C 
BRANCH  41  42
HETATM   42  N1  UNL     1      35.261  36.149  21.800  1.00  0.00    -0.075 N 
ATOM     43  H13 UNL     1      34.461  36.554  21.314  1.00  0.00     0.274 HD
ATOM     44  H12 UNL     1      35.725  35.758  20.979  1.00  0.00     0.274 HD
ATOM     45  H11 UNL     1      34.999  35.443  22.489  1.00  0.00     0.274 HD
ENDBRANCH  41  42
ENDBRANCH  40  41
ENDBRANCH  38  40
ENDBRANCH   1  38
TORSDOF 14
ENDMDL
MODEL 4
REMARK VINA RESULT: -5.171252569      1.792      4.663
REMARK  14 active torsions:
REMARK  status: ('A' for Active; 'I' for Inactive)
REMARK    1  A    between atoms: N1_1  and  C1_5 
REMARK    2  A    between atoms: C1_5  and  C2_6 
REMARK    3  A    between atoms: C2_6  and  N2_7 
REMARK    4  A    between atoms: N2_7  and  C3_9 
REMARK    5  A    between atoms: C4_12  and  N4_13 
REMARK    6  A    between atoms: N4_13  and  C5_15 
REMARK    7  A    between atoms: C5_15  and  C6_16 
REMARK    8  A    between atoms: C5_15  and  C7_18 
REMARK       I    between atoms: C7_18  and  N5_20 
REMARK    9  A    between atoms: N5_20  and  C8_22 
REMARK   10  A    between atoms: C9_31  and  C10_32 
REMARK   11  A    between atoms: C10_32  and  N10_33 
REMARK   12  A    between atoms: C10_32  and  C11_37 
REMARK   13  A    between atoms: C11_37  and  N11_38 
REMARK   14  A    between atoms: C11_37  and  O3_42 
ROOT
HETATM    1  C3  UNL     1      35.826  35.845  25.861  1.00  0.00     0.149 A 
HETATM    2  N3  UNL     1      35.361  34.581  26.083  1.00  0.00    -0.322 N 
ATOM      3  H3  UNL     1      34.360  34.498  26.255  1.00  0.00     0.169 HD
HETATM    4  C4  UNL     1      36.040  33.466  26.100  1.00  0.00     0.113 A 
HETATM    5  C9  UNL     1      37.426  33.329  25.889  1.00  0.00     0.027 A 
HETATM    6  C12 UNL     1      38.254  34.396  25.630  1.00  0.00     0.066 A 
HETATM    7  S1  UNL     1      37.493  35.917  25.580  1.00  0.00    -0.065 SA
ENDROOT
BRANCH   4   8
HETATM    8  N4  UNL     1      35.410  32.334  26.304  1.00  0.00    -0.357 N 
ATOM      9  H4  UNL     1      35.175  31.747  25.504  1.00  0.00     0.162 HD
BRANCH   8  10
HETATM   10  C5  UNL     1      35.044  31.900  27.615  1.00  0.00     0.238 C 
BRANCH  10  11
HETATM   11  C6  UNL     1      33.595  32.249  27.896  1.00  0.00     0.266 C 
HETATM   12  O1  UNL     1      32.752  32.183  27.020  1.00  0.00    -0.304 OA
ENDBRANCH  10  11
BRANCH  10  13
HETATM   13  C7  UNL     1      35.159  30.397  27.702  1.00  0.00     0.265 C 
HETATM   14  O2  UNL     1      35.031  29.700  26.697  1.00  0.00    -0.270 OA
HETATM   15  N5  UNL     1      35.421  29.858  29.013  1.00  0.00    -0.155 N 
ATOM     16  H5  UNL     1      34.651  29.549  29.606  1.00  0.00     0.187 HD
BRANCH  15  17
HETATM   17  C8  UNL     1      36.648  29.770  29.431  1.00  0.00     0.716 A 
HETATM   18  N6  UNL     1      37.739  29.911  28.663  1.00  0.00    -0.115 N 
HETATM   19  N7  UNL     1      38.786  29.752  29.450  1.00  0.00    -0.213 N 
ATOM     20  H6  UNL     1      37.756  30.105  27.661  1.00  0.00     0.207 HD
HETATM   21  N8  UNL     1      38.356  29.518  30.673  1.00  0.00    -0.213 N 
ATOM     22  H7  UNL     1      39.763  29.801  29.161  1.00  0.00     0.210 HD
HETATM   23  N9  UNL     1      37.037  29.523  30.688  1.00  0.00    -0.115 N 
ATOM     24  H8  UNL     1      38.952  29.359  31.484  1.00  0.00     0.210 HD
ATOM     25  H9  UNL     1      36.434  29.369  31.497  1.00  0.00     0.207 HD
ENDBRANCH  15  17
ENDBRANCH  10  13
ENDBRANCH   8  10
ENDBRANCH   4   8
BRANCH   5  26
HETATM   26  C10 UNL     1      37.991  31.951  25.967  1.00  0.00     0.276 C 
BRANCH  26  27
HETATM   27  N10 UNL     1      39.382  31.926  26.362  1.00  0.00    -0.067 N 
ATOM     28 3H10 UNL     1      39.854  31.106  25.980  1.00  0.00     0.275 HD
ATOM     29 2H10 UNL     1      39.908  32.659  25.887  1.00  0.00     0.275 HD
ATOM     30 1H10 UNL     1      39.515  31.982  27.372  1.00  0.00     0.275 HD
ENDBRANCH  26  27
BRANCH  26  31
HETATM   31  C11 UNL     1      37.735  31.125  24.745  1.00  0.00     0.351 C 
BRANCH  31  32
HETATM   32  N11 UNL     1      37.808  29.697  25.080  1.00  0.00    -0.051 N 
ATOM     33 3H11 UNL     1      38.307  29.534  25.954  1.00  0.00     0.277 HD
ATOM     34 2H11 UNL     1      36.900  29.322  25.355  1.00  0.00     0.277 HD
ATOM     35 1H11 UNL     1      38.217  29.177  24.304  1.00  0.00     0.277 HD
ENDBRANCH  31  32
BRANCH  31  36
HETATM   36  O3  UNL     1      38.538  31.426  23.664  1.00  0.00    -0.368 OA
ATOM     37  H3  UNL     1      38.877  30.671  23.198  1.00  0.00     0.212 HD
ENDBRANCH  31  36
ENDBRANCH  26  31
ENDBRANCH   5  26
BRANCH   1  38
HETATM   38  N2  UNL     1      35.056  36.844  25.872  1.00  0.00    -0.348 N 
ATOM     39  H2  UNL     1      34.658  37.068  24.960  1.00  0.00     0.167 HD
BRANCH  38  40
HETATM   40  C2  UNL     1      34.644  37.704  26.897  1.00  0.00     0.090 C 
BRANCH  40  41
HETATM   41  C1  UNL     1      35.691  38.407  27.700  1.00  0.00     0.274 C 
BRANCH  41  42
HETATM   42  N1  UNL     1      36.377  39.343  26.775  1.00  0.00    -0.075 N 
ATOM     43  H13 UNL     1      35.864  39.501  25.907  1.00  0.00     0.274 HD
ATOM     44  H12 UNL     1      36.374  40.309  27.103  1.00  0.00     0.274 HD
ATOM     45  H11 UNL     1      37.315  38.970  26.626  1.00  0.00     0.274 HD
ENDBRANCH  41  42
ENDBRANCH  40  41
ENDBRANCH  38  40
ENDBRANCH   1  38
TORSDOF 14
ENDMDL
MODEL 5
REMARK VINA RESULT: -4.787503311      2.918      7.100
REMARK  14 active torsions:
REMARK  status: ('A' for Active; 'I' for Inactive)
REMARK    1  A    between atoms: N1_1  and  C1_5 
REMARK    2  A    between atoms: C1_5  and  C2_6 
REMARK    3  A    between atoms: C2_6  and  N2_7 
REMARK    4  A    between atoms: N2_7  and  C3_9 
REMARK    5  A    between atoms: C4_12  and  N4_13 
REMARK    6  A    between atoms: N4_13  and  C5_15 
REMARK    7  A    between atoms: C5_15  and  C6_16 
REMARK    8  A    between atoms: C5_15  and  C7_18 
REMARK       I    between atoms: C7_18  and  N5_20 
REMARK    9  A    between atoms: N5_20  and  C8_22 
REMARK   10  A    between atoms: C9_31  and  C10_32 
REMARK   11  A    between atoms: C10_32  and  N10_33 
REMARK   12  A    between atoms: C10_32  and  C11_37 
REMARK   13  A    between atoms: C11_37  and  N11_38 
REMARK   14  A    between atoms: C11_37  and  O3_42 
ROOT
HETATM    1  C3  UNL     1      35.292  33.181  26.665  1.00  0.00     0.149 A 
HETATM    2  N3  UNL     1      36.452  32.629  26.203  1.00  0.00    -0.322 N 
ATOM      3  H3  UNL     1      36.984  33.196  25.544  1.00  0.00     0.169 HD
HETATM    4  C4  UNL     1      36.964  31.466  26.502  1.00  0.00     0.113 A 
HETATM    5  C9  UNL     1      36.416  30.514  27.383  1.00  0.00     0.027 A 
HETATM    6  C12 UNL     1      35.232  30.709  28.057  1.00  0.00     0.066 A 
HETATM    7  S1  UNL     1      34.457  32.194  27.756  1.00  0.00    -0.065 SA
ENDROOT
BRANCH   4   8
HETATM    8  N4  UNL     1      38.113  31.115  25.975  1.00  0.00    -0.357 N 
ATOM      9  H4  UNL     1      38.854  30.771  26.586  1.00  0.00     0.162 HD
BRANCH   8  10
HETATM   10  C5  UNL     1      38.356  31.202  24.569  1.00  0.00     0.238 C 
BRANCH  10  11
HETATM   11  C6  UNL     1      39.325  32.330  24.275  1.00  0.00     0.266 C 
HETATM   12  O1  UNL     1      39.235  32.984  23.252  1.00  0.00    -0.304 OA
ENDBRANCH  10  11
BRANCH  10  13
HETATM   13  C7  UNL     1      39.006  29.927  24.088  1.00  0.00     0.265 C 
HETATM   14  O2  UNL     1      38.900  28.886  24.737  1.00  0.00    -0.270 OA
HETATM   15  N5  UNL     1      39.735  30.018  22.849  1.00  0.00    -0.155 N 
ATOM     16  H5  UNL     1      40.740  30.192  22.855  1.00  0.00     0.187 HD
BRANCH  15  17
HETATM   17  C8  UNL     1      39.101  29.876  21.724  1.00  0.00     0.716 A 
HETATM   18  N6  UNL     1      38.426  28.777  21.349  1.00  0.00    -0.115 N 
HETATM   19  N7  UNL     1      37.927  29.023  20.154  1.00  0.00    -0.213 N 
ATOM     20  H6  UNL     1      38.320  27.917  21.888  1.00  0.00     0.207 HD
HETATM   21  N8  UNL     1      38.281  30.240  19.796  1.00  0.00    -0.213 N 
ATOM     22  H7  UNL     1      37.362  28.380  19.599  1.00  0.00     0.210 HD
HETATM   23  N9  UNL     1      39.009  30.789  20.750  1.00  0.00    -0.115 N 
ATOM     24  H8  UNL     1      38.031  30.689  18.915  1.00  0.00     0.210 HD
ATOM     25  H9  UNL     1      39.420  31.723  20.745  1.00  0.00     0.207 HD
ENDBRANCH  15  17
ENDBRANCH  10  13
ENDBRANCH   8  10
ENDBRANCH   4   8
BRANCH   5  26
HETATM   26  C10 UNL     1      37.173  29.242  27.566  1.00  0.00     0.276 C 
BRANCH  26  27
HETATM   27  N10 UNL     1      36.701  28.170  26.718  1.00  0.00    -0.067 N 
ATOM     28 3H10 UNL     1      36.724  28.446  25.736  1.00  0.00     0.275 HD
ATOM     29 2H10 UNL     1      37.373  27.404  26.693  1.00  0.00     0.275 HD
ATOM     30 1H10 UNL     1      35.775  27.830  26.976  1.00  0.00     0.275 HD
ENDBRANCH  26  27
BRANCH  26  31
HETATM   31  C11 UNL     1      37.302  28.818  28.996  1.00  0.00     0.351 C 
BRANCH  31  32
HETATM   32  N11 UNL     1      38.321  29.632  29.671  1.00  0.00    -0.051 N 
ATOM     33 3H11 UNL     1      38.115  29.759  30.662  1.00  0.00     0.277 HD
ATOM     34 2H11 UNL     1      39.207  29.136  29.765  1.00  0.00     0.277 HD
ATOM     35 1H11 UNL     1      38.432  30.523  29.188  1.00  0.00     0.277 HD
ENDBRANCH  31  32
BRANCH  31  36
HETATM   36  O3  UNL     1      37.536  27.471  29.181  1.00  0.00    -0.368 OA
ATOM     37  H3  UNL     1      36.781  26.913  29.041  1.00  0.00     0.212 HD
ENDBRANCH  31  36
ENDBRANCH  26  31
ENDBRANCH   5  26
BRANCH   1  38
HETATM   38  N2  UNL     1      34.910  34.323  26.292  1.00  0.00    -0.348 N 
ATOM     39  H2  UNL     1      33.899  34.454  26.334  1.00  0.00     0.167 HD
BRANCH  38  40
HETATM   40  C2  UNL     1      35.608  35.447  25.832  1.00  0.00     0.090 C 
BRANCH  40  41
HETATM   41  C1  UNL     1      35.179  36.796  26.311  1.00  0.00     0.274 C 
BRANCH  41  42
HETATM   42  N1  UNL     1      33.747  36.680  26.680  1.00  0.00    -0.075 N 
ATOM     43  H13 UNL     1      33.383  35.731  26.588  1.00  0.00     0.274 HD
ATOM     44  H12 UNL     1      33.578  36.784  27.681  1.00  0.00     0.274 HD
ATOM     45  H11 UNL     1      33.244  37.361  26.112  1.00  0.00     0.274 HD
ENDBRANCH  41  42
ENDBRANCH  40  41
ENDBRANCH  38  40
ENDBRANCH   1  38
TORSDOF 14
ENDMDL
