MODEL 1
REMARK VINA RESULT: -9.508634715      0.000      0.000
REMARK  10 active torsions:
REMARK  status: ('A' for Active; 'I' for Inactive)
REMARK    1  A    between atoms: C6_6  and  N1_7 
REMARK    2  A    between atoms: N1_7  and  C7_8 
REMARK    3  A    between atoms: N1_7  and  N3_27 
REMARK    4  A    between atoms: C7_8  and  C8_9 
REMARK    5  A    between atoms: C8_9  and  C9_10 
REMARK    6  A    between atoms: C9_10  and  C10_11 
REMARK    7  A    between atoms: C10_11  and  N2_12 
REMARK       I    between atoms: N2_12  and  C11_14 
REMARK    8  A    between atoms: C11_14  and  C12_16 
REMARK    9  A    between atoms: C19_23  and  C20_24 
REMARK   10  A    between atoms: N3_27  and  N4_29 
ROOT
HETATM    1  C9  UNL     1      50.745  52.885  21.960  1.00  0.00     0.021 C 
ENDROOT
BRANCH   1   2
HETATM    2  C8  UNL     1      51.731  54.024  22.276  1.00  0.00     0.023 C 
BRANCH   2   3
HETATM    3  C7  UNL     1      51.663  54.982  21.115  1.00  0.00     0.150 C 
BRANCH   3   4
HETATM    4  N1  UNL     1      51.553  56.344  21.557  1.00  0.00    -0.278 N 
BRANCH   4   5
HETATM    5  C6  UNL     1      50.335  57.028  21.370  1.00  0.00     0.026 C 
HETATM    6  C5  UNL     1      50.008  58.148  21.967  1.00  0.00     0.001 C 
HETATM    7  C4  UNL     1      48.716  58.780  21.703  1.00  0.00     0.038 C 
HETATM    8  C2  UNL     1      48.129  58.508  20.359  1.00  0.00    -0.044 C 
HETATM    9  C1  UNL     1      46.693  57.979  20.462  1.00  0.00     0.015 C 
HETATM   10  C3  UNL     1      48.104  59.835  19.590  1.00  0.00     0.015 C 
HETATM   11  C22 UNL     1      48.889  57.537  19.517  1.00  0.00     0.015 C 
HETATM   12  C21 UNL     1      49.359  56.403  20.408  1.00  0.00     0.059 C 
ENDBRANCH   4   5
BRANCH   4  13
HETATM   13  N3  UNL     1      52.617  56.996  22.163  1.00  0.00    -0.180 N 
ATOM     14  H3  UNL     1      52.633  57.027  23.182  1.00  0.00     0.215 HD
BRANCH  13  15
HETATM   15  N4  UNL     1      53.651  57.604  21.491  1.00  0.00    -0.024 N 
HETATM   16  O4  UNL     1      53.915  58.798  21.710  1.00  0.00    -0.515 OA
HETATM   17  O5  UNL     1      54.388  56.893  20.582  1.00  0.00    -0.515 OA
ENDBRANCH  13  15
ENDBRANCH   4  13
ENDBRANCH   3   4
ENDBRANCH   2   3
ENDBRANCH   1   2
BRANCH   1  18
HETATM   18  C10 UNL     1      51.555  51.842  21.249  1.00  0.00     0.122 C 
BRANCH  18  19
HETATM   19  N2  UNL     1      50.972  51.551  19.977  1.00  0.00    -0.361 N 
HETATM   20  C11 UNL     1      50.740  50.241  19.538  1.00  0.00     0.223 C 
HETATM   21  O1  UNL     1      51.045  49.285  20.281  1.00  0.00    -0.273 OA
ATOM     22  H2  UNL     1      50.716  52.327  19.366  1.00  0.00     0.162 HD
BRANCH  20  23
HETATM   23  C12 UNL     1      50.141  49.907  18.215  1.00  0.00     0.096 C 
HETATM   24  C13 UNL     1      49.205  48.754  18.275  1.00  0.00    -0.000 C 
HETATM   25  C14 UNL     1      47.851  49.080  18.842  1.00  0.00     0.006 C 
HETATM   26  C17 UNL     1      48.835  48.406  16.828  1.00  0.00     0.010 C 
HETATM   27  C15 UNL     1      46.983  49.541  17.720  1.00  0.00     0.005 C 
HETATM   28  C16 UNL     1      47.903  49.556  16.518  1.00  0.00    -0.013 C 
HETATM   29  C18 UNL     1      48.598  50.874  16.472  1.00  0.00     0.020 C 
HETATM   30  C19 UNL     1      49.581  51.127  17.541  1.00  0.00     0.100 C 
BRANCH  30  31
HETATM   31  C20 UNL     1      50.653  52.002  17.001  1.00  0.00     0.177 C 
HETATM   32  O2  UNL     1      51.287  51.696  15.963  1.00  0.00    -0.648 OA
HETATM   33  O3  UNL     1      50.965  53.185  17.657  1.00  0.00    -0.648 OA
ENDBRANCH  30  31
ENDBRANCH  20  23
ENDBRANCH  18  19
ENDBRANCH   1  18
TORSDOF 10
ENDMDL
MODEL 2
REMARK VINA RESULT: -9.507782716      1.108      1.424
REMARK  10 active torsions:
REMARK  status: ('A' for Active; 'I' for Inactive)
REMARK    1  A    between atoms: C6_6  and  N1_7 
REMARK    2  A    between atoms: N1_7  and  C7_8 
REMARK    3  A    between atoms: N1_7  and  N3_27 
REMARK    4  A    between atoms: C7_8  and  C8_9 
REMARK    5  A    between atoms: C8_9  and  C9_10 
REMARK    6  A    between atoms: C9_10  and  C10_11 
REMARK    7  A    between atoms: C10_11  and  N2_12 
REMARK       I    between atoms: N2_12  and  C11_14 
REMARK    8  A    between atoms: C11_14  and  C12_16 
REMARK    9  A    between atoms: C19_23  and  C20_24 
REMARK   10  A    between atoms: N3_27  and  N4_29 
ROOT
HETATM    1  C9  UNL     1      51.318  52.575  21.490  1.00  0.00     0.021 C 
ENDROOT
BRANCH   1   2
HETATM    2  C8  UNL     1      51.591  53.934  22.158  1.00  0.00     0.023 C 
BRANCH   2   3
HETATM    3  C7  UNL     1      51.686  54.947  21.047  1.00  0.00     0.150 C 
BRANCH   3   4
HETATM    4  N1  UNL     1      51.570  56.290  21.541  1.00  0.00    -0.278 N 
BRANCH   4   5
HETATM    5  C6  UNL     1      50.357  56.984  21.362  1.00  0.00     0.026 C 
HETATM    6  C5  UNL     1      50.041  58.104  21.963  1.00  0.00     0.001 C 
HETATM    7  C4  UNL     1      48.751  58.746  21.708  1.00  0.00     0.038 C 
HETATM    8  C2  UNL     1      48.156  58.482  20.366  1.00  0.00    -0.044 C 
HETATM    9  C1  UNL     1      46.716  57.963  20.474  1.00  0.00     0.015 C 
HETATM   10  C3  UNL     1      48.137  59.811  19.601  1.00  0.00     0.015 C 
HETATM   11  C22 UNL     1      48.905  57.507  19.518  1.00  0.00     0.015 C 
HETATM   12  C21 UNL     1      49.371  56.367  20.403  1.00  0.00     0.059 C 
ENDBRANCH   4   5
BRANCH   4  13
HETATM   13  N3  UNL     1      52.625  56.916  22.190  1.00  0.00    -0.180 N 
ATOM     14  H3  UNL     1      52.624  56.906  23.210  1.00  0.00     0.215 HD
BRANCH  13  15
HETATM   15  N4  UNL     1      53.671  57.548  21.560  1.00  0.00    -0.024 N 
HETATM   16  O4  UNL     1      54.345  56.937  20.714  1.00  0.00    -0.515 OA
HETATM   17  O5  UNL     1      53.971  58.848  21.868  1.00  0.00    -0.515 OA
ENDBRANCH  13  15
ENDBRANCH   4  13
ENDBRANCH   3   4
ENDBRANCH   2   3
ENDBRANCH   1   2
BRANCH   1  18
HETATM   18  C10 UNL     1      50.945  52.895  20.073  1.00  0.00     0.122 C 
BRANCH  18  19
HETATM   19  N2  UNL     1      50.891  51.696  19.298  1.00  0.00    -0.361 N 
HETATM   20  C11 UNL     1      49.941  51.497  18.286  1.00  0.00     0.223 C 
HETATM   21  O1  UNL     1      49.111  52.397  18.042  1.00  0.00    -0.273 OA
ATOM     22  H2  UNL     1      51.568  50.958  19.488  1.00  0.00     0.162 HD
BRANCH  20  23
HETATM   23  C12 UNL     1      49.856  50.256  17.466  1.00  0.00     0.096 C 
HETATM   24  C13 UNL     1      48.850  49.289  17.977  1.00  0.00    -0.000 C 
HETATM   25  C14 UNL     1      47.426  49.642  17.648  1.00  0.00     0.006 C 
HETATM   26  C17 UNL     1      49.021  47.998  17.166  1.00  0.00     0.010 C 
HETATM   27  C15 UNL     1      47.103  49.053  16.316  1.00  0.00     0.005 C 
HETATM   28  C16 UNL     1      48.406  48.436  15.854  1.00  0.00    -0.013 C 
HETATM   29  C18 UNL     1      49.204  49.484  15.157  1.00  0.00     0.020 C 
HETATM   30  C19 UNL     1      49.729  50.572  16.003  1.00  0.00     0.100 C 
BRANCH  30  31
HETATM   31  C20 UNL     1      51.012  51.043  15.424  1.00  0.00     0.177 C 
HETATM   32  O2  UNL     1      51.436  50.607  14.327  1.00  0.00    -0.648 OA
HETATM   33  O3  UNL     1      51.764  51.988  16.109  1.00  0.00    -0.648 OA
ENDBRANCH  30  31
ENDBRANCH  20  23
ENDBRANCH  18  19
ENDBRANCH   1  18
TORSDOF 10
ENDMDL
MODEL 3
REMARK VINA RESULT: -9.330332801      2.534      3.470
REMARK  10 active torsions:
REMARK  status: ('A' for Active; 'I' for Inactive)
REMARK    1  A    between atoms: C6_6  and  N1_7 
REMARK    2  A    between atoms: N1_7  and  C7_8 
REMARK    3  A    between atoms: N1_7  and  N3_27 
REMARK    4  A    between atoms: C7_8  and  C8_9 
REMARK    5  A    between atoms: C8_9  and  C9_10 
REMARK    6  A    between atoms: C9_10  and  C10_11 
REMARK    7  A    between atoms: C10_11  and  N2_12 
REMARK       I    between atoms: N2_12  and  C11_14 
REMARK    8  A    between atoms: C11_14  and  C12_16 
REMARK    9  A    between atoms: C19_23  and  C20_24 
REMARK   10  A    between atoms: N3_27  and  N4_29 
ROOT
HETATM    1  C9  UNL     1      52.240  49.728  20.346  1.00  0.00     0.021 C 
ENDROOT
BRANCH   1   2
HETATM    2  C8  UNL     1      52.406  51.022  21.162  1.00  0.00     0.023 C 
BRANCH   2   3
HETATM    3  C7  UNL     1      51.089  51.750  21.083  1.00  0.00     0.150 C 
BRANCH   3   4
HETATM    4  N1  UNL     1      51.151  52.864  20.180  1.00  0.00    -0.278 N 
BRANCH   4   5
HETATM    5  C6  UNL     1      51.014  54.170  20.692  1.00  0.00     0.026 C 
HETATM    6  C5  UNL     1      51.705  54.657  21.693  1.00  0.00     0.001 C 
HETATM    7  C4  UNL     1      51.486  56.029  22.149  1.00  0.00     0.038 C 
HETATM    8  C2  UNL     1      50.995  56.981  21.112  1.00  0.00    -0.044 C 
HETATM    9  C1  UNL     1      49.728  57.716  21.568  1.00  0.00     0.015 C 
HETATM   10  C3  UNL     1      52.101  58.018  20.878  1.00  0.00     0.015 C 
HETATM   11  C22 UNL     1      50.687  56.372  19.783  1.00  0.00     0.015 C 
HETATM   12  C21 UNL     1      49.990  55.046  20.019  1.00  0.00     0.059 C 
ENDBRANCH   4   5
BRANCH   4  13
HETATM   13  N3  UNL     1      51.344  52.681  18.818  1.00  0.00    -0.180 N 
ATOM     14  H3  UNL     1      50.521  52.488  18.247  1.00  0.00     0.215 HD
BRANCH  13  15
HETATM   15  N4  UNL     1      52.561  52.741  18.181  1.00  0.00    -0.024 N 
HETATM   16  O4  UNL     1      52.646  52.446  16.978  1.00  0.00    -0.515 OA
HETATM   17  O5  UNL     1      53.678  53.124  18.875  1.00  0.00    -0.515 OA
ENDBRANCH  13  15
ENDBRANCH   4  13
ENDBRANCH   3   4
ENDBRANCH   2   3
ENDBRANCH   1   2
BRANCH   1  18
HETATM   18  C10 UNL     1      50.793  49.356  20.476  1.00  0.00     0.122 C 
BRANCH  18  19
HETATM   19  N2  UNL     1      50.313  48.813  19.245  1.00  0.00    -0.361 N 
HETATM   20  C11 UNL     1      49.390  49.488  18.435  1.00  0.00     0.223 C 
HETATM   21  O1  UNL     1      48.968  50.608  18.791  1.00  0.00    -0.273 OA
ATOM     22  H2  UNL     1      50.656  47.901  18.944  1.00  0.00     0.162 HD
BRANCH  20  23
HETATM   23  C12 UNL     1      48.867  48.945  17.150  1.00  0.00     0.096 C 
HETATM   24  C13 UNL     1      47.895  47.836  17.339  1.00  0.00    -0.000 C 
HETATM   25  C14 UNL     1      46.518  48.280  17.748  1.00  0.00     0.006 C 
HETATM   26  C17 UNL     1      47.608  47.254  15.949  1.00  0.00     0.010 C 
HETATM   27  C15 UNL     1      45.738  48.559  16.508  1.00  0.00     0.005 C 
HETATM   28  C16 UNL     1      46.733  48.352  15.386  1.00  0.00    -0.013 C 
HETATM   29  C18 UNL     1      47.470  49.629  15.167  1.00  0.00     0.020 C 
HETATM   30  C19 UNL     1      48.389  50.043  16.242  1.00  0.00     0.100 C 
BRANCH  30  31
HETATM   31  C20 UNL     1      49.519  50.791  15.638  1.00  0.00     0.177 C 
HETATM   32  O2  UNL     1      49.788  51.967  15.985  1.00  0.00    -0.648 OA
HETATM   33  O3  UNL     1      50.301  50.182  14.665  1.00  0.00    -0.648 OA
ENDBRANCH  30  31
ENDBRANCH  20  23
ENDBRANCH  18  19
ENDBRANCH   1  18
TORSDOF 10
ENDMDL
MODEL 4
REMARK VINA RESULT: -9.247526494      1.109      2.436
REMARK  10 active torsions:
REMARK  status: ('A' for Active; 'I' for Inactive)
REMARK    1  A    between atoms: C6_6  and  N1_7 
REMARK    2  A    between atoms: N1_7  and  C7_8 
REMARK    3  A    between atoms: N1_7  and  N3_27 
REMARK    4  A    between atoms: C7_8  and  C8_9 
REMARK    5  A    between atoms: C8_9  and  C9_10 
REMARK    6  A    between atoms: C9_10  and  C10_11 
REMARK    7  A    between atoms: C10_11  and  N2_12 
REMARK       I    between atoms: N2_12  and  C11_14 
REMARK    8  A    between atoms: C11_14  and  C12_16 
REMARK    9  A    between atoms: C19_23  and  C20_24 
REMARK   10  A    between atoms: N3_27  and  N4_29 
ROOT
HETATM    1  C9  UNL     1      51.450  52.516  21.431  1.00  0.00     0.021 C 
ENDROOT
BRANCH   1   2
HETATM    2  C8  UNL     1      51.669  53.900  22.067  1.00  0.00     0.023 C 
BRANCH   2   3
HETATM    3  C7  UNL     1      51.542  54.908  20.955  1.00  0.00     0.150 C 
BRANCH   3   4
HETATM    4  N1  UNL     1      51.458  56.249  21.460  1.00  0.00    -0.278 N 
BRANCH   4   5
HETATM    5  C6  UNL     1      50.267  56.979  21.273  1.00  0.00     0.026 C 
HETATM    6  C5  UNL     1      49.963  58.086  21.904  1.00  0.00     0.001 C 
HETATM    7  C4  UNL     1      48.697  58.768  21.636  1.00  0.00     0.038 C 
HETATM    8  C2  UNL     1      48.131  58.564  20.272  1.00  0.00    -0.044 C 
HETATM    9  C1  UNL     1      46.677  58.078  20.325  1.00  0.00     0.015 C 
HETATM   10  C3  UNL     1      48.165  59.918  19.552  1.00  0.00     0.015 C 
HETATM   11  C22 UNL     1      48.878  57.599  19.411  1.00  0.00     0.015 C 
HETATM   12  C21 UNL     1      49.293  56.420  20.269  1.00  0.00     0.059 C 
ENDBRANCH   4   5
BRANCH   4  13
HETATM   13  N3  UNL     1      52.522  56.838  22.127  1.00  0.00    -0.180 N 
ATOM     14  H3  UNL     1      52.539  56.768  23.145  1.00  0.00     0.215 HD
BRANCH  13  15
HETATM   15  N4  UNL     1      53.556  57.510  21.519  1.00  0.00    -0.024 N 
HETATM   16  O4  UNL     1      54.300  56.913  20.724  1.00  0.00    -0.515 OA
HETATM   17  O5  UNL     1      53.765  58.835  21.791  1.00  0.00    -0.515 OA
ENDBRANCH  13  15
ENDBRANCH   4  13
ENDBRANCH   3   4
ENDBRANCH   2   3
ENDBRANCH   1   2
BRANCH   1  18
HETATM   18  C10 UNL     1      51.678  52.710  19.962  1.00  0.00     0.122 C 
BRANCH  18  19
HETATM   19  N2  UNL     1      50.944  51.735  19.219  1.00  0.00    -0.361 N 
HETATM   20  C11 UNL     1      49.849  52.073  18.412  1.00  0.00     0.223 C 
HETATM   21  O1  UNL     1      49.496  53.268  18.329  1.00  0.00    -0.273 OA
ATOM     22  H2  UNL     1      51.228  50.758  19.277  1.00  0.00     0.162 HD
BRANCH  20  23
HETATM   23  C12 UNL     1      49.061  51.078  17.631  1.00  0.00     0.096 C 
HETATM   24  C13 UNL     1      49.061  51.355  16.170  1.00  0.00    -0.000 C 
HETATM   25  C14 UNL     1      50.326  50.956  15.462  1.00  0.00     0.006 C 
HETATM   26  C17 UNL     1      48.057  50.384  15.534  1.00  0.00     0.010 C 
HETATM   27  C15 UNL     1      50.190  49.530  15.046  1.00  0.00     0.005 C 
HETATM   28  C16 UNL     1      48.855  49.101  15.615  1.00  0.00    -0.013 C 
HETATM   29  C18 UNL     1      49.067  48.634  17.015  1.00  0.00     0.020 C 
HETATM   30  C19 UNL     1      49.435  49.670  17.997  1.00  0.00     0.100 C 
BRANCH  30  31
HETATM   31  C20 UNL     1      48.892  49.281  19.323  1.00  0.00     0.177 C 
HETATM   32  O2  UNL     1      47.680  48.992  19.475  1.00  0.00    -0.648 OA
HETATM   33  O3  UNL     1      49.739  49.232  20.421  1.00  0.00    -0.648 OA
ENDBRANCH  30  31
ENDBRANCH  20  23
ENDBRANCH  18  19
ENDBRANCH   1  18
TORSDOF 10
ENDMDL
MODEL 5
REMARK VINA RESULT: -9.192400537      2.677      7.941
REMARK  10 active torsions:
REMARK  status: ('A' for Active; 'I' for Inactive)
REMARK    1  A    between atoms: C6_6  and  N1_7 
REMARK    2  A    between atoms: N1_7  and  C7_8 
REMARK    3  A    between atoms: N1_7  and  N3_27 
REMARK    4  A    between atoms: C7_8  and  C8_9 
REMARK    5  A    between atoms: C8_9  and  C9_10 
REMARK    6  A    between atoms: C9_10  and  C10_11 
REMARK    7  A    between atoms: C10_11  and  N2_12 
REMARK       I    between atoms: N2_12  and  C11_14 
REMARK    8  A    between atoms: C11_14  and  C12_16 
REMARK    9  A    between atoms: C19_23  and  C20_24 
REMARK   10  A    between atoms: N3_27  and  N4_29 
ROOT
HETATM    1  C9  UNL     1      52.516  50.398  20.011  1.00  0.00     0.021 C 
ENDROOT
BRANCH   1   2
HETATM    2  C8  UNL     1      51.026  50.550  20.364  1.00  0.00     0.023 C 
BRANCH   2   3
HETATM    3  C7  UNL     1      50.279  49.563  19.506  1.00  0.00     0.150 C 
BRANCH   3   4
HETATM    4  N1  UNL     1      49.488  50.221  18.505  1.00  0.00    -0.278 N 
BRANCH   4   5
HETATM    5  C6  UNL     1      48.529  49.476  17.789  1.00  0.00     0.026 C 
HETATM    6  C5  UNL     1      47.234  49.654  17.869  1.00  0.00     0.001 C 
HETATM    7  C4  UNL     1      46.321  48.825  17.082  1.00  0.00     0.038 C 
HETATM    8  C2  UNL     1      46.875  48.291  15.805  1.00  0.00    -0.044 C 
HETATM    9  C1  UNL     1      46.708  46.770  15.702  1.00  0.00     0.015 C 
HETATM   10  C3  UNL     1      46.095  48.944  14.656  1.00  0.00     0.015 C 
HETATM   11  C22 UNL     1      48.320  48.585  15.566  1.00  0.00     0.015 C 
HETATM   12  C21 UNL     1      49.064  48.404  16.875  1.00  0.00     0.059 C 
ENDBRANCH   4   5
BRANCH   4  13
HETATM   13  N3  UNL     1      49.647  51.572  18.230  1.00  0.00    -0.180 N 
ATOM     14  H3  UNL     1      49.544  52.227  19.005  1.00  0.00     0.215 HD
BRANCH  13  15
HETATM   15  N4  UNL     1      49.934  52.093  16.990  1.00  0.00    -0.024 N 
HETATM   16  O4  UNL     1      49.051  52.685  16.348  1.00  0.00    -0.515 OA
HETATM   17  O5  UNL     1      51.191  51.959  16.466  1.00  0.00    -0.515 OA
ENDBRANCH  13  15
ENDBRANCH   4  13
ENDBRANCH   3   4
ENDBRANCH   2   3
ENDBRANCH   1   2
BRANCH   1  18
HETATM   18  C10 UNL     1      52.960  51.755  19.555  1.00  0.00     0.122 C 
BRANCH  18  19
HETATM   19  N2  UNL     1      52.208  52.768  20.227  1.00  0.00    -0.361 N 
HETATM   20  C11 UNL     1      51.989  54.035  19.670  1.00  0.00     0.223 C 
HETATM   21  O1  UNL     1      52.460  54.297  18.543  1.00  0.00    -0.273 OA
ATOM     22  H2  UNL     1      51.816  52.561  21.145  1.00  0.00     0.162 HD
BRANCH  20  23
HETATM   23  C12 UNL     1      51.215  55.113  20.348  1.00  0.00     0.096 C 
HETATM   24  C13 UNL     1      51.979  55.784  21.432  1.00  0.00    -0.000 C 
HETATM   25  C14 UNL     1      53.001  56.777  20.951  1.00  0.00     0.006 C 
HETATM   26  C17 UNL     1      50.998  56.711  22.160  1.00  0.00     0.010 C 
HETATM   27  C15 UNL     1      52.324  58.098  20.807  1.00  0.00     0.005 C 
HETATM   28  C16 UNL     1      50.873  57.812  21.130  1.00  0.00    -0.013 C 
HETATM   29  C18 UNL     1      50.190  57.368  19.882  1.00  0.00     0.020 C 
HETATM   30  C19 UNL     1      50.592  56.052  19.354  1.00  0.00     0.100 C 
BRANCH  30  31
HETATM   31  C20 UNL     1      49.425  55.439  18.671  1.00  0.00     0.177 C 
HETATM   32  O2  UNL     1      49.028  55.850  17.554  1.00  0.00    -0.648 OA
HETATM   33  O3  UNL     1      48.754  54.385  19.278  1.00  0.00    -0.648 OA
ENDBRANCH  30  31
ENDBRANCH  20  23
ENDBRANCH  18  19
ENDBRANCH   1  18
TORSDOF 10
ENDMDL
