MODEL 1
REMARK VINA RESULT: -8.263125800      0.000      0.000
REMARK  3 active torsions:
REMARK  status: ('A' for Active; 'I' for Inactive)
REMARK    1  A    between atoms: C7_7  and  O1_8 
REMARK    2  A    between atoms: C11_13  and  O2_14 
REMARK    3  A    between atoms: C12_17  and  O4_18 
ROOT
HETATM    1  C1  UNL     1      38.736  16.854  27.246  1.00  0.00     0.015 C 
HETATM    2  C2  UNL     1      39.799  16.658  28.260  1.00  0.00    -0.043 C 
HETATM    3  C3  UNL     1      41.121  17.069  27.647  1.00  0.00     0.015 C 
HETATM    4  C4  UNL     1      39.900  15.217  28.724  1.00  0.00     0.015 C 
HETATM    5  C5  UNL     1      38.672  15.190  29.609  1.00  0.00     0.002 C 
HETATM    6  C6  UNL     1      38.446  13.927  30.332  1.00  0.00     0.037 C 
HETATM    7  C7  UNL     1      36.987  13.867  30.742  1.00  0.00     0.118 C 
HETATM    8  C8  UNL     1      36.934  13.608  32.210  1.00  0.00     0.036 C 
HETATM    9  C9  UNL     1      36.890  14.952  32.913  1.00  0.00     0.047 C 
HETATM   10  C10 UNL     1      38.239  15.601  32.825  1.00  0.00     0.012 A 
HETATM   11  C11 UNL     1      38.955  15.681  34.003  1.00  0.00     0.192 A 
HETATM   12  O3  UNL     1      40.095  16.267  33.748  1.00  0.00    -0.264 OA
HETATM   13  C12 UNL     1      40.201  16.589  32.481  1.00  0.00     0.193 A 
HETATM   14  C13 UNL     1      39.038  16.179  31.868  1.00  0.00     0.021 A 
HETATM   15  C14 UNL     1      38.874  16.409  30.446  1.00  0.00     0.001 A 
HETATM   16  C15 UNL     1      38.163  17.664  30.023  1.00  0.00     0.021 A 
HETATM   17  C16 UNL     1      39.528  17.356  29.581  1.00  0.00     0.008 A 
ENDROOT
BRANCH   7  18
HETATM   18  O1  UNL     1      36.274  12.917  30.000  1.00  0.00    -0.396 OA
ATOM     19  H1  UNL     1      35.338  12.984  30.143  1.00  0.00     0.210 HD
ENDBRANCH   7  18
BRANCH  13  20
HETATM   20  O4  UNL     1      41.304  17.232  31.878  1.00  0.00    -0.340 OA
ATOM     21  H4  UNL     1      41.989  17.709  32.332  1.00  0.00     0.220 HD
ENDBRANCH  13  20
BRANCH  11  22
HETATM   22  O2  UNL     1      38.533  15.216  35.251  1.00  0.00    -0.340 OA
ATOM     23  H2  UNL     1      39.095  15.024  35.992  1.00  0.00     0.220 HD
ENDBRANCH  11  22
TORSDOF 3
ENDMDL
MODEL 2
REMARK VINA RESULT: -8.231554618      0.964      1.228
REMARK  3 active torsions:
REMARK  status: ('A' for Active; 'I' for Inactive)
REMARK    1  A    between atoms: C7_7  and  O1_8 
REMARK    2  A    between atoms: C11_13  and  O2_14 
REMARK    3  A    between atoms: C12_17  and  O4_18 
ROOT
HETATM    1  C1  UNL     1      38.495  16.282  26.260  1.00  0.00     0.015 C 
HETATM    2  C2  UNL     1      39.711  16.251  27.108  1.00  0.00    -0.043 C 
HETATM    3  C3  UNL     1      40.915  16.481  26.218  1.00  0.00     0.015 C 
HETATM    4  C4  UNL     1      39.880  14.928  27.831  1.00  0.00     0.015 C 
HETATM    5  C5  UNL     1      38.817  15.124  28.891  1.00  0.00     0.002 C 
HETATM    6  C6  UNL     1      38.709  14.040  29.880  1.00  0.00     0.037 C 
HETATM    7  C7  UNL     1      37.337  14.119  30.525  1.00  0.00     0.118 C 
HETATM    8  C8  UNL     1      37.528  14.158  32.004  1.00  0.00     0.036 C 
HETATM    9  C9  UNL     1      37.609  15.616  32.418  1.00  0.00     0.047 C 
HETATM   10  C10 UNL     1      38.927  16.182  31.983  1.00  0.00     0.012 A 
HETATM   11  C11 UNL     1      39.829  16.468  32.989  1.00  0.00     0.192 A 
HETATM   12  O3  UNL     1      40.914  16.947  32.440  1.00  0.00    -0.264 OA
HETATM   13  C12 UNL     1      40.810  17.007  31.133  1.00  0.00     0.193 A 
HETATM   14  C13 UNL     1      39.558  16.528  30.812  1.00  0.00     0.021 A 
HETATM   15  C14 UNL     1      39.161  16.476  29.419  1.00  0.00     0.001 A 
HETATM   16  C15 UNL     1      38.396  17.649  28.872  1.00  0.00     0.021 A 
HETATM   17  C16 UNL     1      39.667  17.207  28.287  1.00  0.00     0.008 A 
ENDROOT
BRANCH   7  18
HETATM   18  O1  UNL     1      36.506  13.067  30.116  1.00  0.00    -0.396 OA
ATOM     19  H1  UNL     1      36.838  12.635  29.338  1.00  0.00     0.210 HD
ENDBRANCH   7  18
BRANCH  13  20
HETATM   20  O4  UNL     1      41.800  17.474  30.242  1.00  0.00    -0.340 OA
ATOM     21  H4  UNL     1      42.094  18.374  30.156  1.00  0.00     0.220 HD
ENDBRANCH  13  20
BRANCH  11  22
HETATM   22  O2  UNL     1      39.619  16.276  34.356  1.00  0.00    -0.340 OA
ATOM     23  H2  UNL     1      40.284  16.319  35.033  1.00  0.00     0.220 HD
ENDBRANCH  11  22
TORSDOF 3
ENDMDL
MODEL 3
REMARK VINA RESULT: -7.593002153      1.350      3.676
REMARK  3 active torsions:
REMARK  status: ('A' for Active; 'I' for Inactive)
REMARK    1  A    between atoms: C7_7  and  O1_8 
REMARK    2  A    between atoms: C11_13  and  O2_14 
REMARK    3  A    between atoms: C12_17  and  O4_18 
ROOT
HETATM    1  C1  UNL     1      40.711  15.942  26.944  1.00  0.00     0.015 C 
HETATM    2  C2  UNL     1      39.303  15.629  27.287  1.00  0.00    -0.043 C 
HETATM    3  C3  UNL     1      38.559  15.323  26.005  1.00  0.00     0.015 C 
HETATM    4  C4  UNL     1      38.610  16.778  27.996  1.00  0.00     0.015 C 
HETATM    5  C5  UNL     1      39.262  16.618  29.353  1.00  0.00     0.002 C 
HETATM    6  C6  UNL     1      38.784  17.545  30.392  1.00  0.00     0.037 C 
HETATM    7  C7  UNL     1      39.833  17.617  31.486  1.00  0.00     0.118 C 
HETATM    8  C8  UNL     1      39.162  17.324  32.785  1.00  0.00     0.036 C 
HETATM    9  C9  UNL     1      39.266  15.830  33.030  1.00  0.00     0.047 C 
HETATM   10  C10 UNL     1      38.335  15.109  32.102  1.00  0.00     0.012 A 
HETATM   11  C11 UNL     1      37.229  14.521  32.684  1.00  0.00     0.192 A 
HETATM   12  O3  UNL     1      36.531  13.943  31.741  1.00  0.00    -0.264 OA
HETATM   13  C12 UNL     1      37.088  14.099  30.563  1.00  0.00     0.193 A 
HETATM   14  C13 UNL     1      38.235  14.835  30.759  1.00  0.00     0.021 A 
HETATM   15  C14 UNL     1      39.064  15.163  29.616  1.00  0.00     0.001 A 
HETATM   16  C15 UNL     1      40.208  14.241  29.300  1.00  0.00     0.021 A 
HETATM   17  C16 UNL     1      39.150  14.531  28.325  1.00  0.00     0.008 A 
ENDROOT
BRANCH   7  18
HETATM   18  O1  UNL     1      40.502  18.848  31.489  1.00  0.00    -0.396 OA
ATOM     19  H1  UNL     1      39.917  19.568  31.694  1.00  0.00     0.210 HD
ENDBRANCH   7  18
BRANCH  13  20
HETATM   20  O4  UNL     1      36.591  13.600  29.339  1.00  0.00    -0.340 OA
ATOM     21  H4  UNL     1      36.756  13.968  28.478  1.00  0.00     0.220 HD
ENDBRANCH  13  20
BRANCH  11  22
HETATM   22  O2  UNL     1      36.911  14.540  34.043  1.00  0.00    -0.340 OA
ATOM     23  H2  UNL     1      36.051  14.389  34.416  1.00  0.00     0.220 HD
ENDBRANCH  11  22
TORSDOF 3
ENDMDL
MODEL 4
REMARK VINA RESULT: -7.167642844      1.880      3.064
REMARK  3 active torsions:
REMARK  status: ('A' for Active; 'I' for Inactive)
REMARK    1  A    between atoms: C7_7  and  O1_8 
REMARK    2  A    between atoms: C11_13  and  O2_14 
REMARK    3  A    between atoms: C12_17  and  O4_18 
ROOT
HETATM    1  C1  UNL     1      37.711  15.602  25.530  1.00  0.00     0.015 C 
HETATM    2  C2  UNL     1      39.119  15.846  25.925  1.00  0.00    -0.043 C 
HETATM    3  C3  UNL     1      39.980  15.770  24.682  1.00  0.00     0.015 C 
HETATM    4  C4  UNL     1      39.622  14.832  26.935  1.00  0.00     0.015 C 
HETATM    5  C5  UNL     1      38.902  15.367  28.155  1.00  0.00     0.002 C 
HETATM    6  C6  UNL     1      39.196  14.665  29.415  1.00  0.00     0.037 C 
HETATM    7  C7  UNL     1      38.073  14.954  30.393  1.00  0.00     0.118 C 
HETATM    8  C8  UNL     1      38.683  15.474  31.651  1.00  0.00     0.036 C 
HETATM    9  C9  UNL     1      38.737  16.987  31.545  1.00  0.00     0.047 C 
HETATM   10  C10 UNL     1      39.807  17.377  30.570  1.00  0.00     0.012 A 
HETATM   11  C11 UNL     1      40.932  17.973  31.106  1.00  0.00     0.192 A 
HETATM   12  O3  UNL     1      41.756  18.244  30.127  1.00  0.00    -0.264 OA
HETATM   13  C12 UNL     1      41.268  17.873  28.967  1.00  0.00     0.193 A 
HETATM   14  C13 UNL     1      40.031  17.319  29.215  1.00  0.00     0.021 A 
HETATM   15  C14 UNL     1      39.250  16.816  28.102  1.00  0.00     0.001 A 
HETATM   16  C15 UNL     1      38.246  17.747  27.481  1.00  0.00     0.021 A 
HETATM   17  C16 UNL     1      39.328  17.135  26.700  1.00  0.00     0.008 A 
ENDROOT
BRANCH   7  18
HETATM   18  O1  UNL     1      37.266  13.829  30.610  1.00  0.00    -0.396 OA
ATOM     19  H1  UNL     1      37.642  13.045  30.229  1.00  0.00     0.210 HD
ENDBRANCH   7  18
BRANCH  13  20
HETATM   20  O4  UNL     1      41.902  18.022  27.714  1.00  0.00    -0.340 OA
ATOM     21  H4  UNL     1      41.466  18.148  26.879  1.00  0.00     0.220 HD
ENDBRANCH  13  20
BRANCH  11  22
HETATM   22  O2  UNL     1      41.151  18.240  32.459  1.00  0.00    -0.340 OA
ATOM     23  H2  UNL     1      41.914  18.671  32.824  1.00  0.00     0.220 HD
ENDBRANCH  11  22
TORSDOF 3
ENDMDL
MODEL 5
REMARK VINA RESULT: -7.040455559      1.486      3.735
REMARK  3 active torsions:
REMARK  status: ('A' for Active; 'I' for Inactive)
REMARK    1  A    between atoms: C7_7  and  O1_8 
REMARK    2  A    between atoms: C11_13  and  O2_14 
REMARK    3  A    between atoms: C12_17  and  O4_18 
ROOT
HETATM    1  C1  UNL     1      40.180  15.247  26.682  1.00  0.00     0.015 C 
HETATM    2  C2  UNL     1      38.877  15.198  27.387  1.00  0.00    -0.043 C 
HETATM    3  C3  UNL     1      37.826  14.721  26.407  1.00  0.00     0.015 C 
HETATM    4  C4  UNL     1      38.462  16.550  27.933  1.00  0.00     0.015 C 
HETATM    5  C5  UNL     1      39.407  16.605  29.115  1.00  0.00     0.002 C 
HETATM    6  C6  UNL     1      39.262  17.786  29.981  1.00  0.00     0.037 C 
HETATM    7  C7  UNL     1      40.545  17.957  30.772  1.00  0.00     0.118 C 
HETATM    8  C8  UNL     1      40.185  18.038  32.217  1.00  0.00     0.036 C 
HETATM    9  C9  UNL     1      40.234  16.631  32.784  1.00  0.00     0.047 C 
HETATM   10  C10 UNL     1      39.057  15.852  32.278  1.00  0.00     0.012 A 
HETATM   11  C11 UNL     1      38.083  15.549  33.209  1.00  0.00     0.192 A 
HETATM   12  O3  UNL     1      37.138  14.876  32.606  1.00  0.00    -0.264 OA
HETATM   13  C12 UNL     1      37.405  14.702  31.333  1.00  0.00     0.193 A 
HETATM   14  C13 UNL     1      38.617  15.311  31.094  1.00  0.00     0.021 A 
HETATM   15  C14 UNL     1      39.169  15.278  29.754  1.00  0.00     0.001 A 
HETATM   16  C15 UNL     1      40.133  14.171  29.428  1.00  0.00     0.021 A 
HETATM   17  C16 UNL     1      38.896  14.377  28.665  1.00  0.00     0.008 A 
ENDROOT
BRANCH   7  18
HETATM   18  O1  UNL     1      41.284  19.065  30.337  1.00  0.00    -0.396 OA
ATOM     19  H1  UNL     1      42.069  18.806  29.869  1.00  0.00     0.210 HD
ENDBRANCH   7  18
BRANCH  13  20
HETATM   20  O4  UNL     1      36.593  14.020  30.400  1.00  0.00    -0.340 OA
ATOM     21  H4  UNL     1      36.282  13.126  30.480  1.00  0.00     0.220 HD
ENDBRANCH  13  20
BRANCH  11  22
HETATM   22  O2  UNL     1      38.102  15.901  34.560  1.00  0.00    -0.340 OA
ATOM     23  H2  UNL     1      38.167  16.783  34.905  1.00  0.00     0.220 HD
ENDBRANCH  11  22
TORSDOF 3
ENDMDL
