MODEL 1
REMARK VINA RESULT: -6.515234848      0.000      0.000
REMARK  2 active torsions:
REMARK  status: ('A' for Active; 'I' for Inactive)
REMARK    1  A    between atoms: C4_4  and  O1_5 
REMARK    2  A    between atoms: C9_11  and  O2_12 
ROOT
HETATM    1  C1  UNL     1      38.721  17.145  32.602  1.00  0.00     0.015 C 
HETATM    2  C2  UNL     1      38.276  16.511  31.303  1.00  0.00     0.011 C 
HETATM    3  C3  UNL     1      38.548  15.074  31.264  1.00  0.00     0.010 C 
HETATM    4  C4  UNL     1      38.641  14.463  30.103  1.00  0.00     0.045 C 
HETATM    5  C5  UNL     1      38.494  15.099  28.789  1.00  0.00     0.058 C 
HETATM    6  C6  UNL     1      39.537  14.730  27.806  1.00  0.00     0.023 C 
HETATM    7  C7  UNL     1      39.180  14.910  26.348  1.00  0.00     0.010 C 
HETATM    8  C8  UNL     1      38.177  15.839  25.884  1.00  0.00     0.032 C 
HETATM    9  C9  UNL     1      38.572  17.219  25.339  1.00  0.00     0.123 C 
HETATM   10  C10 UNL     1      38.722  18.231  26.544  1.00  0.00     0.084 C 
HETATM   11  C11 UNL     1      39.001  17.205  27.647  1.00  0.00    -0.010 C 
HETATM   12  N1  UNL     1      40.175  16.778  27.209  1.00  0.00    -0.388 N 
ATOM     13  H1  UNL     1      40.622  17.168  26.380  1.00  0.00     0.159 HD
HETATM   14  C12 UNL     1      40.762  15.757  27.962  1.00  0.00     0.108 C 
HETATM   15  C13 UNL     1      41.376  15.827  29.221  1.00  0.00    -0.006 C 
HETATM   16  C14 UNL     1      41.257  16.891  30.213  1.00  0.00    -0.028 C 
HETATM   17  C15 UNL     1      40.138  17.820  30.225  1.00  0.00     0.033 C 
HETATM   18  C16 UNL     1      38.754  17.268  30.101  1.00  0.00     0.006 C 
HETATM   19  C17 UNL     1      38.413  16.611  28.833  1.00  0.00     0.047 C 
ENDROOT
BRANCH   4  20
HETATM   20  O1  UNL     1      38.900  13.101  30.126  1.00  0.00    -0.365 OA
ATOM     21  H1  UNL     1      38.637  12.598  29.364  1.00  0.00     0.217 HD
ENDBRANCH   4  20
BRANCH   9  22
HETATM   22  O2  UNL     1      37.486  17.704  24.642  1.00  0.00    -0.395 OA
ATOM     23  H2  UNL     1      37.224  17.028  24.028  1.00  0.00     0.210 HD
ENDBRANCH   9  22
TORSDOF 2
ENDMDL
MODEL 2
REMARK VINA RESULT: -6.187355581      8.175     10.075
REMARK  2 active torsions:
REMARK  status: ('A' for Active; 'I' for Inactive)
REMARK    1  A    between atoms: C4_4  and  O1_5 
REMARK    2  A    between atoms: C9_11  and  O2_12 
ROOT
HETATM    1  C1  UNL     1      44.663  18.379  22.132  1.00  0.00     0.015 C 
HETATM    2  C2  UNL     1      45.317  19.701  22.468  1.00  0.00     0.011 C 
HETATM    3  C3  UNL     1      46.486  19.539  23.333  1.00  0.00     0.010 C 
HETATM    4  C4  UNL     1      46.897  20.553  24.063  1.00  0.00     0.045 C 
HETATM    5  C5  UNL     1      46.281  21.884  24.101  1.00  0.00     0.058 C 
HETATM    6  C6  UNL     1      46.078  22.431  25.461  1.00  0.00     0.023 C 
HETATM    7  C7  UNL     1      45.950  23.933  25.569  1.00  0.00     0.010 C 
HETATM    8  C8  UNL     1      45.513  24.774  24.480  1.00  0.00     0.032 C 
HETATM    9  C9  UNL     1      44.058  25.257  24.391  1.00  0.00     0.123 C 
HETATM   10  C10 UNL     1      43.186  24.151  23.675  1.00  0.00     0.084 C 
HETATM   11  C11 UNL     1      44.077  22.945  23.989  1.00  0.00    -0.010 C 
HETATM   12  N1  UNL     1      43.914  22.931  25.302  1.00  0.00    -0.388 N 
ATOM     13  H1  UNL     1      43.301  23.590  25.782  1.00  0.00     0.159 HD
HETATM   14  C12 UNL     1      44.639  21.951  25.987  1.00  0.00     0.108 C 
HETATM   15  C13 UNL     1      44.413  20.568  26.052  1.00  0.00    -0.006 C 
HETATM   16  C14 UNL     1      43.592  19.756  25.159  1.00  0.00    -0.028 C 
HETATM   17  C15 UNL     1      43.246  20.188  23.814  1.00  0.00     0.033 C 
HETATM   18  C16 UNL     1      44.331  20.727  22.938  1.00  0.00     0.006 C 
HETATM   19  C17 UNL     1      44.963  21.983  23.360  1.00  0.00     0.047 C 
ENDROOT
BRANCH   4  20
HETATM   20  O1  UNL     1      48.008  20.342  24.866  1.00  0.00    -0.365 OA
ATOM     21  H1  UNL     1      47.862  20.300  25.804  1.00  0.00     0.217 HD
ENDBRANCH   4  20
BRANCH   9  22
HETATM   22  O2  UNL     1      44.036  26.312  23.503  1.00  0.00    -0.395 OA
ATOM     23  H2  UNL     1      43.446  26.071  22.799  1.00  0.00     0.210 HD
ENDBRANCH   9  22
TORSDOF 2
ENDMDL
MODEL 3
REMARK VINA RESULT: -6.094037696      1.990      4.989
REMARK  2 active torsions:
REMARK  status: ('A' for Active; 'I' for Inactive)
REMARK    1  A    between atoms: C4_4  and  O1_5 
REMARK    2  A    between atoms: C9_11  and  O2_12 
ROOT
HETATM    1  C1  UNL     1      38.133  17.566  24.943  1.00  0.00     0.015 C 
HETATM    2  C2  UNL     1      38.657  17.976  26.302  1.00  0.00     0.011 C 
HETATM    3  C3  UNL     1      40.044  18.436  26.248  1.00  0.00     0.010 C 
HETATM    4  C4  UNL     1      40.780  18.407  27.337  1.00  0.00     0.045 C 
HETATM    5  C5  UNL     1      40.335  17.943  28.656  1.00  0.00     0.058 C 
HETATM    6  C6  UNL     1      41.279  17.030  29.338  1.00  0.00     0.023 C 
HETATM    7  C7  UNL     1      41.153  16.935  30.842  1.00  0.00     0.010 C 
HETATM    8  C8  UNL     1      39.937  17.234  31.558  1.00  0.00     0.032 C 
HETATM    9  C9  UNL     1      38.990  16.112  32.009  1.00  0.00     0.123 C 
HETATM   10  C10 UNL     1      38.012  15.750  30.822  1.00  0.00     0.084 C 
HETATM   11  C11 UNL     1      38.888  16.247  29.668  1.00  0.00    -0.010 C 
HETATM   12  N1  UNL     1      39.869  15.366  29.788  1.00  0.00    -0.388 N 
ATOM     13  H1  UNL     1      39.850  14.621  30.485  1.00  0.00     0.159 HD
HETATM   14  C12 UNL     1      40.933  15.526  28.895  1.00  0.00     0.108 C 
HETATM   15  C13 UNL     1      40.986  15.239  27.523  1.00  0.00    -0.006 C 
HETATM   16  C14 UNL     1      39.866  15.033  26.611  1.00  0.00    -0.028 C 
HETATM   17  C15 UNL     1      38.530  15.532  26.896  1.00  0.00     0.033 C 
HETATM   18  C16 UNL     1      38.383  16.947  27.357  1.00  0.00     0.006 C 
HETATM   19  C17 UNL     1      38.970  17.286  28.659  1.00  0.00     0.047 C 
ENDROOT
BRANCH   4  20
HETATM   20  O1  UNL     1      42.087  18.855  27.227  1.00  0.00    -0.365 OA
ATOM     21  H1  UNL     1      42.405  19.433  27.911  1.00  0.00     0.217 HD
ENDBRANCH   4  20
BRANCH   9  22
HETATM   22  O2  UNL     1      38.154  16.649  32.965  1.00  0.00    -0.395 OA
ATOM     23  H2  UNL     1      37.290  16.283  32.817  1.00  0.00     0.210 HD
ENDBRANCH   9  22
TORSDOF 2
ENDMDL
MODEL 4
REMARK VINA RESULT: -5.989951520      7.693      9.660
REMARK  2 active torsions:
REMARK  status: ('A' for Active; 'I' for Inactive)
REMARK    1  A    between atoms: C4_4  and  O1_5 
REMARK    2  A    between atoms: C9_11  and  O2_12 
ROOT
HETATM    1  C1  UNL     1      45.903  26.267  24.840  1.00  0.00     0.015 C 
HETATM    2  C2  UNL     1      45.888  24.882  25.448  1.00  0.00     0.011 C 
HETATM    3  C3  UNL     1      46.595  23.904  24.620  1.00  0.00     0.010 C 
HETATM    4  C4  UNL     1      46.317  22.625  24.748  1.00  0.00     0.045 C 
HETATM    5  C5  UNL     1      45.332  22.054  25.674  1.00  0.00     0.058 C 
HETATM    6  C6  UNL     1      44.434  21.044  25.071  1.00  0.00     0.023 C 
HETATM    7  C7  UNL     1      43.781  20.070  26.026  1.00  0.00     0.010 C 
HETATM    8  C8  UNL     1      43.562  20.354  27.423  1.00  0.00     0.032 C 
HETATM    9  C9  UNL     1      42.193  20.837  27.926  1.00  0.00     0.123 C 
HETATM   10  C10 UNL     1      42.103  22.406  27.758  1.00  0.00     0.084 C 
HETATM   11  C11 UNL     1      43.141  22.559  26.642  1.00  0.00    -0.010 C 
HETATM   12  N1  UNL     1      42.482  21.920  25.688  1.00  0.00    -0.388 N 
ATOM     13  H1  UNL     1      41.548  21.538  25.833  1.00  0.00     0.159 HD
HETATM   14  C12 UNL     1      43.155  21.804  24.468  1.00  0.00     0.108 C 
HETATM   15  C13 UNL     1      43.397  22.785  23.496  1.00  0.00    -0.006 C 
HETATM   16  C14 UNL     1      43.323  24.234  23.654  1.00  0.00    -0.028 C 
HETATM   17  C15 UNL     1      43.419  24.880  24.953  1.00  0.00     0.033 C 
HETATM   18  C16 UNL     1      44.516  24.459  25.878  1.00  0.00     0.006 C 
HETATM   19  C17 UNL     1      44.469  23.080  26.379  1.00  0.00     0.047 C 
ENDROOT
BRANCH   4  20
HETATM   20  O1  UNL     1      47.016  21.744  23.938  1.00  0.00    -0.365 OA
ATOM     21  H1  UNL     1      46.580  21.443  23.150  1.00  0.00     0.217 HD
ENDBRANCH   4  20
BRANCH   9  22
HETATM   22  O2  UNL     1      42.178  20.655  29.293  1.00  0.00    -0.395 OA
ATOM     23  H2  UNL     1      42.202  19.719  29.450  1.00  0.00     0.210 HD
ENDBRANCH   9  22
TORSDOF 2
ENDMDL
MODEL 5
REMARK VINA RESULT: -5.976520173      1.956      4.786
REMARK  2 active torsions:
REMARK  status: ('A' for Active; 'I' for Inactive)
REMARK    1  A    between atoms: C4_4  and  O1_5 
REMARK    2  A    between atoms: C9_11  and  O2_12 
ROOT
HETATM    1  C1  UNL     1      41.187  15.746  24.843  1.00  0.00     0.015 C 
HETATM    2  C2  UNL     1      40.869  15.322  26.260  1.00  0.00     0.011 C 
HETATM    3  C3  UNL     1      39.569  14.658  26.363  1.00  0.00     0.010 C 
HETATM    4  C4  UNL     1      38.948  14.625  27.521  1.00  0.00     0.045 C 
HETATM    5  C5  UNL     1      39.444  15.208  28.774  1.00  0.00     0.058 C 
HETATM    6  C6  UNL     1      38.443  15.999  29.523  1.00  0.00     0.023 C 
HETATM    7  C7  UNL     1      38.699  16.178  31.002  1.00  0.00     0.010 C 
HETATM    8  C8  UNL     1      40.011  16.095  31.597  1.00  0.00     0.032 C 
HETATM    9  C9  UNL     1      40.815  17.365  31.915  1.00  0.00     0.123 C 
HETATM   10  C10 UNL     1      41.605  17.817  30.623  1.00  0.00     0.084 C 
HETATM   11  C11 UNL     1      40.706  17.144  29.581  1.00  0.00    -0.010 C 
HETATM   12  N1  UNL     1      39.619  17.873  29.777  1.00  0.00    -0.388 N 
ATOM     13  H1  UNL     1      39.591  18.642  30.446  1.00  0.00     0.159 HD
HETATM   14  C12 UNL     1      38.509  17.517  29.003  1.00  0.00     0.108 C 
HETATM   15  C13 UNL     1      38.278  17.732  27.637  1.00  0.00    -0.006 C 
HETATM   16  C14 UNL     1      39.260  18.063  26.608  1.00  0.00    -0.028 C 
HETATM   17  C15 UNL     1      40.678  17.782  26.768  1.00  0.00     0.033 C 
HETATM   18  C16 UNL     1      41.084  16.426  27.251  1.00  0.00     0.006 C 
HETATM   19  C17 UNL     1      40.686  16.061  28.616  1.00  0.00     0.047 C 
ENDROOT
BRANCH   4  20
HETATM   20  O1  UNL     1      37.720  13.983  27.560  1.00  0.00    -0.365 OA
ATOM     21  H1  UNL     1      37.321  13.864  28.415  1.00  0.00     0.217 HD
ENDBRANCH   4  20
BRANCH   9  22
HETATM   22  O2  UNL     1      41.813  17.002  32.795  1.00  0.00    -0.395 OA
ATOM     23  H2  UNL     1      42.290  16.284  32.395  1.00  0.00     0.210 HD
ENDBRANCH   9  22
TORSDOF 2
ENDMDL
