MODEL 1
REMARK VINA RESULT: -6.555437348      0.000      0.000
REMARK  7 active torsions:
REMARK  status: ('A' for Active; 'I' for Inactive)
REMARK    1  A    between atoms: N1_1  and  N2_4 
REMARK    2  A    between atoms: N2_4  and  N3_5 
REMARK    3  A    between atoms: N3_5  and  C1_7 
REMARK    4  A    between atoms: C2_8  and  O1_9 
REMARK    5  A    between atoms: C4_13  and  O2_14 
REMARK    6  A    between atoms: C5_16  and  C6_17 
REMARK    7  A    between atoms: C6_17  and  O3_18 
ROOT
HETATM    1  C1  UNL     1      -2.087   0.852  23.791  1.00  0.00     0.153 C 
HETATM    2  C2  UNL     1      -2.137   0.077  25.104  1.00  0.00     0.160 C 
HETATM    3  C3  UNL     1      -3.491  -0.598  25.134  1.00  0.00     0.118 C 
HETATM    4 BR1  UNL     1      -4.516   0.225  26.563  1.00  0.00    -0.086 Br
HETATM    5  C4  UNL     1      -4.153  -0.258  23.797  1.00  0.00     0.143 C 
HETATM    6  C5  UNL     1      -3.516   1.050  23.465  1.00  0.00     0.067 C 
ENDROOT
BRANCH   1   7
HETATM    7  N3  UNL     1      -1.372   0.030  22.864  1.00  0.00    -0.245 N 
ATOM      8  H3  UNL     1      -1.735  -0.155  21.929  1.00  0.00     0.197 HD
BRANCH   7   9
HETATM    9  N2  UNL     1      -0.293  -0.451  23.244  1.00  0.00    -0.248 NA
BRANCH   9  10
HETATM   10  N1  UNL     1       0.711  -1.075  23.631  1.00  0.00    -0.261 N 
ATOM     11  H12 UNL     1       0.046  -1.781  23.946  1.00  0.00     0.193 HD
ATOM     12  H11 UNL     1       1.606  -1.484  23.900  1.00  0.00     0.193 HD
ENDBRANCH   9  10
ENDBRANCH   7   9
ENDBRANCH   1   7
BRANCH   2  13
HETATM   13  O1  UNL     1      -1.963   0.944  26.170  1.00  0.00    -0.392 OA
ATOM     14  H1  UNL     1      -1.088   0.847  26.526  1.00  0.00     0.210 HD
ENDBRANCH   2  13
BRANCH   6  15
HETATM   15  C6  UNL     1      -3.792   1.534  22.076  1.00  0.00     0.173 C 
BRANCH  15  16
HETATM   16  O3  UNL     1      -4.968   1.058  21.545  1.00  0.00    -0.400 OA
ATOM     17  H3  UNL     1      -4.861   0.614  20.713  1.00  0.00     0.209 HD
ENDBRANCH  15  16
ENDBRANCH   6  15
BRANCH   5  18
HETATM   18  O2  UNL     1      -3.944  -1.250  22.876  1.00  0.00    -0.394 OA
ATOM     19  H2  UNL     1      -4.386  -1.057  22.058  1.00  0.00     0.210 HD
ENDBRANCH   5  18
TORSDOF 7
ENDMDL
MODEL 2
REMARK VINA RESULT: -6.419748126      1.349      1.389
REMARK  7 active torsions:
REMARK  status: ('A' for Active; 'I' for Inactive)
REMARK    1  A    between atoms: N1_1  and  N2_4 
REMARK    2  A    between atoms: N2_4  and  N3_5 
REMARK    3  A    between atoms: N3_5  and  C1_7 
REMARK    4  A    between atoms: C2_8  and  O1_9 
REMARK    5  A    between atoms: C4_13  and  O2_14 
REMARK    6  A    between atoms: C5_16  and  C6_17 
REMARK    7  A    between atoms: C6_17  and  O3_18 
ROOT
HETATM    1  C1  UNL     1      -1.694   0.448  24.772  1.00  0.00     0.153 C 
HETATM    2  C2  UNL     1      -2.449   0.190  26.072  1.00  0.00     0.160 C 
HETATM    3  C3  UNL     1      -3.895  -0.017  25.678  1.00  0.00     0.118 C 
HETATM    4 BR1  UNL     1      -4.907   1.484  26.380  1.00  0.00    -0.086 Br
HETATM    5  C4  UNL     1      -3.920   0.047  24.149  1.00  0.00     0.143 C 
HETATM    6  C5  UNL     1      -2.754   0.933  23.862  1.00  0.00     0.067 C 
ENDROOT
BRANCH   1   7
HETATM    7  N3  UNL     1      -1.107  -0.800  24.392  1.00  0.00    -0.245 N 
ATOM      8  H3  UNL     1      -1.667  -1.649  24.317  1.00  0.00     0.197 HD
BRANCH   7   9
HETATM    9  N2  UNL     1       0.112  -0.807  24.156  1.00  0.00    -0.248 NA
BRANCH   9  10
HETATM   10  N1  UNL     1       1.340  -0.679  24.008  1.00  0.00    -0.261 N 
ATOM     11  H12 UNL     1       1.098  -0.158  23.165  1.00  0.00     0.193 HD
ATOM     12  H11 UNL     1       2.359  -0.643  24.000  1.00  0.00     0.193 HD
ENDBRANCH   9  10
ENDBRANCH   7   9
ENDBRANCH   1   7
BRANCH   2  13
HETATM   13  O1  UNL     1      -2.291   1.266  26.930  1.00  0.00    -0.392 OA
ATOM     14  H1  UNL     1      -2.988   1.270  27.575  1.00  0.00     0.210 HD
ENDBRANCH   2  13
BRANCH   6  15
HETATM   15  C6  UNL     1      -2.372   0.998  22.416  1.00  0.00     0.173 C 
BRANCH  15  16
HETATM   16  O3  UNL     1      -2.006  -0.215  21.883  1.00  0.00    -0.400 OA
ATOM     17  H3  UNL     1      -1.304  -0.158  21.246  1.00  0.00     0.209 HD
ENDBRANCH  15  16
ENDBRANCH   6  15
BRANCH   5  18
HETATM   18  O2  UNL     1      -3.838  -1.206  23.601  1.00  0.00    -0.394 OA
ATOM     19  H2  UNL     1      -3.209  -1.229  22.890  1.00  0.00     0.210 HD
ENDBRANCH   5  18
TORSDOF 7
ENDMDL
MODEL 3
REMARK VINA RESULT: -6.306599689      1.341      1.711
REMARK  7 active torsions:
REMARK  status: ('A' for Active; 'I' for Inactive)
REMARK    1  A    between atoms: N1_1  and  N2_4 
REMARK    2  A    between atoms: N2_4  and  N3_5 
REMARK    3  A    between atoms: N3_5  and  C1_7 
REMARK    4  A    between atoms: C2_8  and  O1_9 
REMARK    5  A    between atoms: C4_13  and  O2_14 
REMARK    6  A    between atoms: C5_16  and  C6_17 
REMARK    7  A    between atoms: C6_17  and  O3_18 
ROOT
HETATM    1  C1  UNL     1      -2.173   0.869  23.189  1.00  0.00     0.153 C 
HETATM    2  C2  UNL     1      -1.558   0.316  24.470  1.00  0.00     0.160 C 
HETATM    3  C3  UNL     1      -2.694  -0.334  25.228  1.00  0.00     0.118 C 
HETATM    4 BR1  UNL     1      -2.995   0.717  26.833  1.00  0.00    -0.086 Br
HETATM    5  C4  UNL     1      -3.921  -0.209  24.322  1.00  0.00     0.143 C 
HETATM    6  C5  UNL     1      -3.601   1.023  23.543  1.00  0.00     0.067 C 
ENDROOT
BRANCH   1   7
HETATM    7  N3  UNL     1      -1.914  -0.098  22.167  1.00  0.00    -0.245 N 
ATOM      8  H3  UNL     1      -2.023  -1.097  22.342  1.00  0.00     0.197 HD
BRANCH   7   9
HETATM    9  N2  UNL     1      -1.552   0.328  21.059  1.00  0.00    -0.248 NA
BRANCH   9  10
HETATM   10  N1  UNL     1      -1.335   0.707  19.894  1.00  0.00    -0.261 N 
ATOM     11  H12 UNL     1      -0.808   1.465  20.330  1.00  0.00     0.193 HD
ATOM     12  H11 UNL     1      -1.229   0.912  18.901  1.00  0.00     0.193 HD
ENDBRANCH   9  10
ENDBRANCH   7   9
ENDBRANCH   1   7
BRANCH   2  13
HETATM   13  O1  UNL     1      -0.969   1.342  25.192  1.00  0.00    -0.392 OA
ATOM     14  H1  UNL     1      -1.253   1.305  26.097  1.00  0.00     0.210 HD
ENDBRANCH   2  13
BRANCH   6  15
HETATM   15  C6  UNL     1      -4.520   1.279  22.391  1.00  0.00     0.173 C 
BRANCH  15  16
HETATM   16  O3  UNL     1      -4.617   0.225  21.512  1.00  0.00    -0.400 OA
ATOM     17  H3  UNL     1      -4.382   0.448  20.619  1.00  0.00     0.209 HD
ENDBRANCH  15  16
ENDBRANCH   6  15
BRANCH   5  18
HETATM   18  O2  UNL     1      -4.094  -1.339  23.566  1.00  0.00    -0.394 OA
ATOM     19  H2  UNL     1      -3.419  -1.413  22.902  1.00  0.00     0.210 HD
ENDBRANCH   5  18
TORSDOF 7
ENDMDL
MODEL 4
REMARK VINA RESULT: -6.274723251      3.648      4.311
REMARK  7 active torsions:
REMARK  status: ('A' for Active; 'I' for Inactive)
REMARK    1  A    between atoms: N1_1  and  N2_4 
REMARK    2  A    between atoms: N2_4  and  N3_5 
REMARK    3  A    between atoms: N3_5  and  C1_7 
REMARK    4  A    between atoms: C2_8  and  O1_9 
REMARK    5  A    between atoms: C4_13  and  O2_14 
REMARK    6  A    between atoms: C5_16  and  C6_17 
REMARK    7  A    between atoms: C6_17  and  O3_18 
ROOT
HETATM    1  C1  UNL     1      -3.545  -0.598  26.740  1.00  0.00     0.153 C 
HETATM    2  C2  UNL     1      -2.525  -0.416  25.620  1.00  0.00     0.160 C 
HETATM    3  C3  UNL     1      -3.060   0.700  24.750  1.00  0.00     0.118 C 
HETATM    4 BR1  UNL     1      -3.537  -0.079  23.037  1.00  0.00    -0.086 Br
HETATM    5  C4  UNL     1      -4.336   1.187  25.441  1.00  0.00     0.143 C 
HETATM    6  C5  UNL     1      -4.785  -0.043  26.155  1.00  0.00     0.067 C 
ENDROOT
BRANCH   1   7
HETATM    7  N3  UNL     1      -3.041   0.127  27.866  1.00  0.00    -0.245 N 
ATOM      8  H3  UNL     1      -3.334   1.086  28.054  1.00  0.00     0.197 HD
BRANCH   7   9
HETATM    9  N2  UNL     1      -2.233  -0.459  28.605  1.00  0.00    -0.248 NA
BRANCH   9  10
HETATM   10  N1  UNL     1      -1.429  -0.912  29.439  1.00  0.00    -0.261 N 
ATOM     11  H12 UNL     1      -2.045  -0.490  30.135  1.00  0.00     0.193 HD
ATOM     12  H11 UNL     1      -0.702  -1.331  30.018  1.00  0.00     0.193 HD
ENDBRANCH   9  10
ENDBRANCH   7   9
ENDBRANCH   1   7
BRANCH   2  13
HETATM   13  O1  UNL     1      -2.380  -1.601  24.918  1.00  0.00    -0.392 OA
ATOM     14  H1  UNL     1      -2.168  -1.415  24.011  1.00  0.00     0.210 HD
ENDBRANCH   2  13
BRANCH   6  15
HETATM   15  C6  UNL     1      -5.902   0.182  27.125  1.00  0.00     0.173 C 
BRANCH  15  16
HETATM   16  O3  UNL     1      -7.017  -0.584  26.875  1.00  0.00    -0.400 OA
ATOM     17  H3  UNL     1      -7.107  -0.845  25.966  1.00  0.00     0.209 HD
ENDBRANCH  15  16
ENDBRANCH   6  15
BRANCH   5  18
HETATM   18  O2  UNL     1      -4.080   2.262  26.250  1.00  0.00    -0.394 OA
ATOM     19  H2  UNL     1      -4.637   2.999  26.028  1.00  0.00     0.210 HD
ENDBRANCH   5  18
TORSDOF 7
ENDMDL
MODEL 5
REMARK VINA RESULT: -6.200549073      1.900      3.306
REMARK  7 active torsions:
REMARK  status: ('A' for Active; 'I' for Inactive)
REMARK    1  A    between atoms: N1_1  and  N2_4 
REMARK    2  A    between atoms: N2_4  and  N3_5 
REMARK    3  A    between atoms: N3_5  and  C1_7 
REMARK    4  A    between atoms: C2_8  and  O1_9 
REMARK    5  A    between atoms: C4_13  and  O2_14 
REMARK    6  A    between atoms: C5_16  and  C6_17 
REMARK    7  A    between atoms: C6_17  and  O3_18 
ROOT
HETATM    1  C1  UNL     1      -2.405  -0.484  23.804  1.00  0.00     0.153 C 
HETATM    2  C2  UNL     1      -2.645   0.646  22.807  1.00  0.00     0.160 C 
HETATM    3  C3  UNL     1      -3.661   1.561  23.455  1.00  0.00     0.118 C 
HETATM    4 BR1  UNL     1      -5.296   1.438  22.416  1.00  0.00    -0.086 Br
HETATM    5  C4  UNL     1      -3.917   0.975  24.846  1.00  0.00     0.143 C 
HETATM    6  C5  UNL     1      -3.636  -0.473  24.623  1.00  0.00     0.067 C 
ENDROOT
BRANCH   1   7
HETATM    7  N3  UNL     1      -1.212  -0.146  24.517  1.00  0.00    -0.245 N 
ATOM      8  H3  UNL     1      -1.226   0.518  25.291  1.00  0.00     0.197 HD
BRANCH   7   9
HETATM    9  N2  UNL     1      -0.158  -0.695  24.156  1.00  0.00    -0.248 NA
BRANCH   9  10
HETATM   10  N1  UNL     1       0.823  -1.268  23.652  1.00  0.00    -0.261 N 
ATOM     11  H12 UNL     1       0.194  -2.063  23.541  1.00  0.00     0.193 HD
ATOM     12  H11 UNL     1       1.695  -1.625  23.261  1.00  0.00     0.193 HD
ENDBRANCH   9  10
ENDBRANCH   7   9
ENDBRANCH   1   7
BRANCH   2  13
HETATM   13  O1  UNL     1      -3.102   0.126  21.607  1.00  0.00    -0.392 OA
ATOM     14  H1  UNL     1      -2.373  -0.002  21.011  1.00  0.00     0.210 HD
ENDBRANCH   2  13
BRANCH   6  15
HETATM   15  C6  UNL     1      -3.575  -1.288  25.877  1.00  0.00     0.173 C 
BRANCH  15  16
HETATM   16  O3  UNL     1      -2.648  -2.303  25.835  1.00  0.00    -0.400 OA
ATOM     17  H3  UNL     1      -2.730  -2.866  25.074  1.00  0.00     0.209 HD
ENDBRANCH  15  16
ENDBRANCH   6  15
BRANCH   5  18
HETATM   18  O2  UNL     1      -3.126   1.576  25.789  1.00  0.00    -0.394 OA
ATOM     19  H2  UNL     1      -2.820   0.946  26.431  1.00  0.00     0.210 HD
ENDBRANCH   5  18
TORSDOF 7
ENDMDL
