MODEL 1
REMARK VINA RESULT: -4.681135718      0.000      0.000
REMARK  3 active torsions:
REMARK  status: ('A' for Active; 'I' for Inactive)
REMARK    1  A    between atoms: C2_2  and  N1_3 
REMARK    2  A    between atoms: N2_5  and  N3_7 
REMARK    3  A    between atoms: C4_11  and  O1_12 
ROOT
HETATM    1  C1  UNL     1      10.018  95.011  45.020  1.00  0.00     0.045 C 
HETATM    2  C2  UNL     1      10.169  95.441  46.461  1.00  0.00     0.092 A 
HETATM    3  C3  UNL     1       9.048  96.296  46.963  1.00  0.00     0.094 A 
HETATM    4  C4  UNL     1      10.411  96.853  46.795  1.00  0.00     0.163 A 
HETATM    5 CL1  UNL     1      11.238  97.299  48.303  1.00  0.00    -0.086 Cl
ENDROOT
BRANCH   2   6
HETATM    6  N1  UNL     1      10.790  94.465  47.306  1.00  0.00    -0.309 N 
HETATM    7  N2  UNL     1      10.218  93.365  47.538  1.00  0.00    -0.253 N 
ATOM      8  H2  UNL     1      10.702  92.703  48.145  1.00  0.00     0.207 HD
ATOM      9  H1  UNL     1      11.700  94.661  47.722  1.00  0.00     0.182 HD
BRANCH   7  10
HETATM   10  N3  UNL     1       8.981  92.983  47.031  1.00  0.00    -0.331 N 
ATOM     11  H32 UNL     1       8.995  92.417  46.184  1.00  0.00     0.178 HD
ATOM     12  H31 UNL     1       8.078  93.224  47.440  1.00  0.00     0.178 HD
ENDBRANCH   7  10
ENDBRANCH   2   6
BRANCH   4  13
HETATM   13  O1  UNL     1      10.694  97.699  45.725  1.00  0.00    -0.372 OA
ATOM     14  H1  UNL     1       9.962  97.922  45.162  1.00  0.00     0.212 HD
ENDBRANCH   4  13
TORSDOF 3
ENDMDL
MODEL 2
REMARK VINA RESULT: -4.657349117      8.112      8.757
REMARK  3 active torsions:
REMARK  status: ('A' for Active; 'I' for Inactive)
REMARK    1  A    between atoms: C2_2  and  N1_3 
REMARK    2  A    between atoms: N2_5  and  N3_7 
REMARK    3  A    between atoms: C4_11  and  O1_12 
ROOT
HETATM    1  C1  UNL     1       2.960  90.182  45.881  1.00  0.00     0.045 C 
HETATM    2  C2  UNL     1       3.915  90.534  44.764  1.00  0.00     0.092 A 
HETATM    3  C3  UNL     1       4.999  91.486  45.165  1.00  0.00     0.094 A 
HETATM    4  C4  UNL     1       3.943  91.897  44.209  1.00  0.00     0.163 A 
HETATM    5 CL1  UNL     1       4.497  92.187  42.546  1.00  0.00    -0.086 Cl
ENDROOT
BRANCH   2   6
HETATM    6  N1  UNL     1       4.174  89.462  43.849  1.00  0.00    -0.309 N 
HETATM    7  N2  UNL     1       3.298  89.114  43.011  1.00  0.00    -0.253 N 
ATOM      8  H2  UNL     1       3.530  88.346  42.380  1.00  0.00     0.207 HD
ATOM      9  H1  UNL     1       5.071  88.979  43.875  1.00  0.00     0.182 HD
BRANCH   7  10
HETATM   10  N3  UNL     1       2.041  89.693  42.878  1.00  0.00    -0.331 N 
ATOM     11  H32 UNL     1       1.453  89.693  43.711  1.00  0.00     0.178 HD
ATOM     12  H31 UNL     1       1.673  90.110  42.023  1.00  0.00     0.178 HD
ENDBRANCH   7  10
ENDBRANCH   2   6
BRANCH   4  13
HETATM   13  O1  UNL     1       2.920  92.748  44.620  1.00  0.00    -0.372 OA
ATOM     14  H1  UNL     1       3.190  93.538  45.073  1.00  0.00     0.212 HD
ENDBRANCH   4  13
TORSDOF 3
ENDMDL
MODEL 3
REMARK VINA RESULT: -4.610651709      7.645      8.015
REMARK  3 active torsions:
REMARK  status: ('A' for Active; 'I' for Inactive)
REMARK    1  A    between atoms: C2_2  and  N1_3 
REMARK    2  A    between atoms: N2_5  and  N3_7 
REMARK    3  A    between atoms: C4_11  and  O1_12 
ROOT
HETATM    1  C1  UNL     1       2.909  90.264  45.922  1.00  0.00     0.045 C 
HETATM    2  C2  UNL     1       4.349  90.693  45.761  1.00  0.00     0.092 A 
HETATM    3  C3  UNL     1       4.950  90.332  44.439  1.00  0.00     0.094 A 
HETATM    4  C4  UNL     1       5.422  89.689  45.688  1.00  0.00     0.163 A 
HETATM    5 CL1  UNL     1       7.082  90.100  46.170  1.00  0.00    -0.086 Cl
ENDROOT
BRANCH   2   6
HETATM    6  N1  UNL     1       4.671  91.932  46.406  1.00  0.00    -0.309 N 
HETATM    7  N2  UNL     1       4.235  93.022  45.946  1.00  0.00    -0.253 N 
ATOM      8  H2  UNL     1       4.491  93.877  46.441  1.00  0.00     0.207 HD
ATOM      9  H1  UNL     1       5.255  91.932  47.241  1.00  0.00     0.182 HD
BRANCH   7  10
HETATM   10  N3  UNL     1       3.432  93.153  44.818  1.00  0.00    -0.331 N 
ATOM     11  H32 UNL     1       3.639  92.525  44.042  1.00  0.00     0.178 HD
ATOM     12  H31 UNL     1       2.666  93.819  44.714  1.00  0.00     0.178 HD
ENDBRANCH   7  10
ENDBRANCH   2   6
BRANCH   4  13
HETATM   13  O1  UNL     1       5.058  88.377  45.980  1.00  0.00    -0.372 OA
ATOM     14  H1  UNL     1       5.229  87.734  45.304  1.00  0.00     0.212 HD
ENDBRANCH   4  13
TORSDOF 3
ENDMDL
MODEL 4
REMARK VINA RESULT: -4.497174396      5.316      5.742
REMARK  3 active torsions:
REMARK  status: ('A' for Active; 'I' for Inactive)
REMARK    1  A    between atoms: C2_2  and  N1_3 
REMARK    2  A    between atoms: N2_5  and  N3_7 
REMARK    3  A    between atoms: C4_11  and  O1_12 
ROOT
HETATM    1  C1  UNL     1       6.909  94.510  44.889  1.00  0.00     0.045 C 
HETATM    2  C2  UNL     1       5.665  95.193  44.371  1.00  0.00     0.092 A 
HETATM    3  C3  UNL     1       5.937  96.383  43.505  1.00  0.00     0.094 A 
HETATM    4  C4  UNL     1       5.307  96.542  44.837  1.00  0.00     0.163 A 
HETATM    5 CL1  UNL     1       3.617  97.090  44.814  1.00  0.00    -0.086 Cl
ENDROOT
BRANCH   2   6
HETATM    6  N1  UNL     1       4.578  94.303  44.084  1.00  0.00    -0.309 N 
HETATM    7  N2  UNL     1       3.967  93.721  45.021  1.00  0.00    -0.253 N 
ATOM      8  H2  UNL     1       3.200  93.098  44.766  1.00  0.00     0.207 HD
ATOM      9  H1  UNL     1       4.299  94.140  43.118  1.00  0.00     0.182 HD
BRANCH   7  10
HETATM   10  N3  UNL     1       4.254  93.861  46.375  1.00  0.00    -0.331 N 
ATOM     11  H32 UNL     1       4.634  93.040  46.843  1.00  0.00     0.178 HD
ATOM     12  H31 UNL     1       4.114  94.712  46.921  1.00  0.00     0.178 HD
ENDBRANCH   7  10
ENDBRANCH   2   6
BRANCH   4  13
HETATM   13  O1  UNL     1       6.047  97.040  45.906  1.00  0.00    -0.372 OA
ATOM     14  H1  UNL     1       6.638  96.428  46.328  1.00  0.00     0.212 HD
ENDBRANCH   4  13
TORSDOF 3
ENDMDL
MODEL 5
REMARK VINA RESULT: -4.466350624      7.443      7.969
REMARK  3 active torsions:
REMARK  status: ('A' for Active; 'I' for Inactive)
REMARK    1  A    between atoms: C2_2  and  N1_3 
REMARK    2  A    between atoms: N2_5  and  N3_7 
REMARK    3  A    between atoms: C4_11  and  O1_12 
ROOT
HETATM    1  C1  UNL     1       5.157  92.178  46.480  1.00  0.00     0.045 C 
HETATM    2  C2  UNL     1       4.739  91.512  45.190  1.00  0.00     0.092 A 
HETATM    3  C3  UNL     1       5.253  92.190  43.958  1.00  0.00     0.094 A 
HETATM    4  C4  UNL     1       3.805  92.183  44.273  1.00  0.00     0.163 A 
HETATM    5 CL1  UNL     1       2.792  91.239  43.160  1.00  0.00    -0.086 Cl
ENDROOT
BRANCH   2   6
HETATM    6  N1  UNL     1       4.651  90.083  45.265  1.00  0.00    -0.309 N 
HETATM    7  N2  UNL     1       3.706  89.535  45.895  1.00  0.00    -0.253 N 
ATOM      8  H2  UNL     1       3.686  88.515  45.919  1.00  0.00     0.207 HD
ATOM      9  H1  UNL     1       5.356  89.507  44.807  1.00  0.00     0.182 HD
BRANCH   7  10
HETATM   10  N3  UNL     1       2.688  90.210  46.559  1.00  0.00    -0.331 N 
ATOM     11  H32 UNL     1       1.913  89.640  46.897  1.00  0.00     0.178 HD
ATOM     12  H31 UNL     1       2.662  91.216  46.730  1.00  0.00     0.178 HD
ENDBRANCH   7  10
ENDBRANCH   2   6
BRANCH   4  13
HETATM   13  O1  UNL     1       3.189  93.334  44.757  1.00  0.00    -0.372 OA
ATOM     14  H1  UNL     1       3.684  94.140  44.678  1.00  0.00     0.212 HD
ENDBRANCH   4  13
TORSDOF 3
ENDMDL
