MODEL 1
REMARK VINA RESULT: -9.589573792      0.000      0.000
REMARK  15 active torsions:
REMARK  status: ('A' for Active; 'I' for Inactive)
REMARK    1  A    between atoms: N1_2  and  C2_3 
REMARK    2  A    between atoms: N1_2  and  C7_14 
REMARK    3  A    between atoms: C2_3  and  C3_4 
REMARK    4  A    between atoms: C3_4  and  N2_5 
REMARK    5  A    between atoms: C7_14  and  C8_15 
REMARK    6  A    between atoms: N5_28  and  N6_30 
REMARK    7  A    between atoms: N6_30  and  N7_31 
REMARK    8  A    between atoms: N6_30  and  N8_34 
REMARK    9  A    between atoms: C21_39  and  O3_40 
REMARK   10  A    between atoms: N9_42  and  C22_43 
REMARK   11  A    between atoms: C22_43  and  C23_44 
REMARK   12  A    between atoms: C23_44  and  O4_45 
REMARK   13  A    between atoms: C23_44  and  C24_47 
REMARK   14  A    between atoms: C24_47  and  O5_48 
REMARK   15  A    between atoms: C25_50  and  O6_51 
ROOT
HETATM    1  C8  UNL     1      19.268  41.216 102.372  1.00  0.00    -0.020 A 
HETATM    2  C9  UNL     1      17.990  40.844 102.013  1.00  0.00     0.015 A 
HETATM    3  C10 UNL     1      17.346  39.752 102.599  1.00  0.00     0.038 A 
HETATM    4  C11 UNL     1      17.981  39.005 103.569  1.00  0.00     0.077 A 
HETATM    5  C12 UNL     1      19.264  39.383 103.926  1.00  0.00    -0.024 A 
HETATM    6  C13 UNL     1      19.892  40.448 103.353  1.00  0.00     0.022 A 
HETATM    7  C14 UNL     1      19.942  38.583 104.969  1.00  0.00     0.045 C 
HETATM    8  C15 UNL     1      19.617  37.141 104.764  1.00  0.00     0.057 C 
HETATM    9  C16 UNL     1      18.138  36.874 104.740  1.00  0.00     0.167 A 
HETATM   10  O1  UNL     1      17.369  37.919 104.169  1.00  0.00    -0.326 OA
HETATM   11  C17 UNL     1      17.983  35.631 103.950  1.00  0.00     0.218 A 
HETATM   12  O2  UNL     1      18.177  35.461 102.712  1.00  0.00    -0.287 OA
HETATM   13  C18 UNL     1      17.550  34.557 104.835  1.00  0.00     0.116 A 
HETATM   14  N5  UNL     1      17.397  33.338 104.503  1.00  0.00    -0.261 N 
ATOM     15  H5  UNL     1      17.618  33.185 103.519  1.00  0.00     0.191 HD
HETATM   16  C19 UNL     1      17.339  35.173 106.141  1.00  0.00     0.061 A 
HETATM   17  C20 UNL     1      17.624  36.513 106.078  1.00  0.00     0.053 A 
HETATM   18  C21 UNL     1      17.346  37.043 107.338  1.00  0.00     0.155 A 
HETATM   19  N9  UNL     1      16.914  36.053 108.132  1.00  0.00    -0.305 N 
HETATM   20  C25 UNL     1      16.897  34.902 107.439  1.00  0.00     0.158 A 
ENDROOT
BRANCH  18  21
HETATM   21  O3  UNL     1      17.509  38.381 107.657  1.00  0.00    -0.345 OA
ATOM     22  H3  UNL     1      18.328  38.751 107.963  1.00  0.00     0.219 HD
ENDBRANCH  18  21
BRANCH  14  23
HETATM   23  N6  UNL     1      17.025  32.210 105.104  1.00  0.00    -0.144 N 
BRANCH  23  24
HETATM   24  N7  UNL     1      15.772  31.571 104.996  1.00  0.00    -0.309 N 
ATOM     25  H72 UNL     1      15.048  31.974 105.591  1.00  0.00     0.180 HD
ATOM     26  H71 UNL     1      15.539  30.785 104.387  1.00  0.00     0.180 HD
ENDBRANCH  23  24
BRANCH  23  27
HETATM   27  N8  UNL     1      17.936  31.551 105.973  1.00  0.00    -0.309 N 
ATOM     28  H82 UNL     1      18.380  32.167 106.653  1.00  0.00     0.180 HD
ATOM     29  H81 UNL     1      18.098  30.550 105.861  1.00  0.00     0.180 HD
ENDBRANCH  23  27
ENDBRANCH  14  23
BRANCH  20  30
HETATM   30  O6  UNL     1      16.511  33.664 107.921  1.00  0.00    -0.345 OA
ATOM     31  H6  UNL     1      15.934  33.511 108.660  1.00  0.00     0.219 HD
ENDBRANCH  20  30
BRANCH  19  32
HETATM   32  C22 UNL     1      16.539  36.265 109.513  1.00  0.00     0.167 C 
BRANCH  32  33
HETATM   33  C23 UNL     1      17.671  36.016 110.463  1.00  0.00     0.160 C 
BRANCH  33  34
HETATM   34  O4  UNL     1      18.901  35.829 109.841  1.00  0.00    -0.392 OA
ATOM     35  H4  UNL     1      19.183  34.923 109.807  1.00  0.00     0.210 HD
ENDBRANCH  33  34
BRANCH  33  36
HETATM   36  C24 UNL     1      17.375  34.706 111.187  1.00  0.00     0.197 C 
BRANCH  36  37
HETATM   37  O5  UNL     1      18.066  33.690 110.518  1.00  0.00    -0.398 OA
ATOM     38  H5  UNL     1      18.340  33.055 111.169  1.00  0.00     0.209 HD
ENDBRANCH  36  37
ENDBRANCH  33  36
ENDBRANCH  32  33
ENDBRANCH  19  32
BRANCH   1  39
HETATM   39  C7  UNL     1      19.969  42.376 101.770  1.00  0.00     0.101 C 
BRANCH  39  40
HETATM   40  N1  UNL     1      19.148  43.510 101.597  1.00  0.00    -0.372 N 
HETATM   41  C1  UNL     1      18.793  44.284 102.712  1.00  0.00     0.154 C 
BRANCH  40  42
HETATM   42  C2  UNL     1      18.939  44.020 100.303  1.00  0.00     0.082 C 
BRANCH  42  43
HETATM   43  C3  UNL     1      18.767  42.976  99.213  1.00  0.00     0.167 C 
BRANCH  43  44
HETATM   44  N2  UNL     1      18.926  43.687  97.961  1.00  0.00    -0.358 N 
HETATM   45  C4  UNL     1      19.762  43.391  97.040  1.00  0.00     0.171 C 
HETATM   46  N3  UNL     1      19.934  44.071  95.810  1.00  0.00    -0.361 N 
HETATM   47  N4  UNL     1      20.686  42.317  97.077  1.00  0.00    -0.361 N 
HETATM   48  C5  UNL     1      21.214  43.655  95.274  1.00  0.00     0.142 C 
ATOM     49  H3  UNL     1      19.282  44.729  95.383  1.00  0.00     0.162 HD
HETATM   50  C6  UNL     1      21.358  42.251  95.786  1.00  0.00     0.142 C 
ATOM     51  H4  UNL     1      20.851  41.698  97.870  1.00  0.00     0.162 HD
ATOM     52  H2  UNL     1      18.321  44.492  97.801  1.00  0.00     0.162 HD
ENDBRANCH  43  44
ENDBRANCH  42  43
ENDBRANCH  40  42
ENDBRANCH  39  40
ENDBRANCH   1  39
TORSDOF 15
ENDMDL
MODEL 2
REMARK VINA RESULT: -9.444342878      7.573     12.932
REMARK  15 active torsions:
REMARK  status: ('A' for Active; 'I' for Inactive)
REMARK    1  A    between atoms: N1_2  and  C2_3 
REMARK    2  A    between atoms: N1_2  and  C7_14 
REMARK    3  A    between atoms: C2_3  and  C3_4 
REMARK    4  A    between atoms: C3_4  and  N2_5 
REMARK    5  A    between atoms: C7_14  and  C8_15 
REMARK    6  A    between atoms: N5_28  and  N6_30 
REMARK    7  A    between atoms: N6_30  and  N7_31 
REMARK    8  A    between atoms: N6_30  and  N8_34 
REMARK    9  A    between atoms: C21_39  and  O3_40 
REMARK   10  A    between atoms: N9_42  and  C22_43 
REMARK   11  A    between atoms: C22_43  and  C23_44 
REMARK   12  A    between atoms: C23_44  and  O4_45 
REMARK   13  A    between atoms: C23_44  and  C24_47 
REMARK   14  A    between atoms: C24_47  and  O5_48 
REMARK   15  A    between atoms: C25_50  and  O6_51 
ROOT
HETATM    1  C8  UNL     1      18.588  39.941  98.604  1.00  0.00    -0.020 A 
HETATM    2  C9  UNL     1      19.298  38.782  98.373  1.00  0.00     0.015 A 
HETATM    3  C10 UNL     1      20.186  38.661  97.303  1.00  0.00     0.038 A 
HETATM    4  C11 UNL     1      20.381  39.714  96.434  1.00  0.00     0.077 A 
HETATM    5  C12 UNL     1      19.665  40.875  96.669  1.00  0.00    -0.024 A 
HETATM    6  C13 UNL     1      18.797  40.992  97.713  1.00  0.00     0.022 A 
HETATM    7  C14 UNL     1      19.876  42.004  95.738  1.00  0.00     0.045 C 
HETATM    8  C15 UNL     1      20.003  41.473  94.350  1.00  0.00     0.057 C 
HETATM    9  C16 UNL     1      21.086  40.440  94.217  1.00  0.00     0.167 A 
HETATM   10  O1  UNL     1      21.255  39.625  95.366  1.00  0.00    -0.326 OA
HETATM   11  C17 UNL     1      20.690  39.612  93.054  1.00  0.00     0.218 A 
HETATM   12  O2  UNL     1      19.718  38.809  92.959  1.00  0.00    -0.287 OA
HETATM   13  C18 UNL     1      21.623  39.854  91.961  1.00  0.00     0.116 A 
HETATM   14  N5  UNL     1      21.534  39.368  90.787  1.00  0.00    -0.261 N 
ATOM     15  H5  UNL     1      20.712  38.772  90.689  1.00  0.00     0.191 HD
HETATM   16  C19 UNL     1      22.647  40.746  92.495  1.00  0.00     0.061 A 
HETATM   17  C20 UNL     1      22.372  41.042  93.806  1.00  0.00     0.053 A 
HETATM   18  C21 UNL     1      23.415  41.846  94.265  1.00  0.00     0.155 A 
HETATM   19  N9  UNL     1      24.285  42.031  93.261  1.00  0.00    -0.305 N 
HETATM   20  C25 UNL     1      23.851  41.377  92.171  1.00  0.00     0.158 A 
ENDROOT
BRANCH  18  21
HETATM   21  O3  UNL     1      23.487  42.341  95.556  1.00  0.00    -0.345 OA
ATOM     22  H3  UNL     1      22.878  42.103  96.244  1.00  0.00     0.219 HD
ENDBRANCH  18  21
BRANCH  14  23
HETATM   23  N6  UNL     1      22.232  39.435  89.655  1.00  0.00    -0.144 N 
BRANCH  23  24
HETATM   24  N7  UNL     1      23.489  38.846  89.405  1.00  0.00    -0.309 N 
ATOM     25  H72 UNL     1      23.666  38.000  89.946  1.00  0.00     0.180 HD
ATOM     26  H71 UNL     1      24.195  39.173  88.745  1.00  0.00     0.180 HD
ENDBRANCH  23  24
BRANCH  23  27
HETATM   27  N8  UNL     1      21.716  40.182  88.563  1.00  0.00    -0.309 N 
ATOM     28  H82 UNL     1      22.406  40.394  87.843  1.00  0.00     0.180 HD
ATOM     29  H81 UNL     1      20.735  40.462  88.568  1.00  0.00     0.180 HD
ENDBRANCH  23  27
ENDBRANCH  14  23
BRANCH  20  30
HETATM   30  O6  UNL     1      24.481  41.334  90.939  1.00  0.00    -0.345 OA
ATOM     31  H6  UNL     1      25.418  41.261  90.797  1.00  0.00     0.219 HD
ENDBRANCH  20  30
BRANCH  19  32
HETATM   32  C22 UNL     1      25.487  42.822  93.404  1.00  0.00     0.167 C 
BRANCH  32  33
HETATM   33  C23 UNL     1      25.223  44.294  93.307  1.00  0.00     0.160 C 
BRANCH  33  34
HETATM   34  O4  UNL     1      23.971  44.676  93.775  1.00  0.00    -0.392 OA
ATOM     35  H4  UNL     1      23.989  45.425  94.361  1.00  0.00     0.210 HD
ENDBRANCH  33  34
BRANCH  33  36
HETATM   36  C24 UNL     1      25.235  44.660  91.825  1.00  0.00     0.197 C 
BRANCH  36  37
HETATM   37  O5  UNL     1      24.581  45.888  91.689  1.00  0.00    -0.398 OA
ATOM     38  H5  UNL     1      24.788  46.228  90.827  1.00  0.00     0.209 HD
ENDBRANCH  36  37
ENDBRANCH  33  36
ENDBRANCH  32  33
ENDBRANCH  19  32
BRANCH   1  39
HETATM   39  C7  UNL     1      17.645  40.096  99.738  1.00  0.00     0.101 C 
BRANCH  39  40
HETATM   40  N1  UNL     1      18.110  40.960 100.750  1.00  0.00    -0.372 N 
HETATM   41  C1  UNL     1      19.217  40.584 101.526  1.00  0.00     0.154 C 
BRANCH  40  42
HETATM   42  C2  UNL     1      17.664  42.294 100.780  1.00  0.00     0.082 C 
BRANCH  42  43
HETATM   43  C3  UNL     1      18.756  43.342 100.919  1.00  0.00     0.167 C 
BRANCH  43  44
HETATM   44  N2  UNL     1      18.914  43.919  99.601  1.00  0.00    -0.358 N 
HETATM   45  C4  UNL     1      20.026  44.241  99.059  1.00  0.00     0.171 C 
HETATM   46  N3  UNL     1      20.204  44.805  97.773  1.00  0.00    -0.361 N 
HETATM   47  N4  UNL     1      21.306  44.094  99.651  1.00  0.00    -0.361 N 
HETATM   48  C5  UNL     1      21.543  45.358  97.736  1.00  0.00     0.142 C 
ATOM     49  H3  UNL     1      19.520  44.819  97.016  1.00  0.00     0.162 HD
HETATM   50  C6  UNL     1      22.310  44.456  98.658  1.00  0.00     0.142 C 
ATOM     51  H4  UNL     1      21.491  43.788 100.606  1.00  0.00     0.162 HD
ATOM     52  H2  UNL     1      18.066  44.084  99.058  1.00  0.00     0.162 HD
ENDBRANCH  43  44
ENDBRANCH  42  43
ENDBRANCH  40  42
ENDBRANCH  39  40
ENDBRANCH   1  39
TORSDOF 15
ENDMDL
MODEL 3
REMARK VINA RESULT: -9.427339013      1.168      1.356
REMARK  15 active torsions:
REMARK  status: ('A' for Active; 'I' for Inactive)
REMARK    1  A    between atoms: N1_2  and  C2_3 
REMARK    2  A    between atoms: N1_2  and  C7_14 
REMARK    3  A    between atoms: C2_3  and  C3_4 
REMARK    4  A    between atoms: C3_4  and  N2_5 
REMARK    5  A    between atoms: C7_14  and  C8_15 
REMARK    6  A    between atoms: N5_28  and  N6_30 
REMARK    7  A    between atoms: N6_30  and  N7_31 
REMARK    8  A    between atoms: N6_30  and  N8_34 
REMARK    9  A    between atoms: C21_39  and  O3_40 
REMARK   10  A    between atoms: N9_42  and  C22_43 
REMARK   11  A    between atoms: C22_43  and  C23_44 
REMARK   12  A    between atoms: C23_44  and  O4_45 
REMARK   13  A    between atoms: C23_44  and  C24_47 
REMARK   14  A    between atoms: C24_47  and  O5_48 
REMARK   15  A    between atoms: C25_50  and  O6_51 
ROOT
HETATM    1  C8  UNL     1      19.188  41.235 102.311  1.00  0.00    -0.020 A 
HETATM    2  C9  UNL     1      17.909  40.850 101.969  1.00  0.00     0.015 A 
HETATM    3  C10 UNL     1      17.282  39.754 102.565  1.00  0.00     0.038 A 
HETATM    4  C11 UNL     1      17.936  39.014 103.528  1.00  0.00     0.077 A 
HETATM    5  C12 UNL     1      19.220  39.404 103.868  1.00  0.00    -0.024 A 
HETATM    6  C13 UNL     1      19.831  40.473 103.286  1.00  0.00     0.022 A 
HETATM    7  C14 UNL     1      19.919  38.612 104.903  1.00  0.00     0.045 C 
HETATM    8  C15 UNL     1      19.603  37.167 104.705  1.00  0.00     0.057 C 
HETATM    9  C16 UNL     1      18.127  36.887 104.701  1.00  0.00     0.167 A 
HETATM   10  O1  UNL     1      17.341  37.925 104.138  1.00  0.00    -0.326 OA
HETATM   11  C17 UNL     1      17.973  35.641 103.914  1.00  0.00     0.218 A 
HETATM   12  O2  UNL     1      18.152  35.471 102.674  1.00  0.00    -0.287 OA
HETATM   13  C18 UNL     1      17.561  34.565 104.806  1.00  0.00     0.116 A 
HETATM   14  N5  UNL     1      17.414  33.344 104.479  1.00  0.00    -0.261 N 
ATOM     15  H5  UNL     1      17.623  33.192 103.492  1.00  0.00     0.191 HD
HETATM   16  C19 UNL     1      17.361  35.181 106.114  1.00  0.00     0.061 A 
HETATM   17  C20 UNL     1      17.633  36.524 106.046  1.00  0.00     0.053 A 
HETATM   18  C21 UNL     1      17.367  37.054 107.308  1.00  0.00     0.155 A 
HETATM   19  N9  UNL     1      16.954  36.061 108.110  1.00  0.00    -0.305 N 
HETATM   20  C25 UNL     1      16.938  34.909 107.418  1.00  0.00     0.158 A 
ENDROOT
BRANCH  18  21
HETATM   21  O3  UNL     1      17.522  38.393 107.623  1.00  0.00    -0.345 OA
ATOM     22  H3  UNL     1      17.216  38.780 108.434  1.00  0.00     0.219 HD
ENDBRANCH  18  21
BRANCH  14  23
HETATM   23  N6  UNL     1      17.060  32.213 105.087  1.00  0.00    -0.144 N 
BRANCH  23  24
HETATM   24  N7  UNL     1      15.825  31.542 104.964  1.00  0.00    -0.309 N 
ATOM     25  H72 UNL     1      15.345  31.715 104.081  1.00  0.00     0.180 HD
ATOM     26  H71 UNL     1      15.402  30.915 105.649  1.00  0.00     0.180 HD
ENDBRANCH  23  24
BRANCH  23  27
HETATM   27  N8  UNL     1      17.972  31.587 105.978  1.00  0.00    -0.309 N 
ATOM     28  H82 UNL     1      18.880  32.047 106.032  1.00  0.00     0.180 HD
ATOM     29  H81 UNL     1      17.684  30.745 106.477  1.00  0.00     0.180 HD
ENDBRANCH  23  27
ENDBRANCH  14  23
BRANCH  20  30
HETATM   30  O6  UNL     1      16.569  33.668 107.907  1.00  0.00    -0.345 OA
ATOM     31  H6  UNL     1      17.139  32.913 107.990  1.00  0.00     0.219 HD
ENDBRANCH  20  30
BRANCH  19  32
HETATM   32  C22 UNL     1      16.595  36.272 109.494  1.00  0.00     0.167 C 
BRANCH  32  33
HETATM   33  C23 UNL     1      15.179  36.738 109.658  1.00  0.00     0.160 C 
BRANCH  33  34
HETATM   34  O4  UNL     1      15.062  38.005 110.218  1.00  0.00    -0.392 OA
ATOM     35  H4  UNL     1      14.184  38.217 110.514  1.00  0.00     0.210 HD
ENDBRANCH  33  34
BRANCH  33  36
HETATM   36  C24 UNL     1      14.502  35.790 110.645  1.00  0.00     0.197 C 
BRANCH  36  37
HETATM   37  O5  UNL     1      14.833  34.485 110.268  1.00  0.00    -0.398 OA
ATOM     38  H5  UNL     1      15.398  34.127 110.943  1.00  0.00     0.209 HD
ENDBRANCH  36  37
ENDBRANCH  33  36
ENDBRANCH  32  33
ENDBRANCH  19  32
BRANCH   1  39
HETATM   39  C7  UNL     1      19.871  42.400 101.699  1.00  0.00     0.101 C 
BRANCH  39  40
HETATM   40  N1  UNL     1      19.079  43.566 101.657  1.00  0.00    -0.372 N 
HETATM   41  C1  UNL     1      19.139  44.482 102.718  1.00  0.00     0.154 C 
BRANCH  40  42
HETATM   42  C2  UNL     1      18.474  43.947 100.445  1.00  0.00     0.082 C 
BRANCH  42  43
HETATM   43  C3  UNL     1      19.158  43.435  99.188  1.00  0.00     0.167 C 
BRANCH  43  44
HETATM   44  N2  UNL     1      20.041  44.500  98.762  1.00  0.00    -0.358 N 
HETATM   45  C4  UNL     1      20.983  44.387  97.905  1.00  0.00     0.171 C 
HETATM   46  N3  UNL     1      21.857  45.414  97.474  1.00  0.00    -0.361 N 
HETATM   47  N4  UNL     1      21.334  43.198  97.218  1.00  0.00    -0.361 N 
HETATM   48  C5  UNL     1      22.979  44.768  96.824  1.00  0.00     0.142 C 
ATOM     49  H3  UNL     1      21.722  46.418  97.597  1.00  0.00     0.162 HD
HETATM   50  C6  UNL     1      22.367  43.526  96.243  1.00  0.00     0.142 C 
ATOM     51  H4  UNL     1      20.934  42.274  97.378  1.00  0.00     0.162 HD
ATOM     52  H2  UNL     1      19.901  45.419  99.182  1.00  0.00     0.162 HD
ENDBRANCH  43  44
ENDBRANCH  42  43
ENDBRANCH  40  42
ENDBRANCH  39  40
ENDBRANCH   1  39
TORSDOF 15
ENDMDL
MODEL 4
REMARK VINA RESULT: -9.326707123      3.468      6.173
REMARK  15 active torsions:
REMARK  status: ('A' for Active; 'I' for Inactive)
REMARK    1  A    between atoms: N1_2  and  C2_3 
REMARK    2  A    between atoms: N1_2  and  C7_14 
REMARK    3  A    between atoms: C2_3  and  C3_4 
REMARK    4  A    between atoms: C3_4  and  N2_5 
REMARK    5  A    between atoms: C7_14  and  C8_15 
REMARK    6  A    between atoms: N5_28  and  N6_30 
REMARK    7  A    between atoms: N6_30  and  N7_31 
REMARK    8  A    between atoms: N6_30  and  N8_34 
REMARK    9  A    between atoms: C21_39  and  O3_40 
REMARK   10  A    between atoms: N9_42  and  C22_43 
REMARK   11  A    between atoms: C22_43  and  C23_44 
REMARK   12  A    between atoms: C23_44  and  O4_45 
REMARK   13  A    between atoms: C23_44  and  C24_47 
REMARK   14  A    between atoms: C24_47  and  O5_48 
REMARK   15  A    between atoms: C25_50  and  O6_51 
ROOT
HETATM    1  C8  UNL     1      19.384  42.187 102.502  1.00  0.00    -0.020 A 
HETATM    2  C9  UNL     1      20.144  41.370 103.312  1.00  0.00     0.015 A 
HETATM    3  C10 UNL     1      20.057  39.978 103.245  1.00  0.00     0.038 A 
HETATM    4  C11 UNL     1      19.196  39.373 102.354  1.00  0.00     0.077 A 
HETATM    5  C12 UNL     1      18.434  40.198 101.544  1.00  0.00    -0.024 A 
HETATM    6  C13 UNL     1      18.519  41.557 101.610  1.00  0.00     0.022 A 
HETATM    7  C14 UNL     1      17.513  39.550 100.587  1.00  0.00     0.045 C 
HETATM    8  C15 UNL     1      16.890  38.362 101.241  1.00  0.00     0.057 C 
HETATM    9  C16 UNL     1      17.904  37.390 101.774  1.00  0.00     0.167 A 
HETATM   10  O1  UNL     1      19.089  37.997 102.263  1.00  0.00    -0.326 OA
HETATM   11  C17 UNL     1      17.210  36.667 102.866  1.00  0.00     0.218 A 
HETATM   12  O2  UNL     1      16.839  37.114 103.988  1.00  0.00    -0.287 OA
HETATM   13  C18 UNL     1      16.994  35.285 102.456  1.00  0.00     0.116 A 
HETATM   14  N5  UNL     1      16.355  34.406 103.119  1.00  0.00    -0.261 N 
ATOM     15  H5  UNL     1      15.997  34.783 103.996  1.00  0.00     0.191 HD
HETATM   16  C19 UNL     1      17.652  35.141 101.162  1.00  0.00     0.061 A 
HETATM   17  C20 UNL     1      18.221  36.333 100.791  1.00  0.00     0.053 A 
HETATM   18  C21 UNL     1      18.877  36.107  99.581  1.00  0.00     0.155 A 
HETATM   19  N9  UNL     1      18.702  34.824  99.234  1.00  0.00    -0.305 N 
HETATM   20  C25 UNL     1      17.963  34.206 100.170  1.00  0.00     0.158 A 
ENDROOT
BRANCH  18  21
HETATM   21  O3  UNL     1      19.578  37.086  98.897  1.00  0.00    -0.345 OA
ATOM     22  H3  UNL     1      19.919  37.871  99.309  1.00  0.00     0.219 HD
ENDBRANCH  18  21
BRANCH  14  23
HETATM   23  N6  UNL     1      16.031  33.123 102.966  1.00  0.00    -0.144 N 
BRANCH  23  24
HETATM   24  N7  UNL     1      15.286  32.563 101.908  1.00  0.00    -0.309 N 
ATOM     25  H72 UNL     1      15.756  31.792 101.432  1.00  0.00     0.180 HD
ATOM     26  H71 UNL     1      14.352  32.842 101.605  1.00  0.00     0.180 HD
ENDBRANCH  23  24
BRANCH  23  27
HETATM   27  N8  UNL     1      16.434  32.182 103.951  1.00  0.00    -0.309 N 
ATOM     28  H82 UNL     1      17.408  31.890 103.872  1.00  0.00     0.180 HD
ATOM     29  H81 UNL     1      15.754  31.856 104.638  1.00  0.00     0.180 HD
ENDBRANCH  23  27
ENDBRANCH  14  23
BRANCH  20  30
HETATM   30  O6  UNL     1      17.573  32.879 100.160  1.00  0.00    -0.345 OA
ATOM     31  H6  UNL     1      17.382  32.362  99.386  1.00  0.00     0.219 HD
ENDBRANCH  20  30
BRANCH  19  32
HETATM   32  C22 UNL     1      19.256  34.259  98.023  1.00  0.00     0.167 C 
BRANCH  32  33
HETATM   33  C23 UNL     1      18.222  34.053  96.957  1.00  0.00     0.160 C 
BRANCH  33  34
HETATM   34  O4  UNL     1      18.254  32.791  96.375  1.00  0.00    -0.392 OA
ATOM     35  H4  UNL     1      17.550  32.633  95.757  1.00  0.00     0.210 HD
ENDBRANCH  33  34
BRANCH  33  36
HETATM   36  C24 UNL     1      18.535  35.032  95.829  1.00  0.00     0.197 C 
BRANCH  36  37
HETATM   37  O5  UNL     1      18.034  36.282  96.205  1.00  0.00    -0.398 OA
ATOM     38  H5  UNL     1      18.716  36.729  96.691  1.00  0.00     0.209 HD
ENDBRANCH  36  37
ENDBRANCH  33  36
ENDBRANCH  32  33
ENDBRANCH  19  32
BRANCH   1  39
HETATM   39  C7  UNL     1      19.464  43.668 102.549  1.00  0.00     0.101 C 
BRANCH  39  40
HETATM   40  N1  UNL     1      18.994  44.300 101.380  1.00  0.00    -0.372 N 
HETATM   41  C1  UNL     1      17.804  45.041 101.425  1.00  0.00     0.154 C 
BRANCH  40  42
HETATM   42  C2  UNL     1      19.853  44.433 100.273  1.00  0.00     0.082 C 
BRANCH  42  43
HETATM   43  C3  UNL     1      19.381  43.750  99.000  1.00  0.00     0.167 C 
BRANCH  43  44
HETATM   44  N2  UNL     1      20.074  44.419  97.918  1.00  0.00    -0.358 N 
HETATM   45  C4  UNL     1      20.812  43.848  97.044  1.00  0.00     0.171 C 
HETATM   46  N3  UNL     1      21.498  44.481  95.979  1.00  0.00    -0.361 N 
HETATM   47  N4  UNL     1      21.088  42.460  96.976  1.00  0.00    -0.361 N 
HETATM   48  C5  UNL     1      22.494  43.543  95.502  1.00  0.00     0.142 C 
ATOM     49  H3  UNL     1      21.324  45.418  95.616  1.00  0.00     0.162 HD
HETATM   50  C6  UNL     1      21.859  42.208  95.764  1.00  0.00     0.142 C 
ATOM     51  H4  UNL     1      20.798  41.758  97.657  1.00  0.00     0.162 HD
ATOM     52  H2  UNL     1      19.965  45.430  97.848  1.00  0.00     0.162 HD
ENDBRANCH  43  44
ENDBRANCH  42  43
ENDBRANCH  40  42
ENDBRANCH  39  40
ENDBRANCH   1  39
TORSDOF 15
ENDMDL
MODEL 5
REMARK VINA RESULT: -9.293304500      3.988      6.567
REMARK  15 active torsions:
REMARK  status: ('A' for Active; 'I' for Inactive)
REMARK    1  A    between atoms: N1_2  and  C2_3 
REMARK    2  A    between atoms: N1_2  and  C7_14 
REMARK    3  A    between atoms: C2_3  and  C3_4 
REMARK    4  A    between atoms: C3_4  and  N2_5 
REMARK    5  A    between atoms: C7_14  and  C8_15 
REMARK    6  A    between atoms: N5_28  and  N6_30 
REMARK    7  A    between atoms: N6_30  and  N7_31 
REMARK    8  A    between atoms: N6_30  and  N8_34 
REMARK    9  A    between atoms: C21_39  and  O3_40 
REMARK   10  A    between atoms: N9_42  and  C22_43 
REMARK   11  A    between atoms: C22_43  and  C23_44 
REMARK   12  A    between atoms: C23_44  and  O4_45 
REMARK   13  A    between atoms: C23_44  and  C24_47 
REMARK   14  A    between atoms: C24_47  and  O5_48 
REMARK   15  A    between atoms: C25_50  and  O6_51 
ROOT
HETATM    1  C8  UNL     1      19.587  43.293  97.896  1.00  0.00    -0.020 A 
HETATM    2  C9  UNL     1      19.228  42.009  97.546  1.00  0.00     0.015 A 
HETATM    3  C10 UNL     1      18.621  41.139  98.453  1.00  0.00     0.038 A 
HETATM    4  C11 UNL     1      18.358  41.547  99.744  1.00  0.00     0.077 A 
HETATM    5  C12 UNL     1      18.721  42.837 100.091  1.00  0.00    -0.024 A 
HETATM    6  C13 UNL     1      19.315  43.685  99.205  1.00  0.00     0.022 A 
HETATM    7  C14 UNL     1      18.437  43.275 101.474  1.00  0.00     0.045 C 
HETATM    8  C15 UNL     1      18.713  42.144 102.408  1.00  0.00     0.057 C 
HETATM    9  C16 UNL     1      17.950  40.897 102.057  1.00  0.00     0.167 A 
HETATM   10  O1  UNL     1      17.756  40.709 100.665  1.00  0.00    -0.326 OA
HETATM   11  C17 UNL     1      18.750  39.784 102.619  1.00  0.00     0.218 A 
HETATM   12  O2  UNL     1      19.882  39.366 102.245  1.00  0.00    -0.287 OA
HETATM   13  C18 UNL     1      18.019  39.191 103.732  1.00  0.00     0.116 A 
HETATM   14  N5  UNL     1      18.448  38.265 104.493  1.00  0.00    -0.261 N 
ATOM     15  H5  UNL     1      19.390  37.971 104.233  1.00  0.00     0.191 HD
HETATM   16  C19 UNL     1      16.730  39.873 103.776  1.00  0.00     0.061 A 
HETATM   17  C20 UNL     1      16.665  40.817 102.783  1.00  0.00     0.053 A 
HETATM   18  C21 UNL     1      15.393  41.385 102.848  1.00  0.00     0.155 A 
HETATM   19  N9  UNL     1      14.718  40.806 103.852  1.00  0.00    -0.305 N 
HETATM   20  C25 UNL     1      15.498  39.882 104.438  1.00  0.00     0.158 A 
ENDROOT
BRANCH  18  21
HETATM   21  O3  UNL     1      14.956  42.380 101.991  1.00  0.00    -0.345 OA
ATOM     22  H3  UNL     1      14.533  42.207 101.158  1.00  0.00     0.219 HD
ENDBRANCH  18  21
BRANCH  14  23
HETATM   23  N6  UNL     1      17.989  37.579 105.538  1.00  0.00    -0.144 N 
BRANCH  23  24
HETATM   24  N7  UNL     1      17.564  38.111 106.774  1.00  0.00    -0.309 N 
ATOM     25  H72 UNL     1      17.614  37.449 107.549  1.00  0.00     0.180 HD
ATOM     26  H71 UNL     1      17.242  39.063 106.949  1.00  0.00     0.180 HD
ENDBRANCH  23  24
BRANCH  23  27
HETATM   27  N8  UNL     1      17.920  36.162 105.464  1.00  0.00    -0.309 N 
ATOM     28  H82 UNL     1      17.261  35.815 104.768  1.00  0.00     0.180 HD
ATOM     29  H81 UNL     1      18.494  35.600 106.093  1.00  0.00     0.180 HD
ENDBRANCH  23  27
ENDBRANCH  14  23
BRANCH  20  30
HETATM   30  O6  UNL     1      15.150  39.079 105.510  1.00  0.00    -0.345 OA
ATOM     31  H6  UNL     1      14.343  39.137 106.008  1.00  0.00     0.219 HD
ENDBRANCH  20  30
BRANCH  19  32
HETATM   32  C22 UNL     1      13.360  41.168 104.192  1.00  0.00     0.167 C 
BRANCH  32  33
HETATM   33  C23 UNL     1      12.349  40.528 103.289  1.00  0.00     0.160 C 
BRANCH  33  34
HETATM   34  O4  UNL     1      12.873  40.086 102.078  1.00  0.00    -0.392 OA
ATOM     35  H4  UNL     1      12.399  39.357 101.695  1.00  0.00     0.210 HD
ENDBRANCH  33  34
BRANCH  33  36
HETATM   36  C24 UNL     1      11.325  41.599 102.925  1.00  0.00     0.197 C 
BRANCH  36  37
HETATM   37  O5  UNL     1      11.926  42.460 102.002  1.00  0.00    -0.398 OA
ATOM     38  H5  UNL     1      11.924  43.332 102.381  1.00  0.00     0.209 HD
ENDBRANCH  36  37
ENDBRANCH  33  36
ENDBRANCH  32  33
ENDBRANCH  19  32
BRANCH   1  39
HETATM   39  C7  UNL     1      20.226  44.239  96.948  1.00  0.00     0.101 C 
BRANCH  39  40
HETATM   40  N1  UNL     1      21.404  43.741  96.355  1.00  0.00    -0.372 N 
HETATM   41  C1  UNL     1      21.398  43.380  94.999  1.00  0.00     0.154 C 
BRANCH  40  42
HETATM   42  C2  UNL     1      22.631  43.885  97.029  1.00  0.00     0.082 C 
BRANCH  42  43
HETATM   43  C3  UNL     1      23.590  44.896  96.422  1.00  0.00     0.167 C 
BRANCH  43  44
HETATM   44  N2  UNL     1      24.714  44.124  95.934  1.00  0.00    -0.358 N 
HETATM   45  C4  UNL     1      25.074  44.028  94.711  1.00  0.00     0.171 C 
HETATM   46  N3  UNL     1      26.168  43.281  94.212  1.00  0.00    -0.361 N 
HETATM   47  N4  UNL     1      24.438  44.657  93.611  1.00  0.00    -0.361 N 
HETATM   48  C5  UNL     1      25.966  43.140  92.784  1.00  0.00     0.142 C 
ATOM     49  H3  UNL     1      26.950  42.913  94.754  1.00  0.00     0.162 HD
HETATM   50  C6  UNL     1      25.233  44.397  92.418  1.00  0.00     0.142 C 
ATOM     51  H4  UNL     1      23.574  45.197  93.649  1.00  0.00     0.162 HD
ATOM     52  H2  UNL     1      25.265  43.614  96.624  1.00  0.00     0.162 HD
ENDBRANCH  43  44
ENDBRANCH  42  43
ENDBRANCH  40  42
ENDBRANCH  39  40
ENDBRANCH   1  39
TORSDOF 15
ENDMDL
