MODEL 1
REMARK VINA RESULT: -10.620377619      0.000      0.000
REMARK  12 active torsions:
REMARK  status: ('A' for Active; 'I' for Inactive)
REMARK    1  A    between atoms: C4_4  and  N1_5 
REMARK    2  A    between atoms: N2_8  and  C7_9 
REMARK    3  A    between atoms: C7_9  and  C8_10 
REMARK    4  A    between atoms: C11_17  and  N5_18 
REMARK       I    between atoms: N5_18  and  C12_20 
REMARK       I    between atoms: C12_20  and  N6_22 
REMARK    5  A    between atoms: N6_22  and  N7_24 
REMARK    6  A    between atoms: N7_24  and  C14_26 
REMARK    7  A    between atoms: C14_26  and  C16_28 
REMARK    8  A    between atoms: C16_28  and  C17_30 
REMARK    9  A    between atoms: C17_30  and  O3_31 
REMARK   10  A    between atoms: C17_30  and  C18_33 
REMARK   11  A    between atoms: C18_33  and  O4_34 
REMARK   12  A    between atoms: C19_38  and  N9_39 
ROOT
HETATM    1  C8  UNL     1      19.106  44.012 100.467  1.00  0.00     0.141 C 
HETATM    2  C9  UNL     1      19.930  43.243 101.482  1.00  0.00     0.151 C 
HETATM    3  N3  UNL     1      19.567  41.863 101.598  1.00  0.00    -0.373 N 
ATOM      4  H3  UNL     1      20.341  41.210 101.473  1.00  0.00     0.161 HD
HETATM    5  C10 UNL     1      18.299  41.241 101.860  1.00  0.00     0.136 A 
HETATM    6  N4  UNL     1      18.358  39.950 102.101  1.00  0.00    -0.175 N 
ATOM      7  H4  UNL     1      19.263  39.480 102.086  1.00  0.00     0.186 HD
HETATM    8  C11 UNL     1      17.231  39.225 102.371  1.00  0.00     0.689 A 
HETATM    9  N8  UNL     1      16.057  39.887 102.380  1.00  0.00    -0.176 N 
ATOM     10  H8  UNL     1      15.212  39.354 102.582  1.00  0.00     0.186 HD
HETATM   11  C19 UNL     1      15.924  41.203 102.143  1.00  0.00     0.134 A 
HETATM   12  C20 UNL     1      17.079  41.915 101.873  1.00  0.00     0.120 A 
HETATM   13  C21 UNL     1      16.851  43.342 101.617  1.00  0.00     0.259 C 
HETATM   14  O5  UNL     1      15.769  43.784 102.082  1.00  0.00    -0.267 OA
HETATM   15  N10 UNL     1      17.735  44.201 100.914  1.00  0.00    -0.346 N 
ATOM     16  H10 UNL     1      17.340  45.111 100.682  1.00  0.00     0.163 HD
ENDROOT
BRANCH   8  17
HETATM   17  N5  UNL     1      17.331  37.958 102.601  1.00  0.00    -0.140 N 
HETATM   18  C12 UNL     1      18.285  37.137 101.953  1.00  0.00     0.354 C 
HETATM   19  O1  UNL     1      19.488  37.248 102.301  1.00  0.00    -0.244 OA
HETATM   20  N6  UNL     1      17.873  36.207 100.927  1.00  0.00    -0.250 N 
HETATM   21  C13 UNL     1      16.492  36.146 100.563  1.00  0.00     0.182 C 
ATOM     22  H5  UNL     1      16.696  37.531 103.277  1.00  0.00     0.189 HD
BRANCH  20  23
HETATM   23  N7  UNL     1      18.822  35.400 100.348  1.00  0.00    -0.319 N 
ATOM     24  H7  UNL     1      19.566  34.964 100.894  1.00  0.00     0.181 HD
BRANCH  23  25
HETATM   25  C14 UNL     1      18.711  35.207  98.938  1.00  0.00     0.167 C 
HETATM   26  C15 UNL     1      19.430  36.359  98.242  1.00  0.00     0.042 C 
BRANCH  25  27
HETATM   27  C16 UNL     1      19.292  33.889  98.569  1.00  0.00     0.180 C 
HETATM   28  O2  UNL     1      18.913  33.302  97.580  1.00  0.00    -0.293 OA
BRANCH  27  29
HETATM   29  C17 UNL     1      20.349  33.323  99.450  1.00  0.00     0.213 C 
BRANCH  29  30
HETATM   30  O3  UNL     1      19.915  32.222 100.150  1.00  0.00    -0.386 OA
ATOM     31  H3  UNL     1      19.905  31.435  99.618  1.00  0.00     0.210 HD
ENDBRANCH  29  30
BRANCH  29  32
HETATM   32  C18 UNL     1      21.594  32.984  98.648  1.00  0.00     0.203 C 
BRANCH  32  33
HETATM   33  O4  UNL     1      21.280  32.181  97.549  1.00  0.00    -0.398 OA
ATOM     34  H4  UNL     1      22.058  31.766  97.196  1.00  0.00     0.209 HD
ENDBRANCH  32  33
ENDBRANCH  29  32
ENDBRANCH  27  29
ENDBRANCH  25  27
ENDBRANCH  23  25
ENDBRANCH  20  23
ENDBRANCH   8  17
BRANCH  11  35
HETATM   35  N9  UNL     1      14.819  41.847 102.149  1.00  0.00    -0.384 N 
ATOM     36  H92 UNL     1      14.000  41.374 102.530  1.00  0.00     0.157 HD
ATOM     37  H91 UNL     1      14.689  42.797 101.801  1.00  0.00     0.157 HD
ENDBRANCH  11  35
BRANCH   1  38
HETATM   38  C7  UNL     1      19.129  43.247  99.175  1.00  0.00     0.090 C 
BRANCH  38  39
HETATM   39  N2  UNL     1      19.811  43.817  98.098  1.00  0.00    -0.369 N 
HETATM   40  C6  UNL     1      19.902  43.058  96.909  1.00  0.00     0.147 C 
HETATM   41  C5  UNL     1      20.809  43.699  95.877  1.00  0.00     0.145 C 
HETATM   42  N1  UNL     1      22.075  44.082  96.447  1.00  0.00    -0.360 N 
HETATM   43  C23 UNL     1      22.120  44.644  97.762  1.00  0.00     0.169 C 
HETATM   44  C22 UNL     1      20.742  44.847  98.288  1.00  0.00     0.083 C 
BRANCH  42  45
HETATM   45  C4  UNL     1      23.249  43.874  95.663  1.00  0.00     0.126 A 
HETATM   46  C3  UNL     1      23.315  43.402  94.364  1.00  0.00     0.084 A 
HETATM   47  C2  UNL     1      24.639  43.363  93.989  1.00  0.00     0.076 A 
HETATM   48  C1  UNL     1      25.192  42.920  92.665  1.00  0.00     0.079 C 
HETATM   49  O6  UNL     1      25.320  43.792  95.025  1.00  0.00    -0.241 OA
HETATM   50  N11 UNL     1      24.529  44.097  96.012  1.00  0.00    -0.245 N 
ATOM     51  H11 UNL     1      24.834  44.452  96.918  1.00  0.00     0.196 HD
ENDBRANCH  42  45
ENDBRANCH  38  39
ENDBRANCH   1  38
TORSDOF 12
ENDMDL
MODEL 2
REMARK VINA RESULT: -10.063775897      1.834      9.281
REMARK  12 active torsions:
REMARK  status: ('A' for Active; 'I' for Inactive)
REMARK    1  A    between atoms: C4_4  and  N1_5 
REMARK    2  A    between atoms: N2_8  and  C7_9 
REMARK    3  A    between atoms: C7_9  and  C8_10 
REMARK    4  A    between atoms: C11_17  and  N5_18 
REMARK       I    between atoms: N5_18  and  C12_20 
REMARK       I    between atoms: C12_20  and  N6_22 
REMARK    5  A    between atoms: N6_22  and  N7_24 
REMARK    6  A    between atoms: N7_24  and  C14_26 
REMARK    7  A    between atoms: C14_26  and  C16_28 
REMARK    8  A    between atoms: C16_28  and  C17_30 
REMARK    9  A    between atoms: C17_30  and  O3_31 
REMARK   10  A    between atoms: C17_30  and  C18_33 
REMARK   11  A    between atoms: C18_33  and  O4_34 
REMARK   12  A    between atoms: C19_38  and  N9_39 
ROOT
HETATM    1  C8  UNL     1      15.888  39.221 102.754  1.00  0.00     0.141 C 
HETATM    2  C9  UNL     1      15.342  40.635 102.702  1.00  0.00     0.151 C 
HETATM    3  N3  UNL     1      16.006  41.478 101.753  1.00  0.00    -0.373 N 
ATOM      4  H3  UNL     1      15.384  41.930 101.082  1.00  0.00     0.161 HD
HETATM    5  C10 UNL     1      17.396  41.796 101.586  1.00  0.00     0.136 A 
HETATM    6  N4  UNL     1      17.641  42.768 100.735  1.00  0.00    -0.175 N 
ATOM      7  H4  UNL     1      16.862  43.222 100.258  1.00  0.00     0.186 HD
HETATM    8  C11 UNL     1      18.917  43.182 100.477  1.00  0.00     0.689 A 
HETATM    9  N8  UNL     1      19.916  42.554 101.130  1.00  0.00    -0.176 N 
ATOM     10  H8  UNL     1      20.871  42.858 100.943  1.00  0.00     0.186 HD
HETATM   11  C19 UNL     1      19.737  41.555 102.011  1.00  0.00     0.134 A 
HETATM   12  C20 UNL     1      18.437  41.154 102.255  1.00  0.00     0.120 A 
HETATM   13  C21 UNL     1      18.326  40.055 103.221  1.00  0.00     0.259 C 
HETATM   14  O5  UNL     1      19.322  39.931 103.979  1.00  0.00    -0.267 OA
HETATM   15  N10 UNL     1      17.218  39.176 103.340  1.00  0.00    -0.346 N 
ATOM     16  H10 UNL     1      17.385  38.370 103.942  1.00  0.00     0.163 HD
ENDROOT
BRANCH   8  17
HETATM   17  N5  UNL     1      19.116  44.140  99.632  1.00  0.00    -0.140 N 
HETATM   18  C12 UNL     1      19.523  43.907  98.297  1.00  0.00     0.354 C 
HETATM   19  O1  UNL     1      18.674  43.439  97.496  1.00  0.00    -0.244 OA
HETATM   20  N6  UNL     1      20.876  44.203  97.883  1.00  0.00    -0.250 N 
HETATM   21  C13 UNL     1      21.799  44.712  98.849  1.00  0.00     0.182 C 
ATOM     22  H5  UNL     1      18.974  45.102  99.940  1.00  0.00     0.189 HD
BRANCH  20  23
HETATM   23  N7  UNL     1      21.223  43.999  96.569  1.00  0.00    -0.319 N 
ATOM     24  H7  UNL     1      20.642  44.334  95.800  1.00  0.00     0.181 HD
BRANCH  23  25
HETATM   25  C14 UNL     1      22.443  43.294  96.341  1.00  0.00     0.167 C 
HETATM   26  C15 UNL     1      22.107  41.974  95.653  1.00  0.00     0.042 C 
BRANCH  25  27
HETATM   27  C16 UNL     1      23.356  44.131  95.517  1.00  0.00     0.180 C 
HETATM   28  O2  UNL     1      24.012  43.637  94.628  1.00  0.00    -0.293 OA
BRANCH  27  29
HETATM   29  C17 UNL     1      23.430  45.585  95.822  1.00  0.00     0.213 C 
BRANCH  29  30
HETATM   30  O3  UNL     1      24.667  45.959  96.295  1.00  0.00    -0.386 OA
ATOM     31  H3  UNL     1      24.681  46.050  97.240  1.00  0.00     0.210 HD
ENDBRANCH  29  30
BRANCH  29  32
HETATM   32  C18 UNL     1      23.058  46.410  94.602  1.00  0.00     0.203 C 
BRANCH  32  33
HETATM   33  O4  UNL     1      24.063  46.357  93.634  1.00  0.00    -0.398 OA
ATOM     34  H4  UNL     1      24.721  47.024  93.787  1.00  0.00     0.209 HD
ENDBRANCH  32  33
ENDBRANCH  29  32
ENDBRANCH  27  29
ENDBRANCH  25  27
ENDBRANCH  23  25
ENDBRANCH  20  23
ENDBRANCH   8  17
BRANCH  11  35
HETATM   35  N9  UNL     1      20.673  40.950 102.639  1.00  0.00    -0.384 N 
ATOM     36  H92 UNL     1      21.385  41.522 103.092  1.00  0.00     0.157 HD
ATOM     37  H91 UNL     1      20.767  39.938 102.722  1.00  0.00     0.157 HD
ENDBRANCH  11  35
BRANCH   1  38
HETATM   38  C7  UNL     1      15.920  38.683 101.352  1.00  0.00     0.090 C 
BRANCH  38  39
HETATM   39  N2  UNL     1      16.131  37.312 101.191  1.00  0.00    -0.369 N 
HETATM   40  C6  UNL     1      17.035  36.684 102.078  1.00  0.00     0.147 C 
HETATM   41  C5  UNL     1      17.316  35.243 101.699  1.00  0.00     0.145 C 
HETATM   42  N1  UNL     1      17.654  35.117 100.305  1.00  0.00    -0.360 N 
HETATM   43  C23 UNL     1      16.955  35.900  99.331  1.00  0.00     0.169 C 
HETATM   44  C22 UNL     1      15.855  36.670  99.977  1.00  0.00     0.083 C 
BRANCH  42  45
HETATM   45  C4  UNL     1      18.692  34.205  99.949  1.00  0.00     0.126 A 
HETATM   46  C3  UNL     1      19.519  34.270  98.842  1.00  0.00     0.084 A 
HETATM   47  C2  UNL     1      20.381  33.197  98.889  1.00  0.00     0.076 A 
HETATM   48  C1  UNL     1      21.458  32.858  97.898  1.00  0.00     0.079 C 
HETATM   49  O6  UNL     1      20.071  32.532  99.977  1.00  0.00    -0.241 OA
HETATM   50  N11 UNL     1      19.089  33.103 100.610  1.00  0.00    -0.245 N 
ATOM     51  H11 UNL     1      18.680  32.765 101.481  1.00  0.00     0.196 HD
ENDBRANCH  42  45
ENDBRANCH  38  39
ENDBRANCH   1  38
TORSDOF 12
ENDMDL
MODEL 3
REMARK VINA RESULT: -9.997533036      3.718      5.438
REMARK  12 active torsions:
REMARK  status: ('A' for Active; 'I' for Inactive)
REMARK    1  A    between atoms: C4_4  and  N1_5 
REMARK    2  A    between atoms: N2_8  and  C7_9 
REMARK    3  A    between atoms: C7_9  and  C8_10 
REMARK    4  A    between atoms: C11_17  and  N5_18 
REMARK       I    between atoms: N5_18  and  C12_20 
REMARK       I    between atoms: C12_20  and  N6_22 
REMARK    5  A    between atoms: N6_22  and  N7_24 
REMARK    6  A    between atoms: N7_24  and  C14_26 
REMARK    7  A    between atoms: C14_26  and  C16_28 
REMARK    8  A    between atoms: C16_28  and  C17_30 
REMARK    9  A    between atoms: C17_30  and  O3_31 
REMARK   10  A    between atoms: C17_30  and  C18_33 
REMARK   11  A    between atoms: C18_33  and  O4_34 
REMARK   12  A    between atoms: C19_38  and  N9_39 
ROOT
HETATM    1  C8  UNL     1      18.753  43.896 101.059  1.00  0.00     0.141 C 
HETATM    2  C9  UNL     1      19.473  43.305 102.255  1.00  0.00     0.151 C 
HETATM    3  N3  UNL     1      19.269  41.897 102.416  1.00  0.00    -0.373 N 
ATOM      4  H3  UNL     1      20.128  41.349 102.476  1.00  0.00     0.161 HD
HETATM    5  C10 UNL     1      18.063  41.124 102.510  1.00  0.00     0.136 A 
HETATM    6  N4  UNL     1      18.238  39.868 102.858  1.00  0.00    -0.175 N 
ATOM      7  H4  UNL     1      19.182  39.525 103.032  1.00  0.00     0.186 HD
HETATM    8  C11 UNL     1      17.180  39.013 102.991  1.00  0.00     0.689 A 
HETATM    9  N8  UNL     1      15.949  39.509 102.750  1.00  0.00    -0.176 N 
ATOM     10  H8  UNL     1      15.155  38.877 102.848  1.00  0.00     0.186 HD
HETATM   11  C19 UNL     1      15.699  40.779 102.391  1.00  0.00     0.134 A 
HETATM   12  C20 UNL     1      16.785  41.625 102.264  1.00  0.00     0.120 A 
HETATM   13  C21 UNL     1      16.431  42.991 101.862  1.00  0.00     0.259 C 
HETATM   14  O5  UNL     1      15.238  43.307 102.102  1.00  0.00    -0.267 OA
HETATM   15  N10 UNL     1      17.312  43.921 101.253  1.00  0.00    -0.346 N 
ATOM     16  H10 UNL     1      16.854  44.755 100.886  1.00  0.00     0.163 HD
ENDROOT
BRANCH   8  17
HETATM   17  N5  UNL     1      17.394  37.785 103.333  1.00  0.00    -0.140 N 
HETATM   18  C12 UNL     1      16.771  37.186 104.454  1.00  0.00     0.354 C 
HETATM   19  O1  UNL     1      15.549  36.900 104.364  1.00  0.00    -0.244 OA
HETATM   20  N6  UNL     1      17.529  36.918 105.655  1.00  0.00    -0.250 N 
HETATM   21  C13 UNL     1      18.909  37.288 105.699  1.00  0.00     0.182 C 
ATOM     22  H5  UNL     1      18.037  37.226 102.773  1.00  0.00     0.189 HD
BRANCH  20  23
HETATM   23  N7  UNL     1      16.899  36.301 106.709  1.00  0.00    -0.319 N 
ATOM     24  H7  UNL     1      16.703  35.299 106.708  1.00  0.00     0.181 HD
BRANCH  23  25
HETATM   25  C14 UNL     1      16.533  37.139 107.804  1.00  0.00     0.167 C 
HETATM   26  C15 UNL     1      15.020  37.061 107.978  1.00  0.00     0.042 C 
BRANCH  25  27
HETATM   27  C16 UNL     1      17.255  36.702 109.029  1.00  0.00     0.180 C 
HETATM   28  O2  UNL     1      17.306  37.417 110.004  1.00  0.00    -0.293 OA
BRANCH  27  29
HETATM   29  C17 UNL     1      17.904  35.364 109.013  1.00  0.00     0.213 C 
BRANCH  29  30
HETATM   30  O3  UNL     1      19.231  35.429 108.657  1.00  0.00    -0.386 OA
ATOM     31  H3  UNL     1      19.598  34.573 108.469  1.00  0.00     0.210 HD
ENDBRANCH  29  30
BRANCH  29  32
HETATM   32  C18 UNL     1      17.748  34.674 110.357  1.00  0.00     0.203 C 
BRANCH  32  33
HETATM   33  O4  UNL     1      18.650  35.187 111.292  1.00  0.00    -0.398 OA
ATOM     34  H4  UNL     1      18.278  35.927 111.755  1.00  0.00     0.209 HD
ENDBRANCH  32  33
ENDBRANCH  29  32
ENDBRANCH  27  29
ENDBRANCH  25  27
ENDBRANCH  23  25
ENDBRANCH  20  23
ENDBRANCH   8  17
BRANCH  11  35
HETATM   35  N9  UNL     1      14.538  41.265 102.161  1.00  0.00    -0.384 N 
ATOM     36  H92 UNL     1      14.411  41.796 101.300  1.00  0.00     0.157 HD
ATOM     37  H91 UNL     1      13.727  41.166 102.771  1.00  0.00     0.157 HD
ENDBRANCH  11  35
BRANCH   1  38
HETATM   38  C7  UNL     1      19.099  43.070  99.853  1.00  0.00     0.090 C 
BRANCH  38  39
HETATM   39  N2  UNL     1      19.715  43.719  98.780  1.00  0.00    -0.369 N 
HETATM   40  C6  UNL     1      19.704  43.062  97.529  1.00  0.00     0.147 C 
HETATM   41  C5  UNL     1      20.548  43.774  96.491  1.00  0.00     0.145 C 
HETATM   42  N1  UNL     1      21.860  44.087  96.996  1.00  0.00    -0.360 N 
HETATM   43  C23 UNL     1      22.012  44.535  98.347  1.00  0.00     0.169 C 
HETATM   44  C22 UNL     1      20.679  44.714  98.987  1.00  0.00     0.083 C 
BRANCH  42  45
HETATM   45  C4  UNL     1      22.970  43.928  96.113  1.00  0.00     0.126 A 
HETATM   46  C3  UNL     1      22.938  43.498  94.799  1.00  0.00     0.084 A 
HETATM   47  C2  UNL     1      24.229  43.498  94.318  1.00  0.00     0.076 A 
HETATM   48  C1  UNL     1      24.680  43.107  92.940  1.00  0.00     0.079 C 
HETATM   49  O6  UNL     1      24.983  43.910  95.309  1.00  0.00    -0.241 OA
HETATM   50  N11 UNL     1      24.270  44.167  96.365  1.00  0.00    -0.245 N 
ATOM     51  H11 UNL     1      24.641  44.501  97.254  1.00  0.00     0.196 HD
ENDBRANCH  42  45
ENDBRANCH  38  39
ENDBRANCH   1  38
TORSDOF 12
ENDMDL
MODEL 4
REMARK VINA RESULT: -9.976885641      1.483      2.086
REMARK  12 active torsions:
REMARK  status: ('A' for Active; 'I' for Inactive)
REMARK    1  A    between atoms: C4_4  and  N1_5 
REMARK    2  A    between atoms: N2_8  and  C7_9 
REMARK    3  A    between atoms: C7_9  and  C8_10 
REMARK    4  A    between atoms: C11_17  and  N5_18 
REMARK       I    between atoms: N5_18  and  C12_20 
REMARK       I    between atoms: C12_20  and  N6_22 
REMARK    5  A    between atoms: N6_22  and  N7_24 
REMARK    6  A    between atoms: N7_24  and  C14_26 
REMARK    7  A    between atoms: C14_26  and  C16_28 
REMARK    8  A    between atoms: C16_28  and  C17_30 
REMARK    9  A    between atoms: C17_30  and  O3_31 
REMARK   10  A    between atoms: C17_30  and  C18_33 
REMARK   11  A    between atoms: C18_33  and  O4_34 
REMARK   12  A    between atoms: C19_38  and  N9_39 
ROOT
HETATM    1  C8  UNL     1      19.152  44.214 100.493  1.00  0.00     0.141 C 
HETATM    2  C9  UNL     1      19.999  43.710 101.645  1.00  0.00     0.151 C 
HETATM    3  N3  UNL     1      19.745  42.346 101.998  1.00  0.00    -0.373 N 
ATOM      4  H3  UNL     1      20.573  41.750 102.008  1.00  0.00     0.161 HD
HETATM    5  C10 UNL     1      18.523  41.675 102.343  1.00  0.00     0.136 A 
HETATM    6  N4  UNL     1      18.677  40.456 102.811  1.00  0.00    -0.175 N 
ATOM      7  H4  UNL     1      19.617  40.069 102.898  1.00  0.00     0.186 HD
HETATM    8  C11 UNL     1      17.604  39.696 103.185  1.00  0.00     0.689 A 
HETATM    9  N8  UNL     1      16.381  40.247 103.053  1.00  0.00    -0.176 N 
ATOM     10  H8  UNL     1      15.575  39.687 103.330  1.00  0.00     0.186 HD
HETATM   11  C19 UNL     1      16.151  41.484 102.582  1.00  0.00     0.134 A 
HETATM   12  C20 UNL     1      17.252  42.233 102.211  1.00  0.00     0.120 A 
HETATM   13  C21 UNL     1      16.919  43.568 101.701  1.00  0.00     0.259 C 
HETATM   14  O5  UNL     1      15.790  43.991 102.058  1.00  0.00    -0.267 OA
HETATM   15  N10 UNL     1      17.755  44.362 100.873  1.00  0.00    -0.346 N 
ATOM     16  H10 UNL     1      17.296  45.180 100.474  1.00  0.00     0.163 HD
ENDROOT
BRANCH   8  17
HETATM   17  N5  UNL     1      17.798  38.502 103.639  1.00  0.00    -0.140 N 
HETATM   18  C12 UNL     1      18.344  37.464 102.848  1.00  0.00     0.354 C 
HETATM   19  O1  UNL     1      19.572  37.512 102.581  1.00  0.00    -0.244 OA
HETATM   20  N6  UNL     1      17.503  36.390 102.369  1.00  0.00    -0.250 N 
HETATM   21  C13 UNL     1      16.110  36.407 102.690  1.00  0.00     0.182 C 
ATOM     22  H5  UNL     1      17.547  38.300 104.607  1.00  0.00     0.189 HD
BRANCH  20  23
HETATM   23  N7  UNL     1      18.077  35.380 101.636  1.00  0.00    -0.319 N 
ATOM     24  H7  UNL     1      18.715  34.704 102.056  1.00  0.00     0.181 HD
BRANCH  23  25
HETATM   25  C14 UNL     1      17.729  35.329 100.253  1.00  0.00     0.167 C 
HETATM   26  C15 UNL     1      18.900  35.884  99.447  1.00  0.00     0.042 C 
BRANCH  25  27
HETATM   27  C16 UNL     1      17.410  33.928  99.870  1.00  0.00     0.180 C 
HETATM   28  O2  UNL     1      18.292  33.115  99.708  1.00  0.00    -0.293 OA
BRANCH  27  29
HETATM   29  C17 UNL     1      15.978  33.563  99.698  1.00  0.00     0.213 C 
BRANCH  29  30
HETATM   30  O3  UNL     1      15.803  32.535  98.800  1.00  0.00    -0.386 OA
ATOM     31  H3  UNL     1      15.191  31.880  99.114  1.00  0.00     0.210 HD
ENDBRANCH  29  30
BRANCH  29  32
HETATM   32  C18 UNL     1      15.348  33.212 101.034  1.00  0.00     0.203 C 
BRANCH  32  33
HETATM   33  O4  UNL     1      16.316  32.810 101.957  1.00  0.00    -0.398 OA
ATOM     34  H4  UNL     1      17.101  32.505 101.517  1.00  0.00     0.209 HD
ENDBRANCH  32  33
ENDBRANCH  29  32
ENDBRANCH  27  29
ENDBRANCH  25  27
ENDBRANCH  23  25
ENDBRANCH  20  23
ENDBRANCH   8  17
BRANCH  11  35
HETATM   35  N9  UNL     1      14.998  42.022 102.452  1.00  0.00    -0.384 N 
ATOM     36  H92 UNL     1      14.182  41.445 102.654  1.00  0.00     0.157 HD
ATOM     37  H91 UNL     1      14.826  42.984 102.159  1.00  0.00     0.157 HD
ENDBRANCH  11  35
BRANCH   1  38
HETATM   38  C7  UNL     1      19.280  43.238  99.359  1.00  0.00     0.090 C 
BRANCH  38  39
HETATM   39  N2  UNL     1      19.827  43.707  98.162  1.00  0.00    -0.369 N 
HETATM   40  C6  UNL     1      19.651  42.907  97.009  1.00  0.00     0.147 C 
HETATM   41  C5  UNL     1      20.433  43.425  95.818  1.00  0.00     0.145 C 
HETATM   42  N1  UNL     1      21.805  43.696  96.161  1.00  0.00    -0.360 N 
HETATM   43  C23 UNL     1      22.118  44.289  97.425  1.00  0.00     0.169 C 
HETATM   44  C22 UNL     1      20.869  44.644  98.155  1.00  0.00     0.083 C 
BRANCH  42  45
HETATM   45  C4  UNL     1      22.811  43.350  95.209  1.00  0.00     0.126 A 
HETATM   46  C3  UNL     1      23.564  44.216  94.436  1.00  0.00     0.084 A 
HETATM   47  C2  UNL     1      24.419  43.464  93.661  1.00  0.00     0.076 A 
HETATM   48  C1  UNL     1      25.425  43.974  92.669  1.00  0.00     0.079 C 
HETATM   49  O6  UNL     1      24.176  42.212  93.967  1.00  0.00    -0.241 OA
HETATM   50  N11 UNL     1      23.242  42.123  94.868  1.00  0.00    -0.245 N 
ATOM     51  H11 UNL     1      22.889  41.249  95.260  1.00  0.00     0.196 HD
ENDBRANCH  42  45
ENDBRANCH  38  39
ENDBRANCH   1  38
TORSDOF 12
ENDMDL
MODEL 5
REMARK VINA RESULT: -9.876260437      3.712     11.113
REMARK  12 active torsions:
REMARK  status: ('A' for Active; 'I' for Inactive)
REMARK    1  A    between atoms: C4_4  and  N1_5 
REMARK    2  A    between atoms: N2_8  and  C7_9 
REMARK    3  A    between atoms: C7_9  and  C8_10 
REMARK    4  A    between atoms: C11_17  and  N5_18 
REMARK       I    between atoms: N5_18  and  C12_20 
REMARK       I    between atoms: C12_20  and  N6_22 
REMARK    5  A    between atoms: N6_22  and  N7_24 
REMARK    6  A    between atoms: N7_24  and  C14_26 
REMARK    7  A    between atoms: C14_26  and  C16_28 
REMARK    8  A    between atoms: C16_28  and  C17_30 
REMARK    9  A    between atoms: C17_30  and  O3_31 
REMARK   10  A    between atoms: C17_30  and  C18_33 
REMARK   11  A    between atoms: C18_33  and  O4_34 
REMARK   12  A    between atoms: C19_38  and  N9_39 
ROOT
HETATM    1  C8  UNL     1      16.445  38.317 101.471  1.00  0.00     0.141 C 
HETATM    2  C9  UNL     1      17.456  39.199 102.178  1.00  0.00     0.151 C 
HETATM    3  N3  UNL     1      17.683  40.455 101.530  1.00  0.00    -0.373 N 
ATOM      4  H3  UNL     1      17.555  41.270 102.130  1.00  0.00     0.161 HD
HETATM    5  C10 UNL     1      18.062  40.764 100.179  1.00  0.00     0.136 A 
HETATM    6  N4  UNL     1      18.383  42.022  99.970  1.00  0.00    -0.175 N 
ATOM      7  H4  UNL     1      18.343  42.683 100.746  1.00  0.00     0.186 HD
HETATM    8  C11 UNL     1      18.767  42.462  98.735  1.00  0.00     0.689 A 
HETATM    9  N8  UNL     1      18.805  41.554  97.739  1.00  0.00    -0.176 N 
ATOM     10  H8  UNL     1      19.092  41.874  96.815  1.00  0.00     0.186 HD
HETATM   11  C19 UNL     1      18.491  40.255  97.882  1.00  0.00     0.134 A 
HETATM   12  C20 UNL     1      18.106  39.834  99.141  1.00  0.00     0.120 A 
HETATM   13  C21 UNL     1      17.772  38.407  99.215  1.00  0.00     0.259 C 
HETATM   14  O5  UNL     1      18.273  37.712  98.294  1.00  0.00    -0.267 OA
HETATM   15  N10 UNL     1      16.962  37.804 100.212  1.00  0.00    -0.346 N 
ATOM     16  H10 UNL     1      16.696  36.841 100.010  1.00  0.00     0.163 HD
ENDROOT
BRANCH   8  17
HETATM   17  N5  UNL     1      19.073  43.706  98.570  1.00  0.00    -0.140 N 
HETATM   18  C12 UNL     1      19.886  44.157  97.503  1.00  0.00     0.354 C 
HETATM   19  O1  UNL     1      19.386  44.174  96.349  1.00  0.00    -0.244 OA
HETATM   20  N6  UNL     1      21.246  44.581  97.749  1.00  0.00    -0.250 N 
HETATM   21  C13 UNL     1      21.760  44.516  99.081  1.00  0.00     0.182 C 
ATOM     22  H5  UNL     1      18.713  44.391  99.235  1.00  0.00     0.189 HD
BRANCH  20  23
HETATM   23  N7  UNL     1      21.992  45.049  96.694  1.00  0.00    -0.319 N 
ATOM     24  H7  UNL     1      21.748  45.907  96.199  1.00  0.00     0.181 HD
BRANCH  23  25
HETATM   25  C14 UNL     1      23.127  44.266  96.329  1.00  0.00     0.167 C 
HETATM   26  C15 UNL     1      22.646  43.104  95.465  1.00  0.00     0.042 C 
BRANCH  25  27
HETATM   27  C16 UNL     1      24.111  45.119  95.610  1.00  0.00     0.180 C 
HETATM   28  O2  UNL     1      24.890  45.814  96.222  1.00  0.00    -0.293 OA
BRANCH  27  29
HETATM   29  C17 UNL     1      24.104  45.085  94.123  1.00  0.00     0.213 C 
BRANCH  29  30
HETATM   30  O3  UNL     1      23.920  46.332  93.570  1.00  0.00    -0.386 OA
ATOM     31  H3  UNL     1      24.292  46.400  92.699  1.00  0.00     0.210 HD
ENDBRANCH  29  30
BRANCH  29  32
HETATM   32  C18 UNL     1      25.380  44.454  93.593  1.00  0.00     0.203 C 
BRANCH  32  33
HETATM   33  O4  UNL     1      25.881  43.507  94.489  1.00  0.00    -0.398 OA
ATOM     34  H4  UNL     1      26.591  43.869  95.006  1.00  0.00     0.209 HD
ENDBRANCH  32  33
ENDBRANCH  29  32
ENDBRANCH  27  29
ENDBRANCH  25  27
ENDBRANCH  23  25
ENDBRANCH  20  23
ENDBRANCH   8  17
BRANCH  11  35
HETATM   35  N9  UNL     1      18.523  39.381  96.949  1.00  0.00    -0.384 N 
ATOM     36  H92 UNL     1      17.735  39.351  96.302  1.00  0.00     0.157 HD
ATOM     37  H91 UNL     1      19.275  38.708  96.798  1.00  0.00     0.157 HD
ENDBRANCH  11  35
BRANCH   1  38
HETATM   38  C7  UNL     1      15.207  39.131 101.229  1.00  0.00     0.090 C 
BRANCH  38  39
HETATM   39  N2  UNL     1      14.318  39.288 102.295  1.00  0.00    -0.369 N 
HETATM   40  C6  UNL     1      13.255  38.362 102.398  1.00  0.00     0.147 C 
HETATM   41  C5  UNL     1      12.262  38.733 103.482  1.00  0.00     0.145 C 
HETATM   42  N1  UNL     1      11.855  40.111 103.379  1.00  0.00    -0.360 N 
HETATM   43  C23 UNL     1      12.818  41.112 103.037  1.00  0.00     0.169 C 
HETATM   44  C22 UNL     1      14.180  40.516 102.955  1.00  0.00     0.083 C 
BRANCH  42  45
HETATM   45  C4  UNL     1      10.483  40.420 103.623  1.00  0.00     0.126 A 
HETATM   46  C3  UNL     1       9.500  39.560 104.080  1.00  0.00     0.084 A 
HETATM   47  C2  UNL     1       8.325  40.270 104.180  1.00  0.00     0.076 A 
HETATM   48  C1  UNL     1       6.991  39.750 104.636  1.00  0.00     0.079 C 
HETATM   49  O6  UNL     1       8.607  41.493 103.798  1.00  0.00    -0.241 OA
HETATM   50  N11 UNL     1       9.861  41.602 103.470  1.00  0.00    -0.245 N 
ATOM     51  H11 UNL     1      10.306  42.460 103.143  1.00  0.00     0.196 HD
ENDBRANCH  42  45
ENDBRANCH  38  39
ENDBRANCH   1  38
TORSDOF 12
ENDMDL
