MODEL 1
REMARK VINA RESULT: -4.795564798      0.000      0.000
REMARK  4 active torsions:
REMARK  status: ('A' for Active; 'I' for Inactive)
REMARK    1  A    between atoms: N1_2  and  C2_4 
REMARK    2  A    between atoms: C2_4  and  C3_5 
REMARK    3  A    between atoms: C3_5  and  N2_6 
REMARK    4  A    between atoms: N2_6  and  C4_8 
ROOT
HETATM    1  C4  UNL     1      34.166  -1.020  38.739  1.00  0.00     0.677 A 
HETATM    2  N3  UNL     1      34.492  -1.723  37.647  1.00  0.00    -0.201 N 
ATOM      3  H3  UNL     1      35.240  -1.502  36.990  1.00  0.00     0.183 HD
HETATM    4  C5  UNL     1      33.657  -2.769  37.571  1.00  0.00     0.123 A 
HETATM    5  C6  UNL     1      32.814  -2.687  38.642  1.00  0.00     0.123 A 
HETATM    6  N4  UNL     1      33.131  -1.602  39.366  1.00  0.00    -0.201 N 
ATOM      7  H4  UNL     1      32.676  -1.283  40.222  1.00  0.00     0.183 HD
ENDROOT
BRANCH   1   8
HETATM    8  N2  UNL     1      34.778   0.075  39.125  1.00  0.00    -0.224 N 
ATOM      9  H2  UNL     1      34.246   0.919  39.337  1.00  0.00     0.177 HD
BRANCH   8  10
HETATM   10  C3  UNL     1      36.215   0.066  39.245  1.00  0.00     0.157 C 
BRANCH  10  11
HETATM   11  C2  UNL     1      36.624  -0.871  40.376  1.00  0.00     0.138 C 
BRANCH  11  12
HETATM   12  N1  UNL     1      37.412  -1.950  39.919  1.00  0.00    -0.406 N 
HETATM   13  C1  UNL     1      37.783  -2.142  38.726  1.00  0.00     0.112 C 
ATOM     14  H1  UNL     1      37.708  -2.637  40.613  1.00  0.00     0.158 HD
ENDBRANCH  11  12
ENDBRANCH  10  11
ENDBRANCH   8  10
ENDBRANCH   1   8
TORSDOF 4
ENDMDL
MODEL 2
REMARK VINA RESULT: -4.788407010      0.068      1.158
REMARK  4 active torsions:
REMARK  status: ('A' for Active; 'I' for Inactive)
REMARK    1  A    between atoms: N1_2  and  C2_4 
REMARK    2  A    between atoms: C2_4  and  C3_5 
REMARK    3  A    between atoms: C3_5  and  N2_6 
REMARK    4  A    between atoms: N2_6  and  C4_8 
ROOT
HETATM    1  C4  UNL     1      34.163  -1.063  38.744  1.00  0.00     0.677 A 
HETATM    2  N3  UNL     1      33.092  -1.611  39.332  1.00  0.00    -0.201 N 
ATOM      3  H3  UNL     1      32.621  -1.263  40.167  1.00  0.00     0.183 HD
HETATM    4  C5  UNL     1      32.751  -2.698  38.626  1.00  0.00     0.123 A 
HETATM    5  C6  UNL     1      33.640  -2.801  37.594  1.00  0.00     0.123 A 
HETATM    6  N4  UNL     1      34.515  -1.786  37.668  1.00  0.00    -0.201 N 
ATOM      7  H4  UNL     1      35.292  -1.600  37.034  1.00  0.00     0.183 HD
ENDROOT
BRANCH   1   8
HETATM    8  N2  UNL     1      34.768   0.022  39.169  1.00  0.00    -0.224 N 
ATOM      9  H2  UNL     1      34.228   0.829  39.479  1.00  0.00     0.177 HD
BRANCH   8  10
HETATM   10  C3  UNL     1      36.209   0.053  39.192  1.00  0.00     0.157 C 
BRANCH  10  11
HETATM   11  C2  UNL     1      36.717  -0.779  40.363  1.00  0.00     0.138 C 
BRANCH  11  12
HETATM   12  N1  UNL     1      37.383  -1.951  39.939  1.00  0.00    -0.406 N 
HETATM   13  C1  UNL     1      37.803  -2.180  38.770  1.00  0.00     0.112 C 
ATOM     14  H1  UNL     1      37.538  -2.677  40.639  1.00  0.00     0.158 HD
ENDBRANCH  11  12
ENDBRANCH  10  11
ENDBRANCH   8  10
ENDBRANCH   1   8
TORSDOF 4
ENDMDL
MODEL 3
REMARK VINA RESULT: -4.602068697      0.752      1.012
REMARK  4 active torsions:
REMARK  status: ('A' for Active; 'I' for Inactive)
REMARK    1  A    between atoms: N1_2  and  C2_4 
REMARK    2  A    between atoms: C2_4  and  C3_5 
REMARK    3  A    between atoms: C3_5  and  N2_6 
REMARK    4  A    between atoms: N2_6  and  C4_8 
ROOT
HETATM    1  C4  UNL     1      34.286  -0.914  38.662  1.00  0.00     0.677 A 
HETATM    2  N3  UNL     1      34.449  -1.700  37.590  1.00  0.00    -0.201 N 
ATOM      3  H3  UNL     1      35.102  -1.542  36.822  1.00  0.00     0.183 HD
HETATM    4  C5  UNL     1      33.600  -2.730  37.707  1.00  0.00     0.123 A 
HETATM    5  C6  UNL     1      32.915  -2.554  38.875  1.00  0.00     0.123 A 
HETATM    6  N4  UNL     1      33.342  -1.427  39.467  1.00  0.00    -0.201 N 
ATOM      7  H4  UNL     1      33.014  -1.038  40.351  1.00  0.00     0.183 HD
ENDROOT
BRANCH   1   8
HETATM    8  N2  UNL     1      34.958   0.193  38.878  1.00  0.00    -0.224 N 
ATOM      9  H2  UNL     1      34.718   1.051  38.382  1.00  0.00     0.177 HD
BRANCH   8  10
HETATM   10  C3  UNL     1      36.042   0.176  39.829  1.00  0.00     0.157 C 
BRANCH  10  11
HETATM   11  C2  UNL     1      36.995  -0.965  39.492  1.00  0.00     0.138 C 
BRANCH  11  12
HETATM   12  N1  UNL     1      37.289  -1.767  40.618  1.00  0.00    -0.406 N 
HETATM   13  C1  UNL     1      36.478  -2.530  41.214  1.00  0.00     0.112 C 
ATOM     14  H1  UNL     1      38.241  -1.725  40.982  1.00  0.00     0.158 HD
ENDBRANCH  11  12
ENDBRANCH  10  11
ENDBRANCH   8  10
ENDBRANCH   1   8
TORSDOF 4
ENDMDL
MODEL 4
REMARK VINA RESULT: -4.587138456      0.752      1.535
REMARK  4 active torsions:
REMARK  status: ('A' for Active; 'I' for Inactive)
REMARK    1  A    between atoms: N1_2  and  C2_4 
REMARK    2  A    between atoms: C2_4  and  C3_5 
REMARK    3  A    between atoms: C3_5  and  N2_6 
REMARK    4  A    between atoms: N2_6  and  C4_8 
ROOT
HETATM    1  C4  UNL     1      34.291  -0.914  38.649  1.00  0.00     0.677 A 
HETATM    2  N3  UNL     1      33.330  -1.410  39.438  1.00  0.00    -0.201 N 
ATOM      3  H3  UNL     1      32.987  -0.993  40.303  1.00  0.00     0.183 HD
HETATM    4  C5  UNL     1      32.899  -2.553  38.887  1.00  0.00     0.123 A 
HETATM    5  C6  UNL     1      33.620  -2.744  37.743  1.00  0.00     0.123 A 
HETATM    6  N4  UNL     1      34.484  -1.726  37.596  1.00  0.00    -0.201 N 
ATOM      7  H4  UNL     1      35.152  -1.596  36.837  1.00  0.00     0.183 HD
ENDROOT
BRANCH   1   8
HETATM    8  N2  UNL     1      34.941   0.202  38.884  1.00  0.00    -0.224 N 
ATOM      9  H2  UNL     1      34.684   1.063  38.402  1.00  0.00     0.177 HD
BRANCH   8  10
HETATM   10  C3  UNL     1      36.025   0.191  39.835  1.00  0.00     0.157 C 
BRANCH  10  11
HETATM   11  C2  UNL     1      36.980  -0.949  39.503  1.00  0.00     0.138 C 
BRANCH  11  12
HETATM   12  N1  UNL     1      37.280  -1.743  40.633  1.00  0.00    -0.406 N 
HETATM   13  C1  UNL     1      36.475  -2.514  41.229  1.00  0.00     0.112 C 
ATOM     14  H1  UNL     1      38.230  -1.689  41.000  1.00  0.00     0.158 HD
ENDBRANCH  11  12
ENDBRANCH  10  11
ENDBRANCH   8  10
ENDBRANCH   1   8
TORSDOF 4
ENDMDL
MODEL 5
REMARK VINA RESULT: -3.990084440      1.244      1.336
REMARK  4 active torsions:
REMARK  status: ('A' for Active; 'I' for Inactive)
REMARK    1  A    between atoms: N1_2  and  C2_4 
REMARK    2  A    between atoms: C2_4  and  C3_5 
REMARK    3  A    between atoms: C3_5  and  N2_6 
REMARK    4  A    between atoms: N2_6  and  C4_8 
ROOT
HETATM    1  C4  UNL     1      34.127  -1.919  39.489  1.00  0.00     0.677 A 
HETATM    2  N3  UNL     1      34.515  -2.772  38.532  1.00  0.00    -0.201 N 
ATOM      3  H3  UNL     1      35.466  -3.103  38.370  1.00  0.00     0.183 HD
HETATM    4  C5  UNL     1      33.428  -3.114  37.826  1.00  0.00     0.123 A 
HETATM    5  C6  UNL     1      32.368  -2.449  38.374  1.00  0.00     0.123 A 
HETATM    6  N4  UNL     1      32.804  -1.708  39.406  1.00  0.00    -0.201 N 
ATOM      7  H4  UNL     1      32.241  -1.105  40.006  1.00  0.00     0.183 HD
ENDROOT
BRANCH   1   8
HETATM    8  N2  UNL     1      34.936  -1.378  40.370  1.00  0.00    -0.224 N 
ATOM      9  H2  UNL     1      34.794  -0.417  40.681  1.00  0.00     0.177 HD
BRANCH   8  10
HETATM   10  C3  UNL     1      36.026  -2.163  40.892  1.00  0.00     0.157 C 
BRANCH  10  11
HETATM   11  C2  UNL     1      37.349  -1.585  40.402  1.00  0.00     0.138 C 
BRANCH  11  12
HETATM   12  N1  UNL     1      37.769  -2.165  39.184  1.00  0.00    -0.406 N 
HETATM   13  C1  UNL     1      37.756  -1.601  38.053  1.00  0.00     0.112 C 
ATOM     14  H1  UNL     1      38.113  -3.125  39.221  1.00  0.00     0.158 HD
ENDBRANCH  11  12
ENDBRANCH  10  11
ENDBRANCH   8  10
ENDBRANCH   1   8
TORSDOF 4
ENDMDL
