MODEL 1
REMARK VINA RESULT: -7.094215583      0.000      0.000
REMARK  9 active torsions:
REMARK  status: ('A' for Active; 'I' for Inactive)
REMARK    1  A    between atoms: S1_2  and  C2_3 
REMARK    2  A    between atoms: C5_6  and  C6_7 
REMARK    3  A    between atoms: C6_7  and  C7_10 
REMARK    4  A    between atoms: C7_10  and  C8_13 
REMARK    5  A    between atoms: C9_15  and  C10_16 
REMARK    6  A    between atoms: C10_16  and  O2_17 
REMARK    7  A    between atoms: C11_19  and  O3_20 
REMARK    8  A    between atoms: C12_22  and  O4_23 
REMARK    9  A    between atoms: C13_25  and  O5_26 
ROOT
HETATM    1  C8  UNL     1      32.490  51.801  47.873  1.00  0.00     0.198 C 
HETATM    2  O1  UNL     1      33.299  52.753  47.308  1.00  0.00    -0.370 OA
HETATM    3  C9  UNL     1      34.480  53.023  47.927  1.00  0.00     0.177 C 
HETATM    4  C11 UNL     1      34.435  53.347  49.375  1.00  0.00     0.180 C 
HETATM    5  C12 UNL     1      33.436  52.504  50.091  1.00  0.00     0.180 C 
HETATM    6  C13 UNL     1      32.773  51.448  49.281  1.00  0.00     0.181 C 
ENDROOT
BRANCH   1   7
HETATM    7  C7  UNL     1      31.032  52.160  47.597  1.00  0.00     0.211 C 
HETATM    8 CL1  UNL     1      31.101  53.496  46.357  1.00  0.00    -0.092 Cl
HETATM    9 CL2  UNL     1      30.233  52.917  48.984  1.00  0.00    -0.092 Cl
BRANCH   7  10
HETATM   10  C6  UNL     1      30.285  51.080  46.931  1.00  0.00     0.308 C 
HETATM   11  F1  UNL     1      30.938  50.866  45.691  1.00  0.00    -0.197 F 
HETATM   12  F2  UNL     1      29.050  51.619  46.532  1.00  0.00    -0.197 F 
BRANCH  10  13
HETATM   13  C5  UNL     1      30.100  49.804  47.580  1.00  0.00     0.016 A 
HETATM   14  C4  UNL     1      29.021  49.652  48.472  1.00  0.00     0.014 A 
HETATM   15  C3  UNL     1      28.770  48.471  49.116  1.00  0.00     0.019 A 
HETATM   16  C2  UNL     1      29.576  47.347  48.922  1.00  0.00    -0.000 A 
HETATM   17  C15 UNL     1      30.631  47.479  48.057  1.00  0.00     0.019 A 
HETATM   18  C14 UNL     1      30.872  48.698  47.406  1.00  0.00     0.014 A 
BRANCH  16  19
HETATM   19  S1  UNL     1      29.216  45.808  49.755  1.00  0.00    -0.134 SA
HETATM   20  C1  UNL     1      27.632  45.178  49.152  1.00  0.00     0.095 C 
ENDBRANCH  16  19
ENDBRANCH  10  13
ENDBRANCH   7  10
ENDBRANCH   1   7
BRANCH   6  21
HETATM   21  O5  UNL     1      33.495  50.251  49.349  1.00  0.00    -0.390 OA
ATOM     22  H5  UNL     1      33.452  49.887  50.225  1.00  0.00     0.210 HD
ENDBRANCH   6  21
BRANCH   3  23
HETATM   23  C10 UNL     1      35.054  54.263  47.210  1.00  0.00     0.198 C 
BRANCH  23  24
HETATM   24  O2  UNL     1      34.447  54.488  45.993  1.00  0.00    -0.398 OA
ATOM     25  H2  UNL     1      34.581  55.376  45.683  1.00  0.00     0.209 HD
ENDBRANCH  23  24
ENDBRANCH   3  23
BRANCH   5  26
HETATM   26  O4  UNL     1      34.043  51.839  51.182  1.00  0.00    -0.390 OA
ATOM     27  H4  UNL     1      34.662  51.190  50.870  1.00  0.00     0.210 HD
ENDBRANCH   5  26
BRANCH   4  28
HETATM   28  O3  UNL     1      34.163  54.719  49.549  1.00  0.00    -0.390 OA
ATOM     29  H3  UNL     1      33.471  54.831  50.190  1.00  0.00     0.210 HD
ENDBRANCH   4  28
TORSDOF 9
ENDMDL
MODEL 2
REMARK VINA RESULT: -7.017661696      1.876      2.526
REMARK  9 active torsions:
REMARK  status: ('A' for Active; 'I' for Inactive)
REMARK    1  A    between atoms: S1_2  and  C2_3 
REMARK    2  A    between atoms: C5_6  and  C6_7 
REMARK    3  A    between atoms: C6_7  and  C7_10 
REMARK    4  A    between atoms: C7_10  and  C8_13 
REMARK    5  A    between atoms: C9_15  and  C10_16 
REMARK    6  A    between atoms: C10_16  and  O2_17 
REMARK    7  A    between atoms: C11_19  and  O3_20 
REMARK    8  A    between atoms: C12_22  and  O4_23 
REMARK    9  A    between atoms: C13_25  and  O5_26 
ROOT
HETATM    1  C8  UNL     1      33.099  51.144  49.129  1.00  0.00     0.198 C 
HETATM    2  O1  UNL     1      34.075  50.865  48.207  1.00  0.00    -0.370 OA
HETATM    3  C9  UNL     1      35.205  51.618  48.239  1.00  0.00     0.177 C 
HETATM    4  C11 UNL     1      35.045  53.095  48.213  1.00  0.00     0.180 C 
HETATM    5  C12 UNL     1      33.878  53.530  49.032  1.00  0.00     0.180 C 
HETATM    6  C13 UNL     1      33.183  52.462  49.797  1.00  0.00     0.181 C 
ENDROOT
BRANCH   1   7
HETATM    7  C7  UNL     1      31.733  50.837  48.517  1.00  0.00     0.211 C 
HETATM    8 CL1  UNL     1      31.807  51.527  46.830  1.00  0.00    -0.092 Cl
HETATM    9 CL2  UNL     1      30.415  51.739  49.281  1.00  0.00    -0.092 Cl
BRANCH   7  10
HETATM   10  C6  UNL     1      31.500  49.398  48.315  1.00  0.00     0.308 C 
HETATM   11  F1  UNL     1      32.372  48.734  49.214  1.00  0.00    -0.197 F 
HETATM   12  F2  UNL     1      32.047  49.064  47.064  1.00  0.00    -0.197 F 
BRANCH  10  13
HETATM   13  C5  UNL     1      30.177  48.839  48.460  1.00  0.00     0.016 A 
HETATM   14  C4  UNL     1      29.293  48.908  47.367  1.00  0.00     0.014 A 
HETATM   15  C3  UNL     1      28.027  48.390  47.420  1.00  0.00     0.019 A 
HETATM   16  C2  UNL     1      27.542  47.761  48.569  1.00  0.00    -0.000 A 
HETATM   17  C15 UNL     1      28.392  47.686  49.643  1.00  0.00     0.019 A 
HETATM   18  C14 UNL     1      29.685  48.223  49.569  1.00  0.00     0.014 A 
BRANCH  16  19
HETATM   19  S1  UNL     1      25.895  47.071  48.609  1.00  0.00    -0.134 SA
HETATM   20  C1  UNL     1      25.987  45.388  49.265  1.00  0.00     0.095 C 
ENDBRANCH  16  19
ENDBRANCH  10  13
ENDBRANCH   7  10
ENDBRANCH   1   7
BRANCH   6  21
HETATM   21  O5  UNL     1      33.740  52.327  51.073  1.00  0.00    -0.390 OA
ATOM     22  H5  UNL     1      34.584  51.893  51.022  1.00  0.00     0.210 HD
ENDBRANCH   6  21
BRANCH   3  23
HETATM   23  C10 UNL     1      36.002  51.233  46.975  1.00  0.00     0.198 C 
BRANCH  23  24
HETATM   24  O2  UNL     1      35.246  50.494  46.090  1.00  0.00    -0.398 OA
ATOM     25  H2  UNL     1      35.615  49.632  45.937  1.00  0.00     0.209 HD
ENDBRANCH  23  24
ENDBRANCH   3  23
BRANCH   5  26
HETATM   26  O4  UNL     1      34.278  54.497  49.984  1.00  0.00    -0.390 OA
ATOM     27  H4  UNL     1      35.120  54.867  49.746  1.00  0.00     0.210 HD
ENDBRANCH   5  26
BRANCH   4  28
HETATM   28  O3  UNL     1      34.926  53.538  46.880  1.00  0.00    -0.390 OA
ATOM     29  H3  UNL     1      34.326  54.273  46.838  1.00  0.00     0.210 HD
ENDBRANCH   4  28
TORSDOF 9
ENDMDL
MODEL 3
REMARK VINA RESULT: -7.002837784      2.751      3.677
REMARK  9 active torsions:
REMARK  status: ('A' for Active; 'I' for Inactive)
REMARK    1  A    between atoms: S1_2  and  C2_3 
REMARK    2  A    between atoms: C5_6  and  C6_7 
REMARK    3  A    between atoms: C6_7  and  C7_10 
REMARK    4  A    between atoms: C7_10  and  C8_13 
REMARK    5  A    between atoms: C9_15  and  C10_16 
REMARK    6  A    between atoms: C10_16  and  O2_17 
REMARK    7  A    between atoms: C11_19  and  O3_20 
REMARK    8  A    between atoms: C12_22  and  O4_23 
REMARK    9  A    between atoms: C13_25  and  O5_26 
ROOT
HETATM    1  C8  UNL     1      32.521  51.848  48.079  1.00  0.00     0.198 C 
HETATM    2  O1  UNL     1      33.308  52.773  47.441  1.00  0.00    -0.370 OA
HETATM    3  C9  UNL     1      34.460  53.149  48.056  1.00  0.00     0.177 C 
HETATM    4  C11 UNL     1      34.366  53.611  49.464  1.00  0.00     0.180 C 
HETATM    5  C12 UNL     1      33.381  52.803  50.237  1.00  0.00     0.180 C 
HETATM    6  C13 UNL     1      32.781  51.646  49.521  1.00  0.00     0.181 C 
ENDROOT
BRANCH   1   7
HETATM    7  C7  UNL     1      31.057  52.120  47.737  1.00  0.00     0.211 C 
HETATM    8 CL1  UNL     1      31.108  53.177  46.251  1.00  0.00    -0.092 Cl
HETATM    9 CL2  UNL     1      30.243  53.130  48.942  1.00  0.00    -0.092 Cl
BRANCH   7  10
HETATM   10  C6  UNL     1      30.330  50.914  47.305  1.00  0.00     0.308 C 
HETATM   11  F1  UNL     1      29.660  50.433  48.459  1.00  0.00    -0.197 F 
HETATM   12  F2  UNL     1      31.290  49.915  47.076  1.00  0.00    -0.197 F 
BRANCH  10  13
HETATM   13  C5  UNL     1      29.385  50.975  46.216  1.00  0.00     0.016 A 
HETATM   14  C4  UNL     1      29.604  50.163  45.088  1.00  0.00     0.014 A 
HETATM   15  C3  UNL     1      28.748  50.153  44.021  1.00  0.00     0.019 A 
HETATM   16  C2  UNL     1      27.603  50.954  43.993  1.00  0.00    -0.000 A 
HETATM   17  C15 UNL     1      27.377  51.752  45.085  1.00  0.00     0.019 A 
HETATM   18  C14 UNL     1      28.266  51.747  46.169  1.00  0.00     0.014 A 
BRANCH  16  19
HETATM   19  S1  UNL     1      26.487  50.907  42.600  1.00  0.00    -0.134 SA
HETATM   20  C1  UNL     1      27.434  50.525  41.108  1.00  0.00     0.095 C 
ENDBRANCH  16  19
ENDBRANCH  10  13
ENDBRANCH   7  10
ENDBRANCH   1   7
BRANCH   6  21
HETATM   21  O5  UNL     1      33.545  50.492  49.722  1.00  0.00    -0.390 OA
ATOM     22  H5  UNL     1      34.471  50.705  49.738  1.00  0.00     0.210 HD
ENDBRANCH   6  21
BRANCH   3  23
HETATM   23  C10 UNL     1      35.006  54.335  47.233  1.00  0.00     0.198 C 
BRANCH  23  24
HETATM   24  O2  UNL     1      34.446  54.396  45.974  1.00  0.00    -0.398 OA
ATOM     25  H2  UNL     1      35.094  54.285  45.288  1.00  0.00     0.209 HD
ENDBRANCH  23  24
ENDBRANCH   3  23
BRANCH   5  26
HETATM   26  O4  UNL     1      33.985  52.272  51.402  1.00  0.00    -0.390 OA
ATOM     27  H4  UNL     1      33.811  51.341  51.470  1.00  0.00     0.210 HD
ENDBRANCH   5  26
BRANCH   4  28
HETATM   28  O3  UNL     1      34.038  54.981  49.496  1.00  0.00    -0.390 OA
ATOM     29  H3  UNL     1      34.726  55.487  49.080  1.00  0.00     0.210 HD
ENDBRANCH   4  28
TORSDOF 9
ENDMDL
MODEL 4
REMARK VINA RESULT: -6.905080005      2.358      2.911
REMARK  9 active torsions:
REMARK  status: ('A' for Active; 'I' for Inactive)
REMARK    1  A    between atoms: S1_2  and  C2_3 
REMARK    2  A    between atoms: C5_6  and  C6_7 
REMARK    3  A    between atoms: C6_7  and  C7_10 
REMARK    4  A    between atoms: C7_10  and  C8_13 
REMARK    5  A    between atoms: C9_15  and  C10_16 
REMARK    6  A    between atoms: C10_16  and  O2_17 
REMARK    7  A    between atoms: C11_19  and  O3_20 
REMARK    8  A    between atoms: C12_22  and  O4_23 
REMARK    9  A    between atoms: C13_25  and  O5_26 
ROOT
HETATM    1  C8  UNL     1      32.956  51.083  49.164  1.00  0.00     0.198 C 
HETATM    2  O1  UNL     1      33.921  50.792  48.234  1.00  0.00    -0.370 OA
HETATM    3  C9  UNL     1      35.067  51.522  48.266  1.00  0.00     0.177 C 
HETATM    4  C11 UNL     1      34.936  53.002  48.252  1.00  0.00     0.180 C 
HETATM    5  C12 UNL     1      33.783  53.454  49.082  1.00  0.00     0.180 C 
HETATM    6  C13 UNL     1      33.070  52.393  49.842  1.00  0.00     0.181 C 
ENDROOT
BRANCH   1   7
HETATM    7  C7  UNL     1      31.581  50.809  48.557  1.00  0.00     0.211 C 
HETATM    8 CL1  UNL     1      31.814  50.998  46.757  1.00  0.00    -0.092 Cl
HETATM    9 CL2  UNL     1      30.388  52.055  48.957  1.00  0.00    -0.092 Cl
BRANCH   7  10
HETATM   10  C6  UNL     1      31.141  49.414  48.726  1.00  0.00     0.308 C 
HETATM   11  F1  UNL     1      30.766  49.289  50.087  1.00  0.00    -0.197 F 
HETATM   12  F2  UNL     1      32.291  48.609  48.655  1.00  0.00    -0.197 F 
BRANCH  10  13
HETATM   13  C5  UNL     1      30.085  48.871  47.906  1.00  0.00     0.016 A 
HETATM   14  C4  UNL     1      29.961  47.472  47.807  1.00  0.00     0.014 A 
HETATM   15  C3  UNL     1      28.979  46.879  47.061  1.00  0.00     0.019 A 
HETATM   16  C2  UNL     1      28.041  47.635  46.354  1.00  0.00    -0.000 A 
HETATM   17  C15 UNL     1      28.149  48.999  46.439  1.00  0.00     0.019 A 
HETATM   18  C14 UNL     1      29.163  49.588  47.209  1.00  0.00     0.014 A 
BRANCH  16  19
HETATM   19  S1  UNL     1      26.752  46.840  45.406  1.00  0.00    -0.134 SA
HETATM   20  C1  UNL     1      27.363  45.242  44.820  1.00  0.00     0.095 C 
ENDBRANCH  16  19
ENDBRANCH  10  13
ENDBRANCH   7  10
ENDBRANCH   1   7
BRANCH   6  21
HETATM   21  O5  UNL     1      33.632  52.237  51.114  1.00  0.00    -0.390 OA
ATOM     22  H5  UNL     1      33.548  53.039  51.614  1.00  0.00     0.210 HD
ENDBRANCH   6  21
BRANCH   3  23
HETATM   23  C10 UNL     1      35.848  51.132  46.994  1.00  0.00     0.198 C 
BRANCH  23  24
HETATM   24  O2  UNL     1      35.051  50.491  46.070  1.00  0.00    -0.398 OA
ATOM     25  H2  UNL     1      35.493  50.368  45.238  1.00  0.00     0.209 HD
ENDBRANCH  23  24
ENDBRANCH   3  23
BRANCH   5  26
HETATM   26  O4  UNL     1      34.208  54.405  50.040  1.00  0.00    -0.390 OA
ATOM     27  H4  UNL     1      34.859  54.024  50.616  1.00  0.00     0.210 HD
ENDBRANCH   5  26
BRANCH   4  28
HETATM   28  O3  UNL     1      34.819  53.458  46.924  1.00  0.00    -0.390 OA
ATOM     29  H3  UNL     1      35.174  54.337  46.854  1.00  0.00     0.210 HD
ENDBRANCH   4  28
TORSDOF 9
ENDMDL
MODEL 5
REMARK VINA RESULT: -6.779378502      2.076      2.625
REMARK  9 active torsions:
REMARK  status: ('A' for Active; 'I' for Inactive)
REMARK    1  A    between atoms: S1_2  and  C2_3 
REMARK    2  A    between atoms: C5_6  and  C6_7 
REMARK    3  A    between atoms: C6_7  and  C7_10 
REMARK    4  A    between atoms: C7_10  and  C8_13 
REMARK    5  A    between atoms: C9_15  and  C10_16 
REMARK    6  A    between atoms: C10_16  and  O2_17 
REMARK    7  A    between atoms: C11_19  and  O3_20 
REMARK    8  A    between atoms: C12_22  and  O4_23 
REMARK    9  A    between atoms: C13_25  and  O5_26 
ROOT
HETATM    1  C8  UNL     1      32.931  50.993  49.057  1.00  0.00     0.198 C 
HETATM    2  O1  UNL     1      33.901  50.722  48.127  1.00  0.00    -0.370 OA
HETATM    3  C9  UNL     1      35.078  51.394  48.229  1.00  0.00     0.177 C 
HETATM    4  C11 UNL     1      35.014  52.876  48.316  1.00  0.00     0.180 C 
HETATM    5  C12 UNL     1      33.865  53.323  49.154  1.00  0.00     0.180 C 
HETATM    6  C13 UNL     1      33.090  52.246  49.827  1.00  0.00     0.181 C 
ENDROOT
BRANCH   1   7
HETATM    7  C7  UNL     1      31.559  50.825  48.408  1.00  0.00     0.211 C 
HETATM    8 CL1  UNL     1      31.771  51.414  46.695  1.00  0.00    -0.092 Cl
HETATM    9 CL2  UNL     1      30.339  51.918  49.080  1.00  0.00    -0.092 Cl
BRANCH   7  10
HETATM   10  C6  UNL     1      31.155  49.416  48.264  1.00  0.00     0.308 C 
HETATM   11  F1  UNL     1      31.774  48.724  49.336  1.00  0.00    -0.197 F 
HETATM   12  F2  UNL     1      31.835  48.906  47.145  1.00  0.00    -0.197 F 
BRANCH  10  13
HETATM   13  C5  UNL     1      29.759  49.050  48.225  1.00  0.00     0.016 A 
HETATM   14  C4  UNL     1      29.186  48.461  49.367  1.00  0.00     0.014 A 
HETATM   15  C3  UNL     1      27.867  48.098  49.414  1.00  0.00     0.019 A 
HETATM   16  C2  UNL     1      27.015  48.294  48.325  1.00  0.00    -0.000 A 
HETATM   17  C15 UNL     1      27.559  48.866  47.204  1.00  0.00     0.019 A 
HETATM   18  C14 UNL     1      28.913  49.231  47.176  1.00  0.00     0.014 A 
BRANCH  16  19
HETATM   19  S1  UNL     1      25.291  47.835  48.417  1.00  0.00    -0.134 SA
HETATM   20  C1  UNL     1      24.841  47.611  50.154  1.00  0.00     0.095 C 
ENDBRANCH  16  19
ENDBRANCH  10  13
ENDBRANCH   7  10
ENDBRANCH   1   7
BRANCH   6  21
HETATM   21  O5  UNL     1      33.618  51.977  51.094  1.00  0.00    -0.390 OA
ATOM     22  H5  UNL     1      33.907  52.781  51.510  1.00  0.00     0.210 HD
ENDBRANCH   6  21
BRANCH   3  23
HETATM   23  C10 UNL     1      35.867  51.056  46.948  1.00  0.00     0.198 C 
BRANCH  23  24
HETATM   24  O2  UNL     1      35.054  50.998  45.836  1.00  0.00    -0.398 OA
ATOM     25  H2  UNL     1      35.550  50.884  45.034  1.00  0.00     0.209 HD
ENDBRANCH  23  24
ENDBRANCH   3  23
BRANCH   5  26
HETATM   26  O4  UNL     1      34.312  54.185  50.183  1.00  0.00    -0.390 OA
ATOM     27  H4  UNL     1      35.252  54.307  50.128  1.00  0.00     0.210 HD
ENDBRANCH   5  26
BRANCH   4  28
HETATM   28  O3  UNL     1      34.945  53.427  47.021  1.00  0.00    -0.390 OA
ATOM     29  H3  UNL     1      35.283  54.315  47.031  1.00  0.00     0.210 HD
ENDBRANCH   4  28
TORSDOF 9
ENDMDL
