MODEL 1
REMARK VINA RESULT: -4.399906193      0.000      0.000
REMARK  3 active torsions:
REMARK  status: ('A' for Active; 'I' for Inactive)
REMARK    1  A    between atoms: C2_2  and  C3_3 
REMARK    2  A    between atoms: C3_3  and  N1_4 
REMARK    3  A    between atoms: C4_6  and  N2_7 
ROOT
HETATM    1  N1  UNL     1      20.839  12.780  58.851  1.00  0.00    -0.383 N 
ATOM      2  H1  UNL     1      20.203  13.523  59.141  1.00  0.00     0.160 HD
HETATM    3  C4  UNL     1      22.095  13.064  58.659  1.00  0.00     0.174 C 
ENDROOT
BRANCH   3   4
HETATM    4  N2  UNL     1      22.602  14.360  58.842  1.00  0.00    -0.377 N 
HETATM    5  C5  UNL     1      23.957  14.783  58.659  1.00  0.00     0.123 C 
HETATM    6  C6  UNL     1      23.784  16.129  57.977  1.00  0.00     0.021 C 
HETATM    7  C7  UNL     1      22.338  16.522  58.191  1.00  0.00     0.021 C 
HETATM    8  C8  UNL     1      21.884  15.532  59.248  1.00  0.00     0.123 C 
ENDBRANCH   3   4
BRANCH   1   9
HETATM    9  C3  UNL     1      20.319  11.444  58.662  1.00  0.00     0.147 C 
BRANCH   9  10
HETATM   10  C2  UNL     1      20.192  11.099  57.210  1.00  0.00    -0.018 C 
HETATM   11  C1  UNL     1      19.052  10.629  56.747  1.00  0.00     0.008 C 
ENDBRANCH   9  10
ENDBRANCH   1   9
TORSDOF 3
ENDMDL
MODEL 2
REMARK VINA RESULT: -4.298633720      0.758      1.418
REMARK  3 active torsions:
REMARK  status: ('A' for Active; 'I' for Inactive)
REMARK    1  A    between atoms: C2_2  and  C3_3 
REMARK    2  A    between atoms: C3_3  and  N1_4 
REMARK    3  A    between atoms: C4_6  and  N2_7 
ROOT
HETATM    1  N1  UNL     1      21.068  12.385  58.080  1.00  0.00    -0.383 N 
ATOM      2  H1  UNL     1      21.217  12.519  57.079  1.00  0.00     0.160 HD
HETATM    3  C4  UNL     1      21.574  13.246  58.914  1.00  0.00     0.174 C 
ENDROOT
BRANCH   3   4
HETATM    4  N2  UNL     1      22.316  14.357  58.480  1.00  0.00    -0.377 N 
HETATM    5  C5  UNL     1      21.875  15.717  58.437  1.00  0.00     0.123 C 
HETATM    6  C6  UNL     1      23.103  16.468  58.924  1.00  0.00     0.021 C 
HETATM    7  C7  UNL     1      24.255  15.492  58.826  1.00  0.00     0.021 C 
HETATM    8  C8  UNL     1      23.663  14.372  57.990  1.00  0.00     0.123 C 
ENDBRANCH   3   4
BRANCH   1   9
HETATM    9  C3  UNL     1      20.304  11.243  58.529  1.00  0.00     0.147 C 
BRANCH   9  10
HETATM   10  C2  UNL     1      19.887  10.370  57.385  1.00  0.00    -0.018 C 
HETATM   11  C1  UNL     1      18.921  10.765  56.581  1.00  0.00     0.008 C 
ENDBRANCH   9  10
ENDBRANCH   1   9
TORSDOF 3
ENDMDL
MODEL 3
REMARK VINA RESULT: -4.143519367      1.243      1.766
REMARK  3 active torsions:
REMARK  status: ('A' for Active; 'I' for Inactive)
REMARK    1  A    between atoms: C2_2  and  C3_3 
REMARK    2  A    between atoms: C3_3  and  N1_4 
REMARK    3  A    between atoms: C4_6  and  N2_7 
ROOT
HETATM    1  N1  UNL     1      21.152  13.206  58.865  1.00  0.00    -0.383 N 
ATOM      2  H1  UNL     1      20.627  13.962  58.427  1.00  0.00     0.160 HD
HETATM    3  C4  UNL     1      22.356  13.442  59.300  1.00  0.00     0.174 C 
ENDROOT
BRANCH   3   4
HETATM    4  N2  UNL     1      22.955  14.707  59.186  1.00  0.00    -0.377 N 
HETATM    5  C5  UNL     1      24.322  14.981  58.868  1.00  0.00     0.123 C 
HETATM    6  C6  UNL     1      24.201  16.165  57.925  1.00  0.00     0.021 C 
HETATM    7  C7  UNL     1      22.797  16.700  58.104  1.00  0.00     0.021 C 
HETATM    8  C8  UNL     1      22.335  15.987  59.362  1.00  0.00     0.123 C 
ENDBRANCH   3   4
BRANCH   1   9
HETATM    9  C3  UNL     1      20.538  11.902  58.984  1.00  0.00     0.147 C 
BRANCH   9  10
HETATM   10  C2  UNL     1      21.081  11.139  60.154  1.00  0.00    -0.018 C 
HETATM   11  C1  UNL     1      20.258  10.470  60.936  1.00  0.00     0.008 C 
ENDBRANCH   9  10
ENDBRANCH   1   9
TORSDOF 3
ENDMDL
MODEL 4
REMARK VINA RESULT: -4.135099080      3.561      4.170
REMARK  3 active torsions:
REMARK  status: ('A' for Active; 'I' for Inactive)
REMARK    1  A    between atoms: C2_2  and  C3_3 
REMARK    2  A    between atoms: C3_3  and  N1_4 
REMARK    3  A    between atoms: C4_6  and  N2_7 
ROOT
HETATM    1  N1  UNL     1      25.299  13.554  57.917  1.00  0.00    -0.383 N 
ATOM      2  H1  UNL     1      25.705  14.159  57.204  1.00  0.00     0.160 HD
HETATM    3  C4  UNL     1      24.427  14.051  58.745  1.00  0.00     0.174 C 
ENDROOT
BRANCH   3   4
HETATM    4  N2  UNL     1      24.026  15.396  58.686  1.00  0.00    -0.377 N 
HETATM    5  C5  UNL     1      24.739  16.476  58.077  1.00  0.00     0.123 C 
HETATM    6  C6  UNL     1      23.625  17.254  57.399  1.00  0.00     0.021 C 
HETATM    7  C7  UNL     1      22.335  16.759  58.014  1.00  0.00     0.021 C 
HETATM    8  C8  UNL     1      22.828  15.976  59.218  1.00  0.00     0.123 C 
ENDBRANCH   3   4
BRANCH   1   9
HETATM    9  C3  UNL     1      25.709  12.169  57.980  1.00  0.00     0.147 C 
BRANCH   9  10
HETATM   10  C2  UNL     1      26.545  11.893  59.192  1.00  0.00    -0.018 C 
HETATM   11  C1  UNL     1      26.124  11.030  60.094  1.00  0.00     0.008 C 
ENDBRANCH   9  10
ENDBRANCH   1   9
TORSDOF 3
ENDMDL
MODEL 5
REMARK VINA RESULT: -4.047402998      1.214      5.068
REMARK  3 active torsions:
REMARK  status: ('A' for Active; 'I' for Inactive)
REMARK    1  A    between atoms: C2_2  and  C3_3 
REMARK    2  A    between atoms: C3_3  and  N1_4 
REMARK    3  A    between atoms: C4_6  and  N2_7 
ROOT
HETATM    1  N1  UNL     1      22.061  15.202  58.368  1.00  0.00    -0.383 N 
ATOM      2  H1  UNL     1      21.053  15.069  58.456  1.00  0.00     0.160 HD
HETATM    3  C4  UNL     1      22.831  14.156  58.289  1.00  0.00     0.174 C 
ENDROOT
BRANCH   3   4
HETATM    4  N2  UNL     1      22.318  12.849  58.320  1.00  0.00    -0.377 N 
HETATM    5  C5  UNL     1      21.625  12.227  59.405  1.00  0.00     0.123 C 
HETATM    6  C6  UNL     1      20.519  11.471  58.689  1.00  0.00     0.021 C 
HETATM    7  C7  UNL     1      20.925  11.419  57.232  1.00  0.00     0.021 C 
HETATM    8  C8  UNL     1      22.376  11.862  57.282  1.00  0.00     0.123 C 
ENDBRANCH   3   4
BRANCH   1   9
HETATM    9  C3  UNL     1      22.591  16.547  58.336  1.00  0.00     0.147 C 
BRANCH   9  10
HETATM   10  C2  UNL     1      24.064  16.554  58.061  1.00  0.00    -0.018 C 
HETATM   11  C1  UNL     1      24.556  17.376  57.157  1.00  0.00     0.008 C 
ENDBRANCH   9  10
ENDBRANCH   1   9
TORSDOF 3
ENDMDL
