MODEL 1
REMARK VINA RESULT: -4.551441607      0.000      0.000
REMARK  2 active torsions:
REMARK  status: ('A' for Active; 'I' for Inactive)
REMARK    1  A    between atoms: N1_2  and  C2_5 
REMARK    2  A    between atoms: C2_5  and  C3_6 
ROOT
HETATM    1  C3  UNL     1      23.676  15.221  58.053  1.00  0.00     0.242 A 
HETATM    2  C4  UNL     1      24.118  14.393  59.241  1.00  0.00     0.273 A 
HETATM    3  N2  UNL     1      23.063  13.981  58.354  1.00  0.00    -0.058 N 
HETATM    4  C5  UNL     1      21.715  13.884  58.802  1.00  0.00     0.238 C 
HETATM    5  C6  UNL     1      21.643  12.440  59.291  1.00  0.00     0.029 C 
HETATM    6  C7  UNL     1      22.743  11.714  58.552  1.00  0.00     0.029 C 
HETATM    7  C8  UNL     1      23.326  12.783  57.616  1.00  0.00     0.238 C 
ENDROOT
BRANCH   1   8
HETATM    8  C2  UNL     1      23.034  16.519  58.413  1.00  0.00     0.267 C 
BRANCH   8   9
HETATM    9  N1  UNL     1      23.303  17.536  57.386  1.00  0.00    -0.077 N 
HETATM   10  C1  UNL     1      24.720  17.379  57.055  1.00  0.00     0.267 C 
ATOM     11  H12 UNL     1      23.047  18.483  57.667  1.00  0.00     0.276 HD
ATOM     12  H11 UNL     1      22.682  17.482  56.578  1.00  0.00     0.276 HD
ENDBRANCH   8   9
ENDBRANCH   1   8
TORSDOF 2
ENDMDL
MODEL 2
REMARK VINA RESULT: -4.425045895      1.071      1.090
REMARK  2 active torsions:
REMARK  status: ('A' for Active; 'I' for Inactive)
REMARK    1  A    between atoms: N1_2  and  C2_5 
REMARK    2  A    between atoms: C2_5  and  C3_6 
ROOT
HETATM    1  C3  UNL     1      24.291  14.332  58.193  1.00  0.00     0.242 A 
HETATM    2  C4  UNL     1      24.214  13.260  59.258  1.00  0.00     0.273 A 
HETATM    3  N2  UNL     1      23.202  13.430  58.250  1.00  0.00    -0.058 N 
HETATM    4  C5  UNL     1      21.882  13.845  58.588  1.00  0.00     0.238 C 
HETATM    5  C6  UNL     1      21.180  12.512  58.834  1.00  0.00     0.029 C 
HETATM    6  C7  UNL     1      21.982  11.492  58.060  1.00  0.00     0.029 C 
HETATM    7  C8  UNL     1      23.055  12.329  57.348  1.00  0.00     0.238 C 
ENDROOT
BRANCH   1   8
HETATM    8  C2  UNL     1      24.180  15.727  58.714  1.00  0.00     0.267 C 
BRANCH   8   9
HETATM    9  N1  UNL     1      25.241  16.577  58.156  1.00  0.00    -0.077 N 
HETATM   10  C1  UNL     1      24.573  17.419  57.162  1.00  0.00     0.267 C 
ATOM     11  H12 UNL     1      26.037  16.056  57.787  1.00  0.00     0.276 HD
ATOM     12  H11 UNL     1      25.761  17.104  58.860  1.00  0.00     0.276 HD
ENDBRANCH   8   9
ENDBRANCH   1   8
TORSDOF 2
ENDMDL
MODEL 3
REMARK VINA RESULT: -4.398514172      1.190      1.803
REMARK  2 active torsions:
REMARK  status: ('A' for Active; 'I' for Inactive)
REMARK    1  A    between atoms: N1_2  and  C2_5 
REMARK    2  A    between atoms: C2_5  and  C3_6 
ROOT
HETATM    1  C3  UNL     1      23.425  14.660  58.963  1.00  0.00     0.242 A 
HETATM    2  C4  UNL     1      21.959  14.815  58.622  1.00  0.00     0.273 A 
HETATM    3  N2  UNL     1      22.597  13.532  58.752  1.00  0.00    -0.058 N 
HETATM    4  C5  UNL     1      22.756  12.666  57.633  1.00  0.00     0.238 C 
HETATM    5  C6  UNL     1      21.470  11.846  57.676  1.00  0.00     0.029 C 
HETATM    6  C7  UNL     1      21.000  11.920  59.111  1.00  0.00     0.029 C 
HETATM    7  C8  UNL     1      22.104  12.717  59.820  1.00  0.00     0.238 C 
ENDROOT
BRANCH   1   8
HETATM    8  C2  UNL     1      24.359  15.155  57.909  1.00  0.00     0.267 C 
BRANCH   8   9
HETATM    9  N1  UNL     1      24.983  16.422  58.317  1.00  0.00    -0.077 N 
HETATM   10  C1  UNL     1      24.654  17.370  57.252  1.00  0.00     0.267 C 
ATOM     11  H12 UNL     1      25.982  16.346  58.508  1.00  0.00     0.276 HD
ATOM     12  H11 UNL     1      24.708  16.736  59.248  1.00  0.00     0.276 HD
ENDBRANCH   8   9
ENDBRANCH   1   8
TORSDOF 2
ENDMDL
MODEL 4
REMARK VINA RESULT: -4.286427517      1.090      1.531
REMARK  2 active torsions:
REMARK  status: ('A' for Active; 'I' for Inactive)
REMARK    1  A    between atoms: N1_2  and  C2_5 
REMARK    2  A    between atoms: C2_5  and  C3_6 
ROOT
HETATM    1  C3  UNL     1      23.409  15.437  59.171  1.00  0.00     0.242 A 
HETATM    2  C4  UNL     1      22.371  14.444  59.649  1.00  0.00     0.273 A 
HETATM    3  N2  UNL     1      23.555  14.050  58.933  1.00  0.00    -0.058 N 
HETATM    4  C5  UNL     1      23.478  13.485  57.628  1.00  0.00     0.238 C 
HETATM    5  C6  UNL     1      23.363  11.993  57.929  1.00  0.00     0.029 C 
HETATM    6  C7  UNL     1      23.962  11.819  59.305  1.00  0.00     0.029 C 
HETATM    7  C8  UNL     1      24.461  13.224  59.672  1.00  0.00     0.238 C 
ENDROOT
BRANCH   1   8
HETATM    8  C2  UNL     1      22.928  16.367  58.107  1.00  0.00     0.267 C 
BRANCH   8   9
HETATM    9  N1  UNL     1      23.776  17.566  58.040  1.00  0.00    -0.077 N 
HETATM   10  C1  UNL     1      24.845  17.225  57.101  1.00  0.00     0.267 C 
ATOM     11  H12 UNL     1      24.112  17.885  58.949  1.00  0.00     0.276 HD
ATOM     12  H11 UNL     1      23.269  18.417  57.796  1.00  0.00     0.276 HD
ENDBRANCH   8   9
ENDBRANCH   1   8
TORSDOF 2
ENDMDL
MODEL 5
REMARK VINA RESULT: -4.108096287      1.626      4.278
REMARK  2 active torsions:
REMARK  status: ('A' for Active; 'I' for Inactive)
REMARK    1  A    between atoms: N1_2  and  C2_5 
REMARK    2  A    between atoms: C2_5  and  C3_6 
ROOT
HETATM    1  C3  UNL     1      22.440  12.923  58.133  1.00  0.00     0.242 A 
HETATM    2  C4  UNL     1      22.832  13.372  59.524  1.00  0.00     0.273 A 
HETATM    3  N2  UNL     1      22.887  14.243  58.380  1.00  0.00    -0.058 N 
HETATM    4  C5  UNL     1      24.127  14.736  57.883  1.00  0.00     0.238 C 
HETATM    5  C6  UNL     1      24.296  16.032  58.671  1.00  0.00     0.029 C 
HETATM    6  C7  UNL     1      22.899  16.429  59.087  1.00  0.00     0.029 C 
HETATM    7  C8  UNL     1      22.003  15.367  58.433  1.00  0.00     0.238 C 
ENDROOT
BRANCH   1   8
HETATM    8  C2  UNL     1      23.340  11.889  57.543  1.00  0.00     0.267 C 
BRANCH   8   9
HETATM    9  N1  UNL     1      22.929  11.560  56.171  1.00  0.00    -0.077 N 
HETATM   10  C1  UNL     1      21.787  10.657  56.322  1.00  0.00     0.267 C 
ATOM     11  H12 UNL     1      23.681  11.181  55.595  1.00  0.00     0.276 HD
ATOM     12  H11 UNL     1      22.735  12.376  55.591  1.00  0.00     0.276 HD
ENDBRANCH   8   9
ENDBRANCH   1   8
TORSDOF 2
ENDMDL
