MODEL 1
REMARK VINA RESULT: -6.053833814      0.000      0.000
REMARK  4 active torsions:
REMARK  status: ('A' for Active; 'I' for Inactive)
REMARK    1  A    between atoms: C2_2  and  C3_3 
REMARK    2  A    between atoms: C3_3  and  C4_4 
REMARK    3  A    between atoms: C4_4  and  C5_5 
REMARK    4  A    between atoms: C5_5  and  N1_6 
ROOT
HETATM    1  N1  UNL     1     137.739 122.877  85.408  1.00  0.00    -0.326 N 
ATOM      2  H1  UNL     1     137.444 122.641  86.355  1.00  0.00     0.169 HD
HETATM    3  C6  UNL     1     137.228 122.301  84.345  1.00  0.00     0.219 C 
HETATM    4  N2  UNL     1     137.576 122.564  82.983  1.00  0.00    -0.354 N 
ATOM      5  H2  UNL     1     137.946 123.446  82.627  1.00  0.00     0.163 HD
HETATM    6  C7  UNL     1     137.314 121.355  82.175  1.00  0.00     0.150 C 
HETATM    7  C8  UNL     1     136.215 120.720  82.983  1.00  0.00     0.198 C 
HETATM    8  O1  UNL     1     136.247 121.313  84.272  1.00  0.00    -0.321 OA
ENDROOT
BRANCH   1   9
HETATM    9  C5  UNL     1     138.768 123.889  85.130  1.00  0.00     0.147 C 
BRANCH   9  10
HETATM   10  C4  UNL     1     138.950 124.897  86.028  1.00  0.00    -0.111 C 
BRANCH  10  11
HETATM   11  C3  UNL     1     139.123 125.864  86.890  1.00  0.00     0.056 C 
BRANCH  11  12
HETATM   12  C2  UNL     1     138.283 125.905  88.069  1.00  0.00    -0.002 C 
HETATM   13  C1  UNL     1     138.158 124.763  88.779  1.00  0.00     0.012 C 
ENDBRANCH  11  12
ENDBRANCH  10  11
ENDBRANCH   9  10
ENDBRANCH   1   9
TORSDOF 4
ENDMDL
MODEL 2
REMARK VINA RESULT: -5.775058290      1.363      1.474
REMARK  4 active torsions:
REMARK  status: ('A' for Active; 'I' for Inactive)
REMARK    1  A    between atoms: C2_2  and  C3_3 
REMARK    2  A    between atoms: C3_3  and  C4_4 
REMARK    3  A    between atoms: C4_4  and  C5_5 
REMARK    4  A    between atoms: C5_5  and  N1_6 
ROOT
HETATM    1  N1  UNL     1     138.599 124.151  84.038  1.00  0.00    -0.326 N 
ATOM      2  H1  UNL     1     138.752 125.040  83.563  1.00  0.00     0.169 HD
HETATM    3  C6  UNL     1     138.185 123.075  83.409  1.00  0.00     0.219 C 
HETATM    4  N2  UNL     1     137.943 121.791  83.988  1.00  0.00    -0.354 N 
ATOM      5  H2  UNL     1     138.397 121.423  84.825  1.00  0.00     0.163 HD
HETATM    6  C7  UNL     1     136.928 121.082  83.181  1.00  0.00     0.150 C 
HETATM    7  C8  UNL     1     137.156 121.717  81.836  1.00  0.00     0.198 C 
HETATM    8  O1  UNL     1     137.884 122.915  82.057  1.00  0.00    -0.321 OA
ENDROOT
BRANCH   1   9
HETATM    9  C5  UNL     1     138.824 123.977  85.481  1.00  0.00     0.147 C 
BRANCH   9  10
HETATM   10  C4  UNL     1     138.707 125.063  86.294  1.00  0.00    -0.111 C 
BRANCH  10  11
HETATM   11  C3  UNL     1     138.597 126.106  87.075  1.00  0.00     0.056 C 
BRANCH  11  12
HETATM   12  C2  UNL     1     138.321 125.896  88.481  1.00  0.00    -0.002 C 
HETATM   13  C1  UNL     1     137.830 124.689  88.842  1.00  0.00     0.012 C 
ENDBRANCH  11  12
ENDBRANCH  10  11
ENDBRANCH   9  10
ENDBRANCH   1   9
TORSDOF 4
ENDMDL
MODEL 3
REMARK VINA RESULT: -5.581540235      1.105      1.223
REMARK  4 active torsions:
REMARK  status: ('A' for Active; 'I' for Inactive)
REMARK    1  A    between atoms: C2_2  and  C3_3 
REMARK    2  A    between atoms: C3_3  and  C4_4 
REMARK    3  A    between atoms: C4_4  and  C5_5 
REMARK    4  A    between atoms: C5_5  and  N1_6 
ROOT
HETATM    1  N1  UNL     1     137.187 122.294  85.673  1.00  0.00    -0.326 N 
ATOM      2  H1  UNL     1     136.851 121.696  86.426  1.00  0.00     0.169 HD
HETATM    3  C6  UNL     1     136.988 122.014  84.405  1.00  0.00     0.219 C 
HETATM    4  N2  UNL     1     137.419 122.789  83.284  1.00  0.00    -0.354 N 
ATOM      5  H2  UNL     1     137.580 123.797  83.287  1.00  0.00     0.163 HD
HETATM    6  C7  UNL     1     137.596 121.896  82.120  1.00  0.00     0.150 C 
HETATM    7  C8  UNL     1     136.617 120.806  82.461  1.00  0.00     0.198 C 
HETATM    8  O1  UNL     1     136.327 120.922  83.845  1.00  0.00    -0.321 OA
ENDROOT
BRANCH   1   9
HETATM    9  C5  UNL     1     137.932 123.537  85.923  1.00  0.00     0.147 C 
BRANCH   9  10
HETATM   10  C4  UNL     1     137.695 124.217  87.078  1.00  0.00    -0.111 C 
BRANCH  10  11
HETATM   11  C3  UNL     1     137.469 124.870  88.188  1.00  0.00     0.056 C 
BRANCH  11  12
HETATM   12  C2  UNL     1     138.581 125.138  89.077  1.00  0.00    -0.002 C 
HETATM   13  C1  UNL     1     139.741 124.491  88.829  1.00  0.00     0.012 C 
ENDBRANCH  11  12
ENDBRANCH  10  11
ENDBRANCH   9  10
ENDBRANCH   1   9
TORSDOF 4
ENDMDL
MODEL 4
REMARK VINA RESULT: -5.236952677      1.997      5.400
REMARK  4 active torsions:
REMARK  status: ('A' for Active; 'I' for Inactive)
REMARK    1  A    between atoms: C2_2  and  C3_3 
REMARK    2  A    between atoms: C3_3  and  C4_4 
REMARK    3  A    between atoms: C4_4  and  C5_5 
REMARK    4  A    between atoms: C5_5  and  N1_6 
ROOT
HETATM    1  N1  UNL     1     138.281 123.413  85.577  1.00  0.00    -0.326 N 
ATOM      2  H1  UNL     1     137.828 122.512  85.731  1.00  0.00     0.169 HD
HETATM    3  C6  UNL     1     138.444 124.294  86.536  1.00  0.00     0.219 C 
HETATM    4  N2  UNL     1     139.063 125.578  86.416  1.00  0.00    -0.354 N 
ATOM      5  H2  UNL     1     139.776 125.830  85.731  1.00  0.00     0.163 HD
HETATM    6  C7  UNL     1     138.504 126.481  87.444  1.00  0.00     0.150 C 
HETATM    7  C8  UNL     1     138.111 125.483  88.500  1.00  0.00     0.198 C 
HETATM    8  O1  UNL     1     138.067 124.209  87.875  1.00  0.00    -0.321 OA
ENDROOT
BRANCH   1   9
HETATM    9  C5  UNL     1     138.799 123.822  84.263  1.00  0.00     0.147 C 
BRANCH   9  10
HETATM   10  C4  UNL     1     138.289 123.230  83.149  1.00  0.00    -0.111 C 
BRANCH  10  11
HETATM   11  C3  UNL     1     137.798 122.661  82.079  1.00  0.00     0.056 C 
BRANCH  11  12
HETATM   12  C2  UNL     1     137.232 121.333  82.195  1.00  0.00    -0.002 C 
HETATM   13  C1  UNL     1     136.565 121.042  83.333  1.00  0.00     0.012 C 
ENDBRANCH  11  12
ENDBRANCH  10  11
ENDBRANCH   9  10
ENDBRANCH   1   9
TORSDOF 4
ENDMDL
MODEL 5
REMARK VINA RESULT: -5.184739682      1.992      2.317
REMARK  4 active torsions:
REMARK  status: ('A' for Active; 'I' for Inactive)
REMARK    1  A    between atoms: C2_2  and  C3_3 
REMARK    2  A    between atoms: C3_3  and  C4_4 
REMARK    3  A    between atoms: C4_4  and  C5_5 
REMARK    4  A    between atoms: C5_5  and  N1_6 
ROOT
HETATM    1  N1  UNL     1     138.433 124.323  85.195  1.00  0.00    -0.326 N 
ATOM      2  H1  UNL     1     138.887 125.223  85.349  1.00  0.00     0.169 HD
HETATM    3  C6  UNL     1     138.460 123.708  84.035  1.00  0.00     0.219 C 
HETATM    4  N2  UNL     1     137.856 122.450  83.724  1.00  0.00    -0.354 N 
ATOM      5  H2  UNL     1     137.673 121.700  84.392  1.00  0.00     0.163 HD
HETATM    6  C7  UNL     1     137.541 122.410  82.281  1.00  0.00     0.150 C 
HETATM    7  C8  UNL     1     138.585 123.352  81.747  1.00  0.00     0.198 C 
HETATM    8  O1  UNL     1     139.063 124.113  82.845  1.00  0.00    -0.321 OA
ENDROOT
BRANCH   1   9
HETATM    9  C5  UNL     1     137.701 123.615  86.255  1.00  0.00     0.147 C 
BRANCH   9  10
HETATM   10  C4  UNL     1     137.602 124.199  87.480  1.00  0.00    -0.111 C 
BRANCH  10  11
HETATM   11  C3  UNL     1     137.509 124.761  88.657  1.00  0.00     0.056 C 
BRANCH  11  12
HETATM   12  C2  UNL     1     138.722 125.181  89.327  1.00  0.00    -0.002 C 
HETATM   13  C1  UNL     1     139.859 124.519  89.019  1.00  0.00     0.012 C 
ENDBRANCH  11  12
ENDBRANCH  10  11
ENDBRANCH   9  10
ENDBRANCH   1   9
TORSDOF 4
ENDMDL
