MODEL 1
REMARK VINA RESULT: -5.819173635      0.000      0.000
REMARK  3 active torsions:
REMARK  status: ('A' for Active; 'I' for Inactive)
REMARK    1  A    between atoms: C2_2  and  C3_3 
REMARK    2  A    between atoms: C4_4  and  C5_5 
REMARK    3  A    between atoms: C7_10  and  C8_11 
ROOT
HETATM    1  C5  UNL     1     139.033 123.163  84.878  1.00  0.00     0.036 C 
HETATM    2  C6  UNL     1     138.802 123.662  83.451  1.00  0.00     0.241 C 
HETATM    3  N1  UNL     1     137.393 123.368  83.260  1.00  0.00    -0.064 N 
ATOM      4  H11 UNL     1     137.094 123.393  82.285  1.00  0.00     0.278 HD
ATOM      5  H12 UNL     1     136.769 124.104  83.591  1.00  0.00     0.278 HD
HETATM    6  C7  UNL     1     137.182 122.070  83.913  1.00  0.00     0.247 C 
HETATM    7  C9  UNL     1     138.323 121.842  84.841  1.00  0.00     0.050 C 
ENDROOT
BRANCH   1   8
HETATM    8  C4  UNL     1     138.491 124.134  85.826  1.00  0.00    -0.020 C 
HETATM    9  C3  UNL     1     139.090 125.209  86.291  1.00  0.00    -0.004 C 
BRANCH   9  10
HETATM   10  C2  UNL     1     138.492 126.127  87.229  1.00  0.00    -0.011 C 
HETATM   11  C1  UNL     1     138.288 125.747  88.467  1.00  0.00     0.011 C 
ENDBRANCH   9  10
ENDBRANCH   1   8
BRANCH   6  12
HETATM   12  C8  UNL     1     137.045 121.010  82.888  1.00  0.00     0.264 C 
HETATM   13  O1  UNL     1     136.109 120.246  82.883  1.00  0.00    -0.305 OA
ENDBRANCH   6  12
TORSDOF 3
ENDMDL
MODEL 2
REMARK VINA RESULT: -4.946313819      1.164      1.445
REMARK  3 active torsions:
REMARK  status: ('A' for Active; 'I' for Inactive)
REMARK    1  A    between atoms: C2_2  and  C3_3 
REMARK    2  A    between atoms: C4_4  and  C5_5 
REMARK    3  A    between atoms: C7_10  and  C8_11 
ROOT
HETATM    1  C5  UNL     1     137.777 122.376  85.730  1.00  0.00     0.036 C 
HETATM    2  C6  UNL     1     139.057 122.255  84.900  1.00  0.00     0.241 C 
HETATM    3  N1  UNL     1     138.660 122.882  83.652  1.00  0.00    -0.064 N 
ATOM      4  H11 UNL     1     139.287 122.684  82.873  1.00  0.00     0.278 HD
ATOM      5  H12 UNL     1     138.779 123.895  83.643  1.00  0.00     0.278 HD
HETATM    6  C7  UNL     1     137.277 122.444  83.429  1.00  0.00     0.247 C 
HETATM    7  C9  UNL     1     136.743 121.954  84.729  1.00  0.00     0.050 C 
ENDROOT
BRANCH   1   8
HETATM    8  C4  UNL     1     137.645 123.746  86.222  1.00  0.00    -0.020 C 
HETATM    9  C3  UNL     1     137.480 124.129  87.469  1.00  0.00    -0.004 C 
BRANCH   9  10
HETATM   10  C2  UNL     1     137.355 125.505  87.884  1.00  0.00    -0.011 C 
HETATM   11  C1  UNL     1     138.189 126.401  87.415  1.00  0.00     0.011 C 
ENDBRANCH   9  10
ENDBRANCH   1   8
BRANCH   6  12
HETATM   12  C8  UNL     1     137.243 121.416  82.362  1.00  0.00     0.264 C 
HETATM   13  O1  UNL     1     136.893 120.281  82.582  1.00  0.00    -0.305 OA
ENDBRANCH   6  12
TORSDOF 3
ENDMDL
MODEL 3
REMARK VINA RESULT: -4.728100467      2.096      2.419
REMARK  3 active torsions:
REMARK  status: ('A' for Active; 'I' for Inactive)
REMARK    1  A    between atoms: C2_2  and  C3_3 
REMARK    2  A    between atoms: C4_4  and  C5_5 
REMARK    3  A    between atoms: C7_10  and  C8_11 
ROOT
HETATM    1  C5  UNL     1     137.716 122.404  85.260  1.00  0.00     0.036 C 
HETATM    2  C6  UNL     1     139.204 122.657  85.015  1.00  0.00     0.241 C 
HETATM    3  N1  UNL     1     139.172 123.885  84.240  1.00  0.00    -0.064 N 
ATOM      4  H11 UNL     1     140.047 124.092  83.760  1.00  0.00     0.278 HD
ATOM      5  H12 UNL     1     139.146 124.731  84.808  1.00  0.00     0.278 HD
HETATM    6  C7  UNL     1     138.021 123.736  83.341  1.00  0.00     0.247 C 
HETATM    7  C9  UNL     1     137.150 122.663  83.895  1.00  0.00     0.050 C 
ENDROOT
BRANCH   1   8
HETATM    8  C4  UNL     1     137.237 123.298  86.312  1.00  0.00    -0.020 C 
HETATM    9  C3  UNL     1     137.960 123.902  87.230  1.00  0.00    -0.004 C 
BRANCH   9  10
HETATM   10  C2  UNL     1     137.419 124.774  88.243  1.00  0.00    -0.011 C 
HETATM   11  C1  UNL     1     138.230 125.388  89.069  1.00  0.00     0.011 C 
ENDBRANCH   9  10
ENDBRANCH   1   8
BRANCH   6  12
HETATM   12  C8  UNL     1     138.492 123.451  81.966  1.00  0.00     0.264 C 
HETATM   13  O1  UNL     1     139.438 124.028  81.485  1.00  0.00    -0.305 OA
ENDBRANCH   6  12
TORSDOF 3
ENDMDL
MODEL 4
REMARK VINA RESULT: -4.533532948      2.979      5.285
REMARK  3 active torsions:
REMARK  status: ('A' for Active; 'I' for Inactive)
REMARK    1  A    between atoms: C2_2  and  C3_3 
REMARK    2  A    between atoms: C4_4  and  C5_5 
REMARK    3  A    between atoms: C7_10  and  C8_11 
ROOT
HETATM    1  C5  UNL     1     138.789 123.351  85.752  1.00  0.00     0.036 C 
HETATM    2  C6  UNL     1     138.020 123.311  87.074  1.00  0.00     0.241 C 
HETATM    3  N1  UNL     1     137.172 124.484  86.960  1.00  0.00    -0.064 N 
ATOM      4  H11 UNL     1     136.759 124.783  87.843  1.00  0.00     0.278 HD
ATOM      5  H12 UNL     1     136.293 124.312  86.472  1.00  0.00     0.278 HD
HETATM    6  C7  UNL     1     138.016 125.503  86.322  1.00  0.00     0.247 C 
HETATM    7  C9  UNL     1     139.161 124.803  85.678  1.00  0.00     0.050 C 
ENDROOT
BRANCH   1   8
HETATM    8  C4  UNL     1     137.925 122.875  84.674  1.00  0.00    -0.020 C 
HETATM    9  C3  UNL     1     137.216 121.767  84.655  1.00  0.00    -0.004 C 
BRANCH   9  10
HETATM   10  C2  UNL     1     136.383 121.357  83.553  1.00  0.00    -0.011 C 
HETATM   11  C1  UNL     1     136.931 120.819  82.491  1.00  0.00     0.011 C 
ENDBRANCH   9  10
ENDBRANCH   1   8
BRANCH   6  12
HETATM   12  C8  UNL     1     138.438 126.505  87.329  1.00  0.00     0.264 C 
HETATM   13  O1  UNL     1     138.153 126.393  88.497  1.00  0.00    -0.305 OA
ENDBRANCH   6  12
TORSDOF 3
ENDMDL
MODEL 5
REMARK VINA RESULT: -4.410414075      2.829      3.954
REMARK  3 active torsions:
REMARK  status: ('A' for Active; 'I' for Inactive)
REMARK    1  A    between atoms: C2_2  and  C3_3 
REMARK    2  A    between atoms: C4_4  and  C5_5 
REMARK    3  A    between atoms: C7_10  and  C8_11 
ROOT
HETATM    1  C5  UNL     1     138.544 125.455  87.742  1.00  0.00     0.036 C 
HETATM    2  C6  UNL     1     137.228 124.749  87.411  1.00  0.00     0.241 C 
HETATM    3  N1  UNL     1     137.687 123.618  86.625  1.00  0.00    -0.064 N 
ATOM      4  H11 UNL     1     136.949 123.158  86.094  1.00  0.00     0.278 HD
ATOM      5  H12 UNL     1     137.953 122.808  87.184  1.00  0.00     0.278 HD
HETATM    6  C7  UNL     1     138.775 124.150  85.794  1.00  0.00     0.247 C 
HETATM    7  C9  UNL     1     139.230 125.427  86.408  1.00  0.00     0.050 C 
ENDROOT
BRANCH   1   8
HETATM    8  C4  UNL     1     139.229 124.728  88.809  1.00  0.00    -0.020 C 
HETATM    9  C3  UNL     1     140.414 124.160  88.748  1.00  0.00    -0.004 C 
BRANCH   9  10
HETATM   10  C2  UNL     1     141.032 123.455  89.844  1.00  0.00    -0.011 C 
HETATM   11  C1  UNL     1     141.744 122.382  89.605  1.00  0.00     0.011 C 
ENDBRANCH   9  10
ENDBRANCH   1   8
BRANCH   6  12
HETATM   12  C8  UNL     1     138.306 124.310  84.398  1.00  0.00     0.264 C 
HETATM   13  O1  UNL     1     138.986 123.979  83.456  1.00  0.00    -0.305 OA
ENDBRANCH   6  12
TORSDOF 3
ENDMDL
