MODEL 1
REMARK VINA RESULT: -6.751048172      0.000      0.000
REMARK  12 active torsions:
REMARK  status: ('A' for Active; 'I' for Inactive)
REMARK    1  A    between atoms: C2_2  and  O1_5 
REMARK    2  A    between atoms: O1_5  and  C5_6 
REMARK    3  A    between atoms: C5_6  and  C6_8 
REMARK    4  A    between atoms: C10_12  and  C11_13 
REMARK    5  A    between atoms: C11_13  and  C12_14 
REMARK    6  A    between atoms: C12_14  and  C13_15 
REMARK    7  A    between atoms: C13_15  and  C14_16 
REMARK    8  A    between atoms: C14_16  and  C15_17 
REMARK    9  A    between atoms: C15_17  and  C16_18 
REMARK   10  A    between atoms: C16_18  and  C17_19 
REMARK   11  A    between atoms: C17_19  and  O3_20 
REMARK   12  A    between atoms: N1_22  and  O4_24 
ROOT
HETATM    1  C6  UNL     1      51.302  59.028  46.675  1.00  0.00     0.155 A 
HETATM    2  C7  UNL     1      50.168  58.182  47.119  1.00  0.00     0.043 A 
HETATM    3  C8  UNL     1      51.636  57.757  47.263  1.00  0.00     0.022 A 
HETATM    4  C9  UNL     1      52.170  56.758  46.357  1.00  0.00     0.027 C 
HETATM    5  C10 UNL     1      52.536  57.299  45.035  1.00  0.00     0.110 C 
HETATM    6  S1  UNL     1      51.742  58.894  44.961  1.00  0.00     0.167 S 
HETATM    7  O5  UNL     1      50.496  58.765  44.124  1.00  0.00    -0.226 OA
HETATM    8  O6  UNL     1      52.647  59.967  44.503  1.00  0.00    -0.226 OA
ENDROOT
BRANCH   5   9
HETATM    9  C11 UNL     1      52.047  56.439  43.879  1.00  0.00     0.020 C 
BRANCH   9  10
HETATM   10  C12 UNL     1      53.090  56.332  42.799  1.00  0.00     0.001 C 
BRANCH  10  11
HETATM   11  C13 UNL     1      52.469  55.805  41.543  1.00  0.00     0.000 C 
BRANCH  11  12
HETATM   12  C14 UNL     1      51.030  55.420  41.733  1.00  0.00     0.000 C 
BRANCH  12  13
HETATM   13  C15 UNL     1      50.185  56.023  40.655  1.00  0.00     0.008 C 
BRANCH  13  14
HETATM   14  C16 UNL     1      50.582  57.372  40.176  1.00  0.00     0.086 C 
BRANCH  14  15
HETATM   15  C17 UNL     1      49.836  58.458  40.839  1.00  0.00     0.135 C 
HETATM   16  N1  UNL     1      50.464  59.467  41.403  1.00  0.00    -0.251 N 
ATOM     17  H1  UNL     1      49.942  60.215  41.860  1.00  0.00     0.196 HD
BRANCH  15  18
HETATM   18  O3  UNL     1      48.454  58.424  40.873  1.00  0.00    -0.348 OA
ATOM     19  H3  UNL     1      47.974  59.117  41.311  1.00  0.00     0.219 HD
ENDBRANCH  15  18
BRANCH  16  20
HETATM   20  O4  UNL     1      51.830  59.492  41.363  1.00  0.00    -0.288 OA
ATOM     21  H4  UNL     1      52.309  59.462  42.183  1.00  0.00     0.244 HD
ENDBRANCH  16  20
ENDBRANCH  14  15
ENDBRANCH  13  14
ENDBRANCH  12  13
ENDBRANCH  11  12
ENDBRANCH  10  11
ENDBRANCH   9  10
ENDBRANCH   5   9
BRANCH   1  22
HETATM   22  C5  UNL     1      51.663  60.255  47.412  1.00  0.00     0.283 C 
HETATM   23  O2  UNL     1      52.869  60.523  47.592  1.00  0.00    -0.263 OA
BRANCH  22  24
HETATM   24  O1  UNL     1      50.687  61.075  47.885  1.00  0.00    -0.310 OA
BRANCH  24  25
HETATM   25  C2  UNL     1      50.466  61.371  49.246  1.00  0.00     0.060 C 
HETATM   26  C1  UNL     1      51.304  62.490  49.766  1.00  0.00     0.045 C 
HETATM   27  C3  UNL     1      50.637  60.140  50.123  1.00  0.00     0.045 C 
HETATM   28  C4  UNL     1      49.007  61.784  49.375  1.00  0.00     0.045 C 
ENDBRANCH  24  25
ENDBRANCH  22  24
ENDBRANCH   1  22
TORSDOF 12
ENDMDL
MODEL 2
REMARK VINA RESULT: -6.715167976      2.206      2.941
REMARK  12 active torsions:
REMARK  status: ('A' for Active; 'I' for Inactive)
REMARK    1  A    between atoms: C2_2  and  O1_5 
REMARK    2  A    between atoms: O1_5  and  C5_6 
REMARK    3  A    between atoms: C5_6  and  C6_8 
REMARK    4  A    between atoms: C10_12  and  C11_13 
REMARK    5  A    between atoms: C11_13  and  C12_14 
REMARK    6  A    between atoms: C12_14  and  C13_15 
REMARK    7  A    between atoms: C13_15  and  C14_16 
REMARK    8  A    between atoms: C14_16  and  C15_17 
REMARK    9  A    between atoms: C15_17  and  C16_18 
REMARK   10  A    between atoms: C16_18  and  C17_19 
REMARK   11  A    between atoms: C17_19  and  O3_20 
REMARK   12  A    between atoms: N1_22  and  O4_24 
ROOT
HETATM    1  C6  UNL     1      52.088  59.985  45.965  1.00  0.00     0.155 A 
HETATM    2  C7  UNL     1      50.701  59.483  46.116  1.00  0.00     0.043 A 
HETATM    3  C8  UNL     1      51.890  58.570  45.785  1.00  0.00     0.022 A 
HETATM    4  C9  UNL     1      52.040  58.075  44.430  1.00  0.00     0.027 C 
HETATM    5  C10 UNL     1      52.637  59.058  43.508  1.00  0.00     0.110 C 
HETATM    6  S1  UNL     1      52.512  60.618  44.363  1.00  0.00     0.167 S 
HETATM    7  O5  UNL     1      51.344  61.380  43.792  1.00  0.00    -0.226 OA
HETATM    8  O6  UNL     1      53.774  61.384  44.351  1.00  0.00    -0.226 OA
ENDROOT
BRANCH   5   9
HETATM    9  C11 UNL     1      51.903  59.154  42.178  1.00  0.00     0.020 C 
BRANCH   9  10
HETATM   10  C12 UNL     1      50.621  58.365  42.204  1.00  0.00     0.001 C 
BRANCH  10  11
HETATM   11  C13 UNL     1      49.994  58.372  40.844  1.00  0.00     0.000 C 
BRANCH  11  12
HETATM   12  C14 UNL     1      49.693  56.988  40.345  1.00  0.00     0.000 C 
BRANCH  12  13
HETATM   13  C15 UNL     1      48.250  56.874  39.969  1.00  0.00     0.008 C 
BRANCH  13  14
HETATM   14  C16 UNL     1      47.443  58.119  40.046  1.00  0.00     0.086 C 
BRANCH  14  15
HETATM   15  C17 UNL     1      45.996  57.858  40.159  1.00  0.00     0.135 C 
HETATM   16  N1  UNL     1      45.147  58.834  40.396  1.00  0.00    -0.251 N 
ATOM     17  H1  UNL     1      44.147  58.647  40.472  1.00  0.00     0.196 HD
BRANCH  15  18
HETATM   18  O3  UNL     1      45.514  56.570  40.013  1.00  0.00    -0.348 OA
ATOM     19  H3  UNL     1      44.947  56.357  39.281  1.00  0.00     0.219 HD
ENDBRANCH  15  18
BRANCH  16  20
HETATM   20  O4  UNL     1      45.633  60.104  40.537  1.00  0.00    -0.288 OA
ATOM     21  H4  UNL     1      46.562  60.220  40.693  1.00  0.00     0.244 HD
ENDBRANCH  16  20
ENDBRANCH  14  15
ENDBRANCH  13  14
ENDBRANCH  12  13
ENDBRANCH  11  12
ENDBRANCH  10  11
ENDBRANCH   9  10
ENDBRANCH   5   9
BRANCH   1  22
HETATM   22  C5  UNL     1      52.859  60.438  47.140  1.00  0.00     0.283 C 
HETATM   23  O2  UNL     1      53.905  59.833  47.451  1.00  0.00    -0.263 OA
BRANCH  22  24
HETATM   24  O1  UNL     1      52.425  61.502  47.867  1.00  0.00    -0.310 OA
BRANCH  24  25
HETATM   25  C2  UNL     1      51.720  61.418  49.086  1.00  0.00     0.060 C 
HETATM   26  C1  UNL     1      51.911  60.126  49.807  1.00  0.00     0.045 C 
HETATM   27  C3  UNL     1      50.237  61.696  48.897  1.00  0.00     0.045 C 
HETATM   28  C4  UNL     1      52.250  62.531  49.979  1.00  0.00     0.045 C 
ENDBRANCH  24  25
ENDBRANCH  22  24
ENDBRANCH   1  22
TORSDOF 12
ENDMDL
MODEL 3
REMARK VINA RESULT: -6.682491952      2.907      8.053
REMARK  12 active torsions:
REMARK  status: ('A' for Active; 'I' for Inactive)
REMARK    1  A    between atoms: C2_2  and  O1_5 
REMARK    2  A    between atoms: O1_5  and  C5_6 
REMARK    3  A    between atoms: C5_6  and  C6_8 
REMARK    4  A    between atoms: C10_12  and  C11_13 
REMARK    5  A    between atoms: C11_13  and  C12_14 
REMARK    6  A    between atoms: C12_14  and  C13_15 
REMARK    7  A    between atoms: C13_15  and  C14_16 
REMARK    8  A    between atoms: C14_16  and  C15_17 
REMARK    9  A    between atoms: C15_17  and  C16_18 
REMARK   10  A    between atoms: C16_18  and  C17_19 
REMARK   11  A    between atoms: C17_19  and  O3_20 
REMARK   12  A    between atoms: N1_22  and  O4_24 
ROOT
HETATM    1  C6  UNL     1      51.565  58.853  42.977  1.00  0.00     0.155 A 
HETATM    2  C7  UNL     1      52.547  57.747  43.083  1.00  0.00     0.043 A 
HETATM    3  C8  UNL     1      51.325  57.873  44.003  1.00  0.00     0.022 A 
HETATM    4  C9  UNL     1      51.517  58.323  45.369  1.00  0.00     0.027 C 
HETATM    5  C10 UNL     1      51.663  59.784  45.491  1.00  0.00     0.110 C 
HETATM    6  S1  UNL     1      51.989  60.349  43.831  1.00  0.00     0.167 S 
HETATM    7  O5  UNL     1      53.468  60.608  43.701  1.00  0.00    -0.226 OA
HETATM    8  O6  UNL     1      51.156  61.504  43.441  1.00  0.00    -0.226 OA
ENDROOT
BRANCH   5   9
HETATM    9  C11 UNL     1      52.813  60.198  46.398  1.00  0.00     0.020 C 
BRANCH   9  10
HETATM   10  C12 UNL     1      52.356  61.176  47.447  1.00  0.00     0.001 C 
BRANCH  10  11
HETATM   11  C13 UNL     1      51.351  60.524  48.346  1.00  0.00     0.000 C 
BRANCH  11  12
HETATM   12  C14 UNL     1      50.133  61.376  48.558  1.00  0.00     0.000 C 
BRANCH  12  13
HETATM   13  C15 UNL     1      50.317  62.255  49.754  1.00  0.00     0.008 C 
BRANCH  13  14
HETATM   14  C16 UNL     1      51.487  61.961  50.621  1.00  0.00     0.086 C 
BRANCH  14  15
HETATM   15  C17 UNL     1      52.382  63.121  50.787  1.00  0.00     0.135 C 
HETATM   16  N1  UNL     1      53.621  62.968  51.204  1.00  0.00    -0.251 N 
ATOM     17  H1  UNL     1      54.235  63.774  51.316  1.00  0.00     0.196 HD
BRANCH  15  18
HETATM   18  O3  UNL     1      51.923  64.394  50.503  1.00  0.00    -0.348 OA
ATOM     19  H3  UNL     1      51.170  64.740  50.968  1.00  0.00     0.219 HD
ENDBRANCH  15  18
BRANCH  16  20
HETATM   20  O4  UNL     1      54.066  61.706  51.481  1.00  0.00    -0.288 OA
ATOM     21  H4  UNL     1      53.442  60.991  51.472  1.00  0.00     0.244 HD
ENDBRANCH  16  20
ENDBRANCH  14  15
ENDBRANCH  13  14
ENDBRANCH  12  13
ENDBRANCH  11  12
ENDBRANCH  10  11
ENDBRANCH   9  10
ENDBRANCH   5   9
BRANCH   1  22
HETATM   22  C5  UNL     1      50.624  58.921  41.841  1.00  0.00     0.283 C 
HETATM   23  O2  UNL     1      50.789  59.796  40.967  1.00  0.00    -0.263 OA
BRANCH  22  24
HETATM   24  O1  UNL     1      49.594  58.037  41.759  1.00  0.00    -0.310 OA
BRANCH  24  25
HETATM   25  C2  UNL     1      49.385  57.132  40.698  1.00  0.00     0.060 C 
HETATM   26  C1  UNL     1      50.615  56.402  40.274  1.00  0.00     0.045 C 
HETATM   27  C3  UNL     1      48.742  57.811  39.499  1.00  0.00     0.045 C 
HETATM   28  C4  UNL     1      48.380  56.100  41.190  1.00  0.00     0.045 C 
ENDBRANCH  24  25
ENDBRANCH  22  24
ENDBRANCH   1  22
TORSDOF 12
ENDMDL
MODEL 4
REMARK VINA RESULT: -6.631714370      0.941      1.263
REMARK  12 active torsions:
REMARK  status: ('A' for Active; 'I' for Inactive)
REMARK    1  A    between atoms: C2_2  and  O1_5 
REMARK    2  A    between atoms: O1_5  and  C5_6 
REMARK    3  A    between atoms: C5_6  and  C6_8 
REMARK    4  A    between atoms: C10_12  and  C11_13 
REMARK    5  A    between atoms: C11_13  and  C12_14 
REMARK    6  A    between atoms: C12_14  and  C13_15 
REMARK    7  A    between atoms: C13_15  and  C14_16 
REMARK    8  A    between atoms: C14_16  and  C15_17 
REMARK    9  A    between atoms: C15_17  and  C16_18 
REMARK   10  A    between atoms: C16_18  and  C17_19 
REMARK   11  A    between atoms: C17_19  and  O3_20 
REMARK   12  A    between atoms: N1_22  and  O4_24 
ROOT
HETATM    1  C6  UNL     1      51.302  59.038  46.729  1.00  0.00     0.155 A 
HETATM    2  C7  UNL     1      50.119  58.232  47.119  1.00  0.00     0.043 A 
HETATM    3  C8  UNL     1      51.563  57.746  47.308  1.00  0.00     0.022 A 
HETATM    4  C9  UNL     1      52.091  56.740  46.406  1.00  0.00     0.027 C 
HETATM    5  C10 UNL     1      52.526  57.286  45.108  1.00  0.00     0.110 C 
HETATM    6  S1  UNL     1      51.799  58.912  45.031  1.00  0.00     0.167 S 
HETATM    7  O5  UNL     1      50.579  58.845  44.147  1.00  0.00    -0.226 OA
HETATM    8  O6  UNL     1      52.761  59.955  44.623  1.00  0.00    -0.226 OA
ENDROOT
BRANCH   5   9
HETATM    9  C11 UNL     1      52.046  56.464  43.921  1.00  0.00     0.020 C 
BRANCH   9  10
HETATM   10  C12 UNL     1      53.204  55.975  43.092  1.00  0.00     0.001 C 
BRANCH  10  11
HETATM   11  C13 UNL     1      52.768  55.786  41.672  1.00  0.00     0.000 C 
BRANCH  11  12
HETATM   12  C14 UNL     1      53.333  56.830  40.754  1.00  0.00     0.000 C 
BRANCH  12  13
HETATM   13  C15 UNL     1      52.279  57.826  40.388  1.00  0.00     0.008 C 
BRANCH  13  14
HETATM   14  C16 UNL     1      50.961  57.277  39.977  1.00  0.00     0.086 C 
BRANCH  14  15
HETATM   15  C17 UNL     1      49.829  58.115  40.416  1.00  0.00     0.135 C 
HETATM   16  N1  UNL     1      49.152  58.845  39.556  1.00  0.00    -0.251 N 
ATOM     17  H1  UNL     1      48.370  59.422  39.865  1.00  0.00     0.196 HD
BRANCH  15  18
HETATM   18  O3  UNL     1      49.466  58.141  41.750  1.00  0.00    -0.348 OA
ATOM     19  H3  UNL     1      48.798  57.546  42.070  1.00  0.00     0.219 HD
ENDBRANCH  15  18
BRANCH  16  20
HETATM   20  O4  UNL     1      49.518  58.812  38.239  1.00  0.00    -0.288 OA
ATOM     21  H4  UNL     1      49.355  58.020  37.741  1.00  0.00     0.244 HD
ENDBRANCH  16  20
ENDBRANCH  14  15
ENDBRANCH  13  14
ENDBRANCH  12  13
ENDBRANCH  11  12
ENDBRANCH  10  11
ENDBRANCH   9  10
ENDBRANCH   5   9
BRANCH   1  22
HETATM   22  C5  UNL     1      51.683  60.239  47.499  1.00  0.00     0.283 C 
HETATM   23  O2  UNL     1      52.890  60.448  47.740  1.00  0.00    -0.263 OA
BRANCH  22  24
HETATM   24  O1  UNL     1      50.724  61.098  47.936  1.00  0.00    -0.310 OA
BRANCH  24  25
HETATM   25  C2  UNL     1      50.467  61.407  49.288  1.00  0.00     0.060 C 
HETATM   26  C1  UNL     1      51.296  62.525  49.822  1.00  0.00     0.045 C 
HETATM   27  C3  UNL     1      50.606  60.182  50.179  1.00  0.00     0.045 C 
HETATM   28  C4  UNL     1      49.007  61.828  49.373  1.00  0.00     0.045 C 
ENDBRANCH  24  25
ENDBRANCH  22  24
ENDBRANCH   1  22
TORSDOF 12
ENDMDL
MODEL 5
REMARK VINA RESULT: -6.552056732      2.445      2.976
REMARK  12 active torsions:
REMARK  status: ('A' for Active; 'I' for Inactive)
REMARK    1  A    between atoms: C2_2  and  O1_5 
REMARK    2  A    between atoms: O1_5  and  C5_6 
REMARK    3  A    between atoms: C5_6  and  C6_8 
REMARK    4  A    between atoms: C10_12  and  C11_13 
REMARK    5  A    between atoms: C11_13  and  C12_14 
REMARK    6  A    between atoms: C12_14  and  C13_15 
REMARK    7  A    between atoms: C13_15  and  C14_16 
REMARK    8  A    between atoms: C14_16  and  C15_17 
REMARK    9  A    between atoms: C15_17  and  C16_18 
REMARK   10  A    between atoms: C16_18  and  C17_19 
REMARK   11  A    between atoms: C17_19  and  O3_20 
REMARK   12  A    between atoms: N1_22  and  O4_24 
ROOT
HETATM    1  C6  UNL     1      52.181  59.090  47.330  1.00  0.00     0.155 A 
HETATM    2  C7  UNL     1      53.442  59.764  46.936  1.00  0.00     0.043 A 
HETATM    3  C8  UNL     1      52.070  60.163  46.376  1.00  0.00     0.022 A 
HETATM    4  C9  UNL     1      51.724  59.776  45.022  1.00  0.00     0.027 C 
HETATM    5  C10 UNL     1      51.278  58.376  44.907  1.00  0.00     0.110 C 
HETATM    6  S1  UNL     1      51.783  57.611  46.436  1.00  0.00     0.167 S 
HETATM    7  O5  UNL     1      53.039  56.818  46.178  1.00  0.00    -0.226 OA
HETATM    8  O6  UNL     1      50.709  56.816  47.065  1.00  0.00    -0.226 OA
ENDROOT
BRANCH   5   9
HETATM    9  C11 UNL     1      51.917  57.638  43.739  1.00  0.00     0.020 C 
BRANCH   9  10
HETATM   10  C12 UNL     1      51.505  58.239  42.422  1.00  0.00     0.001 C 
BRANCH  10  11
HETATM   11  C13 UNL     1      50.349  57.474  41.855  1.00  0.00     0.000 C 
BRANCH  11  12
HETATM   12  C14 UNL     1      49.636  58.231  40.772  1.00  0.00     0.000 C 
BRANCH  12  13
HETATM   13  C15 UNL     1      48.645  57.346  40.086  1.00  0.00     0.008 C 
BRANCH  13  14
HETATM   14  C16 UNL     1      47.461  58.013  39.486  1.00  0.00     0.086 C 
BRANCH  14  15
HETATM   15  C17 UNL     1      46.192  57.605  40.117  1.00  0.00     0.135 C 
HETATM   16  N1  UNL     1      45.386  58.493  40.656  1.00  0.00    -0.251 N 
ATOM     17  H1  UNL     1      44.509  58.205  41.090  1.00  0.00     0.196 HD
BRANCH  15  18
HETATM   18  O3  UNL     1      45.834  56.270  40.145  1.00  0.00    -0.348 OA
ATOM     19  H3  UNL     1      44.947  56.012  39.923  1.00  0.00     0.219 HD
ENDBRANCH  15  18
BRANCH  16  20
HETATM   20  O4  UNL     1      45.747  59.811  40.622  1.00  0.00    -0.288 OA
ATOM     21  H4  UNL     1      45.473  60.376  41.334  1.00  0.00     0.244 HD
ENDBRANCH  16  20
ENDBRANCH  14  15
ENDBRANCH  13  14
ENDBRANCH  12  13
ENDBRANCH  11  12
ENDBRANCH  10  11
ENDBRANCH   9  10
ENDBRANCH   5   9
BRANCH   1  22
HETATM   22  C5  UNL     1      51.608  59.289  48.676  1.00  0.00     0.283 C 
HETATM   23  O2  UNL     1      52.098  58.671  49.643  1.00  0.00    -0.263 OA
BRANCH  22  24
HETATM   24  O1  UNL     1      50.558  60.136  48.848  1.00  0.00    -0.310 OA
BRANCH  24  25
HETATM   25  C2  UNL     1      50.594  61.330  49.598  1.00  0.00     0.060 C 
HETATM   26  C1  UNL     1      51.775  62.192  49.306  1.00  0.00     0.045 C 
HETATM   27  C3  UNL     1      50.504  61.057  51.092  1.00  0.00     0.045 C 
HETATM   28  C4  UNL     1      49.343  62.116  49.234  1.00  0.00     0.045 C 
ENDBRANCH  24  25
ENDBRANCH  22  24
ENDBRANCH   1  22
TORSDOF 12
ENDMDL
