MODEL 1
REMARK VINA RESULT: -7.868042714      0.000      0.000
REMARK  11 active torsions:
REMARK  status: ('A' for Active; 'I' for Inactive)
REMARK    1  A    between atoms: C2_2  and  C3_3 
REMARK    2  A    between atoms: C3_3  and  N1_4 
REMARK    3  A    between atoms: N1_4  and  C4_5 
REMARK    4  A    between atoms: N1_4  and  C11_13 
REMARK    5  A    between atoms: C4_5  and  C5_6 
REMARK    6  A    between atoms: C11_13  and  S1_17 
REMARK    7  A    between atoms: S1_17  and  C12_18 
REMARK    8  A    between atoms: C12_18  and  C13_19 
REMARK    9  A    between atoms: C13_19  and  O2_20 
REMARK   10  A    between atoms: C13_19  and  C14_22 
REMARK   11  A    between atoms: C14_22  and  N3_23 
ROOT
HETATM    1  C11 UNL     1      51.652  58.374  44.448  1.00  0.00     0.136 C 
HETATM    2  N2  UNL     1      51.591  57.159  44.867  1.00  0.00    -0.380 N 
ATOM      3  H21 UNL     1      51.276  56.419  44.239  1.00  0.00     0.158 HD
ATOM      4  H22 UNL     1      51.848  56.892  45.818  1.00  0.00     0.158 HD
ENDROOT
BRANCH   1   5
HETATM    5  N1  UNL     1      52.092  59.412  45.330  1.00  0.00    -0.354 N 
BRANCH   5   6
HETATM    6  C3  UNL     1      52.340  60.718  44.774  1.00  0.00     0.151 C 
BRANCH   6   7
HETATM    7  C2  UNL     1      53.568  61.336  45.375  1.00  0.00    -0.017 C 
HETATM    8  C1  UNL     1      54.309  62.135  44.654  1.00  0.00     0.008 C 
ENDBRANCH   6   7
ENDBRANCH   5   6
BRANCH   5   9
HETATM    9  C4  UNL     1      52.272  59.107  46.720  1.00  0.00     0.166 C 
BRANCH   9  10
HETATM   10  C5  UNL     1      51.166  59.560  47.604  1.00  0.00    -0.009 A 
HETATM   11  C6  UNL     1      50.874  60.840  48.021  1.00  0.00     0.043 A 
HETATM   12  C7  UNL     1      49.735  60.753  48.820  1.00  0.00     0.050 A 
HETATM   13  C8  UNL     1      49.077  61.938  49.483  1.00  0.00     0.076 C 
HETATM   14  O1  UNL     1      49.396  59.512  48.858  1.00  0.00    -0.320 OA
HETATM   15  C9  UNL     1      50.186  58.754  48.170  1.00  0.00     0.057 A 
HETATM   16  C10 UNL     1      50.124  57.270  47.970  1.00  0.00     0.077 C 
ENDBRANCH   9  10
ENDBRANCH   5   9
ENDBRANCH   1   5
BRANCH   1  17
HETATM   17  S1  UNL     1      51.206  58.835  42.805  1.00  0.00    -0.092 SA
BRANCH  17  18
HETATM   18  C12 UNL     1      52.176  57.928  41.574  1.00  0.00     0.119 C 
BRANCH  18  19
HETATM   19  C13 UNL     1      51.319  57.619  40.340  1.00  0.00     0.166 C 
BRANCH  19  20
HETATM   20  O2  UNL     1      52.119  58.016  39.253  1.00  0.00    -0.390 OA
ATOM     21  H2  UNL     1      52.234  58.951  39.374  1.00  0.00     0.210 HD
ENDBRANCH  19  20
BRANCH  19  22
HETATM   22  C14 UNL     1      50.076  58.433  40.356  1.00  0.00     0.100 C 
BRANCH  22  23
HETATM   23  N3  UNL     1      48.857  57.784  40.322  1.00  0.00    -0.352 N 
HETATM   24  C15 UNL     1      48.533  56.710  41.146  1.00  0.00     0.068 C 
HETATM   25  C16 UNL     1      47.592  55.738  40.481  1.00  0.00     0.045 C 
HETATM   26  C17 UNL     1      46.193  56.205  40.347  1.00  0.00     0.005 C 
HETATM   27  C18 UNL     1      45.928  57.626  40.749  1.00  0.00     0.005 C 
HETATM   28  C19 UNL     1      46.670  58.625  39.900  1.00  0.00     0.045 C 
HETATM   29  C20 UNL     1      47.926  58.037  39.295  1.00  0.00     0.068 C 
ENDBRANCH  22  23
ENDBRANCH  19  22
ENDBRANCH  18  19
ENDBRANCH  17  18
ENDBRANCH   1  17
TORSDOF 11
ENDMDL
MODEL 2
REMARK VINA RESULT: -7.598681159      2.364      3.353
REMARK  11 active torsions:
REMARK  status: ('A' for Active; 'I' for Inactive)
REMARK    1  A    between atoms: C2_2  and  C3_3 
REMARK    2  A    between atoms: C3_3  and  N1_4 
REMARK    3  A    between atoms: N1_4  and  C4_5 
REMARK    4  A    between atoms: N1_4  and  C11_13 
REMARK    5  A    between atoms: C4_5  and  C5_6 
REMARK    6  A    between atoms: C11_13  and  S1_17 
REMARK    7  A    between atoms: S1_17  and  C12_18 
REMARK    8  A    between atoms: C12_18  and  C13_19 
REMARK    9  A    between atoms: C13_19  and  O2_20 
REMARK   10  A    between atoms: C13_19  and  C14_22 
REMARK   11  A    between atoms: C14_22  and  N3_23 
ROOT
HETATM    1  C11 UNL     1      51.466  58.601  44.052  1.00  0.00     0.136 C 
HETATM    2  N2  UNL     1      51.237  57.378  44.384  1.00  0.00    -0.380 N 
ATOM      3  H21 UNL     1      50.856  56.727  43.698  1.00  0.00     0.158 HD
ATOM      4  H22 UNL     1      51.425  57.019  45.321  1.00  0.00     0.158 HD
ENDROOT
BRANCH   1   5
HETATM    5  N1  UNL     1      52.002  59.514  45.014  1.00  0.00    -0.354 N 
BRANCH   5   6
HETATM    6  C3  UNL     1      52.325  60.849  44.580  1.00  0.00     0.151 C 
BRANCH   6   7
HETATM    7  C2  UNL     1      53.572  61.348  45.251  1.00  0.00    -0.017 C 
HETATM    8  C1  UNL     1      54.335  62.211  44.636  1.00  0.00     0.008 C 
ENDBRANCH   6   7
ENDBRANCH   5   6
BRANCH   5   9
HETATM    9  C4  UNL     1      52.197  59.061  46.362  1.00  0.00     0.166 C 
BRANCH   9  10
HETATM   10  C5  UNL     1      51.158  59.511  47.325  1.00  0.00    -0.009 A 
HETATM   11  C6  UNL     1      50.920  60.784  47.796  1.00  0.00     0.043 A 
HETATM   12  C7  UNL     1      49.832  60.697  48.661  1.00  0.00     0.050 A 
HETATM   13  C8  UNL     1      49.243  61.876  49.397  1.00  0.00     0.076 C 
HETATM   14  O1  UNL     1      49.467  59.463  48.685  1.00  0.00    -0.320 OA
HETATM   15  C9  UNL     1      50.197  58.709  47.928  1.00  0.00     0.057 A 
HETATM   16  C10 UNL     1      50.089  57.234  47.691  1.00  0.00     0.077 C 
ENDBRANCH   9  10
ENDBRANCH   5   9
ENDBRANCH   1   5
BRANCH   1  17
HETATM   17  S1  UNL     1      51.142  59.220  42.432  1.00  0.00    -0.092 SA
BRANCH  17  18
HETATM   18  C12 UNL     1      50.071  58.101  41.494  1.00  0.00     0.119 C 
BRANCH  18  19
HETATM   19  C13 UNL     1      50.898  57.282  40.495  1.00  0.00     0.166 C 
BRANCH  19  20
HETATM   20  O2  UNL     1      50.666  57.907  39.256  1.00  0.00    -0.390 OA
ATOM     21  H2  UNL     1      51.100  57.346  38.625  1.00  0.00     0.210 HD
ENDBRANCH  19  20
BRANCH  19  22
HETATM   22  C14 UNL     1      50.401  55.882  40.437  1.00  0.00     0.100 C 
BRANCH  22  23
HETATM   23  N3  UNL     1      51.050  54.917  41.182  1.00  0.00    -0.352 N 
HETATM   24  C15 UNL     1      50.488  54.294  42.293  1.00  0.00     0.068 C 
HETATM   25  C16 UNL     1      51.520  53.919  43.327  1.00  0.00     0.045 C 
HETATM   26  C17 UNL     1      52.378  52.766  42.971  1.00  0.00     0.005 C 
HETATM   27  C18 UNL     1      52.215  52.221  41.584  1.00  0.00     0.005 C 
HETATM   28  C19 UNL     1      52.578  53.217  40.514  1.00  0.00     0.045 C 
HETATM   29  C20 UNL     1      52.419  54.645  40.988  1.00  0.00     0.068 C 
ENDBRANCH  22  23
ENDBRANCH  19  22
ENDBRANCH  18  19
ENDBRANCH  17  18
ENDBRANCH   1  17
TORSDOF 11
ENDMDL
MODEL 3
REMARK VINA RESULT: -7.473192577      2.142      3.500
REMARK  11 active torsions:
REMARK  status: ('A' for Active; 'I' for Inactive)
REMARK    1  A    between atoms: C2_2  and  C3_3 
REMARK    2  A    between atoms: C3_3  and  N1_4 
REMARK    3  A    between atoms: N1_4  and  C4_5 
REMARK    4  A    between atoms: N1_4  and  C11_13 
REMARK    5  A    between atoms: C4_5  and  C5_6 
REMARK    6  A    between atoms: C11_13  and  S1_17 
REMARK    7  A    between atoms: S1_17  and  C12_18 
REMARK    8  A    between atoms: C12_18  and  C13_19 
REMARK    9  A    between atoms: C13_19  and  O2_20 
REMARK   10  A    between atoms: C13_19  and  C14_22 
REMARK   11  A    between atoms: C14_22  and  N3_23 
ROOT
HETATM    1  C11 UNL     1      51.445  58.695  44.011  1.00  0.00     0.136 C 
HETATM    2  N2  UNL     1      51.234  57.458  44.297  1.00  0.00    -0.380 N 
ATOM      3  H21 UNL     1      50.855  56.829  43.589  1.00  0.00     0.158 HD
ATOM      4  H22 UNL     1      51.433  57.065  45.217  1.00  0.00     0.158 HD
ENDROOT
BRANCH   1   5
HETATM    5  N1  UNL     1      51.976  59.576  45.005  1.00  0.00    -0.354 N 
BRANCH   5   6
HETATM    6  C3  UNL     1      52.299  60.926  44.616  1.00  0.00     0.151 C 
BRANCH   6   7
HETATM    7  C2  UNL     1      53.577  61.381  45.258  1.00  0.00    -0.017 C 
HETATM    8  C1  UNL     1      54.392  62.158  44.595  1.00  0.00     0.008 C 
ENDBRANCH   6   7
ENDBRANCH   5   6
BRANCH   5   9
HETATM    9  C4  UNL     1      52.167  59.080  46.337  1.00  0.00     0.166 C 
BRANCH   9  10
HETATM   10  C5  UNL     1      51.136  59.513  47.316  1.00  0.00    -0.009 A 
HETATM   11  C6  UNL     1      50.899  60.778  47.806  1.00  0.00     0.043 A 
HETATM   12  C7  UNL     1      49.819  60.676  48.680  1.00  0.00     0.050 A 
HETATM   13  C8  UNL     1      49.233  61.842  49.438  1.00  0.00     0.076 C 
HETATM   14  O1  UNL     1      49.458  59.440  48.691  1.00  0.00    -0.320 OA
HETATM   15  C9  UNL     1      50.183  58.699  47.917  1.00  0.00     0.057 A 
HETATM   16  C10 UNL     1      50.077  57.227  47.660  1.00  0.00     0.077 C 
ENDBRANCH   9  10
ENDBRANCH   5   9
ENDBRANCH   1   5
BRANCH   1  17
HETATM   17  S1  UNL     1      51.100  59.374  42.420  1.00  0.00    -0.092 SA
BRANCH  17  18
HETATM   18  C12 UNL     1      50.028  58.283  41.450  1.00  0.00     0.119 C 
BRANCH  18  19
HETATM   19  C13 UNL     1      50.849  57.519  40.404  1.00  0.00     0.166 C 
BRANCH  19  20
HETATM   20  O2  UNL     1      50.338  57.961  39.169  1.00  0.00    -0.390 OA
ATOM     21  H2  UNL     1      50.978  58.593  38.864  1.00  0.00     0.210 HD
ENDBRANCH  19  20
BRANCH  19  22
HETATM   22  C14 UNL     1      50.617  56.056  40.532  1.00  0.00     0.100 C 
BRANCH  22  23
HETATM   23  N3  UNL     1      51.576  55.285  41.162  1.00  0.00    -0.352 N 
HETATM   24  C15 UNL     1      52.938  55.567  41.123  1.00  0.00     0.068 C 
HETATM   25  C16 UNL     1      53.786  54.321  41.169  1.00  0.00     0.045 C 
HETATM   26  C17 UNL     1      53.846  53.647  42.486  1.00  0.00     0.005 C 
HETATM   27  C18 UNL     1      52.948  54.198  43.553  1.00  0.00     0.005 C 
HETATM   28  C19 UNL     1      51.486  54.078  43.212  1.00  0.00     0.045 C 
HETATM   29  C20 UNL     1      51.252  54.032  41.717  1.00  0.00     0.068 C 
ENDBRANCH  22  23
ENDBRANCH  19  22
ENDBRANCH  18  19
ENDBRANCH  17  18
ENDBRANCH   1  17
TORSDOF 11
ENDMDL
MODEL 4
REMARK VINA RESULT: -7.409402615      2.083      4.067
REMARK  11 active torsions:
REMARK  status: ('A' for Active; 'I' for Inactive)
REMARK    1  A    between atoms: C2_2  and  C3_3 
REMARK    2  A    between atoms: C3_3  and  N1_4 
REMARK    3  A    between atoms: N1_4  and  C4_5 
REMARK    4  A    between atoms: N1_4  and  C11_13 
REMARK    5  A    between atoms: C4_5  and  C5_6 
REMARK    6  A    between atoms: C11_13  and  S1_17 
REMARK    7  A    between atoms: S1_17  and  C12_18 
REMARK    8  A    between atoms: C12_18  and  C13_19 
REMARK    9  A    between atoms: C13_19  and  O2_20 
REMARK   10  A    between atoms: C13_19  and  C14_22 
REMARK   11  A    between atoms: C14_22  and  N3_23 
ROOT
HETATM    1  C11 UNL     1      51.463  58.575  43.991  1.00  0.00     0.136 C 
HETATM    2  N2  UNL     1      51.385  57.317  44.251  1.00  0.00    -0.380 N 
ATOM      3  H21 UNL     1      50.995  56.677  43.558  1.00  0.00     0.158 HD
ATOM      4  H22 UNL     1      51.702  56.917  45.135  1.00  0.00     0.158 HD
ENDROOT
BRANCH   1   5
HETATM    5  N1  UNL     1      52.010  59.471  44.962  1.00  0.00    -0.354 N 
BRANCH   5   6
HETATM    6  C3  UNL     1      52.332  60.813  44.546  1.00  0.00     0.151 C 
BRANCH   6   7
HETATM    7  C2  UNL     1      53.565  61.312  45.240  1.00  0.00    -0.017 C 
HETATM    8  C1  UNL     1      54.289  62.244  44.681  1.00  0.00     0.008 C 
ENDBRANCH   6   7
ENDBRANCH   5   6
BRANCH   5   9
HETATM    9  C4  UNL     1      52.218  58.997  46.300  1.00  0.00     0.166 C 
BRANCH   9  10
HETATM   10  C5  UNL     1      51.183  59.423  47.279  1.00  0.00    -0.009 A 
HETATM   11  C6  UNL     1      50.932  60.689  47.762  1.00  0.00     0.043 A 
HETATM   12  C7  UNL     1      49.855  60.579  48.638  1.00  0.00     0.050 A 
HETATM   13  C8  UNL     1      49.257  61.743  49.391  1.00  0.00     0.076 C 
HETATM   14  O1  UNL     1      49.509  59.339  48.657  1.00  0.00    -0.320 OA
HETATM   15  C9  UNL     1      50.241  58.602  47.886  1.00  0.00     0.057 A 
HETATM   16  C10 UNL     1      50.152  57.128  47.638  1.00  0.00     0.077 C 
ENDBRANCH   9  10
ENDBRANCH   5   9
ENDBRANCH   1   5
BRANCH   1  17
HETATM   17  S1  UNL     1      50.915  59.264  42.462  1.00  0.00    -0.092 SA
BRANCH  17  18
HETATM   18  C12 UNL     1      50.305  57.984  41.337  1.00  0.00     0.119 C 
BRANCH  18  19
HETATM   19  C13 UNL     1      51.399  57.584  40.339  1.00  0.00     0.166 C 
BRANCH  19  20
HETATM   20  O2  UNL     1      50.805  57.774  39.077  1.00  0.00    -0.390 OA
ATOM     21  H2  UNL     1      50.683  56.895  38.740  1.00  0.00     0.210 HD
ENDBRANCH  19  20
BRANCH  19  22
HETATM   22  C14 UNL     1      51.749  56.148  40.502  1.00  0.00     0.100 C 
BRANCH  22  23
HETATM   23  N3  UNL     1      52.941  55.823  41.120  1.00  0.00    -0.352 N 
HETATM   24  C15 UNL     1      53.962  56.739  41.354  1.00  0.00     0.068 C 
HETATM   25  C16 UNL     1      55.330  56.104  41.299  1.00  0.00     0.045 C 
HETATM   26  C17 UNL     1      55.675  55.249  42.457  1.00  0.00     0.005 C 
HETATM   27  C18 UNL     1      54.579  55.006  43.451  1.00  0.00     0.005 C 
HETATM   28  C19 UNL     1      53.404  54.269  42.864  1.00  0.00     0.045 C 
HETATM   29  C20 UNL     1      53.289  54.481  41.370  1.00  0.00     0.068 C 
ENDBRANCH  22  23
ENDBRANCH  19  22
ENDBRANCH  18  19
ENDBRANCH  17  18
ENDBRANCH   1  17
TORSDOF 11
ENDMDL
MODEL 5
REMARK VINA RESULT: -7.193482998      2.440      8.043
REMARK  11 active torsions:
REMARK  status: ('A' for Active; 'I' for Inactive)
REMARK    1  A    between atoms: C2_2  and  C3_3 
REMARK    2  A    between atoms: C3_3  and  N1_4 
REMARK    3  A    between atoms: N1_4  and  C4_5 
REMARK    4  A    between atoms: N1_4  and  C11_13 
REMARK    5  A    between atoms: C4_5  and  C5_6 
REMARK    6  A    between atoms: C11_13  and  S1_17 
REMARK    7  A    between atoms: S1_17  and  C12_18 
REMARK    8  A    between atoms: C12_18  and  C13_19 
REMARK    9  A    between atoms: C13_19  and  O2_20 
REMARK   10  A    between atoms: C13_19  and  C14_22 
REMARK   11  A    between atoms: C14_22  and  N3_23 
ROOT
HETATM    1  C11 UNL     1      52.050  55.588  43.861  1.00  0.00     0.136 C 
HETATM    2  N2  UNL     1      51.250  54.615  44.125  1.00  0.00    -0.380 N 
ATOM      3  H21 UNL     1      50.770  54.581  45.024  1.00  0.00     0.158 HD
ATOM      4  H22 UNL     1      51.067  53.859  43.465  1.00  0.00     0.158 HD
ENDROOT
BRANCH   1   5
HETATM    5  N1  UNL     1      52.724  55.635  42.599  1.00  0.00    -0.354 N 
BRANCH   5   6
HETATM    6  C3  UNL     1      53.676  54.596  42.296  1.00  0.00     0.151 C 
BRANCH   6   7
HETATM    7  C2  UNL     1      53.309  53.882  41.028  1.00  0.00    -0.017 C 
HETATM    8  C1  UNL     1      52.429  52.917  41.061  1.00  0.00     0.008 C 
ENDBRANCH   6   7
ENDBRANCH   5   6
BRANCH   5   9
HETATM    9  C4  UNL     1      52.428  56.712  41.698  1.00  0.00     0.166 C 
BRANCH   9  10
HETATM   10  C5  UNL     1      50.978  56.948  41.467  1.00  0.00    -0.009 A 
HETATM   11  C6  UNL     1      50.043  56.083  40.941  1.00  0.00     0.043 A 
HETATM   12  C7  UNL     1      48.825  56.757  40.943  1.00  0.00     0.050 A 
HETATM   13  C8  UNL     1      47.530  56.163  40.444  1.00  0.00     0.076 C 
HETATM   14  O1  UNL     1      49.041  57.926  41.437  1.00  0.00    -0.320 OA
HETATM   15  C9  UNL     1      50.279  58.110  41.766  1.00  0.00     0.057 A 
HETATM   16  C10 UNL     1      50.918  59.324  42.366  1.00  0.00     0.077 C 
ENDBRANCH   9  10
ENDBRANCH   5   9
ENDBRANCH   1   5
BRANCH   1  17
HETATM   17  S1  UNL     1      52.365  56.895  45.003  1.00  0.00    -0.092 SA
BRANCH  17  18
HETATM   18  C12 UNL     1      51.573  56.586  46.602  1.00  0.00     0.119 C 
BRANCH  18  19
HETATM   19  C13 UNL     1      50.859  57.849  47.098  1.00  0.00     0.166 C 
BRANCH  19  20
HETATM   20  O2  UNL     1      50.124  58.294  45.984  1.00  0.00    -0.390 OA
ATOM     21  H2  UNL     1      49.352  57.741  45.976  1.00  0.00     0.210 HD
ENDBRANCH  19  20
BRANCH  19  22
HETATM   22  C14 UNL     1      51.852  58.890  47.475  1.00  0.00     0.100 C 
BRANCH  22  23
HETATM   23  N3  UNL     1      51.438  59.947  48.263  1.00  0.00    -0.352 N 
HETATM   24  C15 UNL     1      51.928  61.243  48.131  1.00  0.00     0.068 C 
HETATM   25  C16 UNL     1      51.962  61.982  49.445  1.00  0.00     0.045 C 
HETATM   26  C17 UNL     1      50.642  62.410  49.962  1.00  0.00     0.005 C 
HETATM   27  C18 UNL     1      49.444  61.929  49.200  1.00  0.00     0.005 C 
HETATM   28  C19 UNL     1      49.305  60.429  49.205  1.00  0.00     0.045 C 
HETATM   29  C20 UNL     1      50.636  59.735  49.402  1.00  0.00     0.068 C 
ENDBRANCH  22  23
ENDBRANCH  19  22
ENDBRANCH  18  19
ENDBRANCH  17  18
ENDBRANCH   1  17
TORSDOF 11
ENDMDL
