MODEL 1
REMARK VINA RESULT: -7.000892676      0.000      0.000
REMARK  10 active torsions:
REMARK  status: ('A' for Active; 'I' for Inactive)
REMARK    1  A    between atoms: O1_3  and  N2_4 
REMARK    2  A    between atoms: N2_4  and  N3_5 
REMARK    3  A    between atoms: N3_5  and  C2_7 
REMARK    4  A    between atoms: C2_7  and  C3_11 
REMARK    5  A    between atoms: C4_14  and  N6_15 
REMARK    6  A    between atoms: N6_15  and  S1_17 
REMARK    7  A    between atoms: S1_17  and  C5_20 
REMARK    8  A    between atoms: C7_22  and  N7_23 
REMARK    9  A    between atoms: C9_27  and  N8_28 
REMARK   10  A    between atoms: C11_34  and  N10_35 
ROOT
HETATM    1  N1  UNL     1       3.038  48.011  -2.354  1.00  0.00    -0.162 NA
HETATM    2  C1  UNL     1       4.095  47.785  -2.773  1.00  0.00     0.250 C 
HETATM    3  O1  UNL     1       5.336  47.535  -3.243  1.00  0.00    -0.144 OA
ENDROOT
BRANCH   3   4
HETATM    4  N2  UNL     1       6.458  48.217  -2.922  1.00  0.00     0.039 NA
BRANCH   4   5
HETATM    5  N3  UNL     1       7.467  48.129  -3.883  1.00  0.00    -0.260 N 
ATOM      6  H3  UNL     1       7.426  47.429  -4.623  1.00  0.00     0.186 HD
BRANCH   5   7
HETATM    7  C2  UNL     1       8.545  49.038  -3.798  1.00  0.00     0.158 C 
HETATM    8  N4  UNL     1       8.540  50.072  -4.562  1.00  0.00    -0.382 N 
ATOM      9  H42 UNL     1       7.757  50.200  -5.203  1.00  0.00     0.157 HD
ATOM     10  H41 UNL     1       9.318  50.728  -4.501  1.00  0.00     0.157 HD
BRANCH   7  11
HETATM   11  C3  UNL     1       9.661  48.856  -2.884  1.00  0.00     0.181 A 
HETATM   12  N5  UNL     1       9.662  47.907  -1.930  1.00  0.00    -0.171 N 
HETATM   13  C4  UNL     1      10.690  47.731  -1.080  1.00  0.00     0.708 A 
ATOM     14  H5  UNL     1       8.850  47.296  -1.848  1.00  0.00     0.186 HD
HETATM   15  N9  UNL     1      11.739  48.565  -1.232  1.00  0.00    -0.022 N 
HETATM   16  C11 UNL     1      11.754  49.522  -2.185  1.00  0.00     0.692 A 
ATOM     17  H9  UNL     1      12.543  48.470  -0.611  1.00  0.00     0.203 HD
HETATM   18  N11 UNL     1      10.716  49.682  -3.026  1.00  0.00    -0.172 N 
ATOM     19  H11 UNL     1      10.727  50.405  -3.746  1.00  0.00     0.186 HD
BRANCH  13  20
HETATM   20  N6  UNL     1      10.688  46.821  -0.165  1.00  0.00    -0.112 N 
ATOM     21  H6  UNL     1      10.858  47.056   0.814  1.00  0.00     0.197 HD
BRANCH  20  22
HETATM   22  S1  UNL     1      10.388  45.197  -0.649  1.00  0.00     0.276 S 
HETATM   23  O2  UNL     1      10.161  45.145  -2.148  1.00  0.00    -0.200 OA
HETATM   24  O3  UNL     1      11.664  44.416  -0.393  1.00  0.00    -0.200 OA
BRANCH  22  25
HETATM   25  C5  UNL     1       9.047  44.497   0.207  1.00  0.00     0.085 A 
HETATM   26  C6  UNL     1       9.238  43.555   1.198  1.00  0.00     0.061 A 
HETATM   27  C7  UNL     1       8.171  42.993   1.884  1.00  0.00     0.106 A 
HETATM   28  C8  UNL     1       6.889  43.386   1.565  1.00  0.00     0.072 A 
HETATM   29  C9  UNL     1       6.664  44.329   0.577  1.00  0.00     0.106 A 
HETATM   30  C10 UNL     1       7.753  44.869  -0.088  1.00  0.00     0.061 A 
BRANCH  27  31
HETATM   31  N7  UNL     1       8.377  42.026   2.901  1.00  0.00    -0.116 N 
HETATM   32  O4  UNL     1       7.425  41.614   3.573  1.00  0.00    -0.532 OA
HETATM   33  O5  UNL     1       9.635  41.547   3.137  1.00  0.00    -0.532 OA
ENDBRANCH  27  31
BRANCH  29  34
HETATM   34  N8  UNL     1       5.343  44.741   0.242  1.00  0.00    -0.116 N 
HETATM   35  O6  UNL     1       5.179  45.680  -0.557  1.00  0.00    -0.532 OA
HETATM   36  O7  UNL     1       4.226  44.147   0.761  1.00  0.00    -0.532 OA
ENDBRANCH  29  34
ENDBRANCH  22  25
ENDBRANCH  20  22
ENDBRANCH  13  20
BRANCH  16  37
HETATM   37  N10 UNL     1      12.750  50.328  -2.343  1.00  0.00    -0.234 N 
ATOM     38 2H10 UNL     1      13.172  50.700  -1.492  1.00  0.00     0.174 HD
ATOM     39 1H10 UNL     1      13.106  50.585  -3.264  1.00  0.00     0.174 HD
ENDBRANCH  16  37
ENDBRANCH   7  11
ENDBRANCH   5   7
ENDBRANCH   4   5
ENDBRANCH   3   4
TORSDOF 10
ENDMDL
MODEL 2
REMARK VINA RESULT: -6.948663452      2.292      4.633
REMARK  10 active torsions:
REMARK  status: ('A' for Active; 'I' for Inactive)
REMARK    1  A    between atoms: O1_3  and  N2_4 
REMARK    2  A    between atoms: N2_4  and  N3_5 
REMARK    3  A    between atoms: N3_5  and  C2_7 
REMARK    4  A    between atoms: C2_7  and  C3_11 
REMARK    5  A    between atoms: C4_14  and  N6_15 
REMARK    6  A    between atoms: N6_15  and  S1_17 
REMARK    7  A    between atoms: S1_17  and  C5_20 
REMARK    8  A    between atoms: C7_22  and  N7_23 
REMARK    9  A    between atoms: C9_27  and  N8_28 
REMARK   10  A    between atoms: C11_34  and  N10_35 
ROOT
HETATM    1  N1  UNL     1      12.876  46.526   0.748  1.00  0.00    -0.162 NA
HETATM    2  C1  UNL     1      12.052  47.331   0.612  1.00  0.00     0.250 C 
HETATM    3  O1  UNL     1      11.096  48.266   0.430  1.00  0.00    -0.144 OA
ENDROOT
BRANCH   3   4
HETATM    4  N2  UNL     1      10.850  48.937  -0.718  1.00  0.00     0.039 NA
BRANCH   4   5
HETATM    5  N3  UNL     1      11.927  48.951  -1.605  1.00  0.00    -0.260 N 
ATOM      6  H3  UNL     1      12.803  48.481  -1.376  1.00  0.00     0.186 HD
BRANCH   5   7
HETATM    7  C2  UNL     1      11.769  49.639  -2.830  1.00  0.00     0.158 C 
HETATM    8  N4  UNL     1      12.473  50.693  -3.040  1.00  0.00    -0.382 N 
ATOM      9  H42 UNL     1      13.122  50.997  -2.314  1.00  0.00     0.157 HD
ATOM     10  H41 UNL     1      12.359  51.188  -3.923  1.00  0.00     0.157 HD
BRANCH   7  11
HETATM   11  C3  UNL     1      10.843  49.204  -3.864  1.00  0.00     0.181 A 
HETATM   12  N5  UNL     1       9.783  48.421  -3.597  1.00  0.00    -0.171 N 
HETATM   13  C4  UNL     1       8.922  48.014  -4.548  1.00  0.00     0.708 A 
ATOM     14  H5  UNL     1       9.625  48.122  -2.635  1.00  0.00     0.186 HD
HETATM   15  N9  UNL     1       9.176  48.437  -5.803  1.00  0.00    -0.022 N 
HETATM   16  C11 UNL     1      10.235  49.224  -6.087  1.00  0.00     0.692 A 
ATOM     17  H9  UNL     1       8.550  48.155  -6.558  1.00  0.00     0.203 HD
HETATM   18  N11 UNL     1      11.085  49.620  -5.123  1.00  0.00    -0.172 N 
ATOM     19  H11 UNL     1      11.886  50.215  -5.337  1.00  0.00     0.186 HD
BRANCH  13  20
HETATM   20  N6  UNL     1       7.905  47.261  -4.290  1.00  0.00    -0.112 N 
ATOM     21  H6  UNL     1       7.681  46.457  -4.877  1.00  0.00     0.197 HD
BRANCH  20  22
HETATM   22  S1  UNL     1       6.940  47.658  -2.922  1.00  0.00     0.276 S 
HETATM   23  O2  UNL     1       7.351  49.015  -2.384  1.00  0.00    -0.200 OA
HETATM   24  O3  UNL     1       5.514  47.820  -3.418  1.00  0.00    -0.200 OA
BRANCH  22  25
HETATM   25  C5  UNL     1       7.033  46.444  -1.681  1.00  0.00     0.085 A 
HETATM   26  C6  UNL     1       8.247  45.964  -1.232  1.00  0.00     0.061 A 
HETATM   27  C7  UNL     1       8.326  44.995  -0.243  1.00  0.00     0.106 A 
HETATM   28  C8  UNL     1       7.161  44.501   0.305  1.00  0.00     0.072 A 
HETATM   29  C9  UNL     1       5.928  44.962  -0.123  1.00  0.00     0.106 A 
HETATM   30  C10 UNL     1       5.887  45.930  -1.114  1.00  0.00     0.061 A 
BRANCH  27  31
HETATM   31  N7  UNL     1       9.578  44.508   0.212  1.00  0.00    -0.116 N 
HETATM   32  O4  UNL     1       9.880  44.583   1.408  1.00  0.00    -0.532 OA
HETATM   33  O5  UNL     1      10.454  43.953  -0.678  1.00  0.00    -0.532 OA
ENDBRANCH  27  31
BRANCH  29  34
HETATM   34  N8  UNL     1       4.721  44.457   0.437  1.00  0.00    -0.116 N 
HETATM   35  O6  UNL     1       3.695  45.160   0.415  1.00  0.00    -0.532 OA
HETATM   36  O7  UNL     1       4.628  43.217   1.008  1.00  0.00    -0.532 OA
ENDBRANCH  29  34
ENDBRANCH  22  25
ENDBRANCH  20  22
ENDBRANCH  13  20
BRANCH  16  37
HETATM   37  N10 UNL     1      10.491  49.637  -7.283  1.00  0.00    -0.234 N 
ATOM     38 2H10 UNL     1      10.579  50.646  -7.406  1.00  0.00     0.174 HD
ATOM     39 1H10 UNL     1      10.603  48.999  -8.071  1.00  0.00     0.174 HD
ENDBRANCH  16  37
ENDBRANCH   7  11
ENDBRANCH   5   7
ENDBRANCH   4   5
ENDBRANCH   3   4
TORSDOF 10
ENDMDL
MODEL 3
REMARK VINA RESULT: -6.923014777      0.494      2.767
REMARK  10 active torsions:
REMARK  status: ('A' for Active; 'I' for Inactive)
REMARK    1  A    between atoms: O1_3  and  N2_4 
REMARK    2  A    between atoms: N2_4  and  N3_5 
REMARK    3  A    between atoms: N3_5  and  C2_7 
REMARK    4  A    between atoms: C2_7  and  C3_11 
REMARK    5  A    between atoms: C4_14  and  N6_15 
REMARK    6  A    between atoms: N6_15  and  S1_17 
REMARK    7  A    between atoms: S1_17  and  C5_20 
REMARK    8  A    between atoms: C7_22  and  N7_23 
REMARK    9  A    between atoms: C9_27  and  N8_28 
REMARK   10  A    between atoms: C11_34  and  N10_35 
ROOT
HETATM    1  N1  UNL     1       3.063  47.673  -1.973  1.00  0.00    -0.162 NA
HETATM    2  C1  UNL     1       4.029  47.664  -2.614  1.00  0.00     0.250 C 
HETATM    3  O1  UNL     1       5.167  47.657  -3.341  1.00  0.00    -0.144 OA
ENDROOT
BRANCH   3   4
HETATM    4  N2  UNL     1       6.387  48.046  -2.909  1.00  0.00     0.039 NA
BRANCH   4   5
HETATM    5  N3  UNL     1       7.404  47.857  -3.846  1.00  0.00    -0.260 N 
ATOM      6  H3  UNL     1       7.393  47.058  -4.480  1.00  0.00     0.186 HD
BRANCH   5   7
HETATM    7  C2  UNL     1       8.451  48.806  -3.890  1.00  0.00     0.158 C 
HETATM    8  N4  UNL     1       8.398  49.741  -4.770  1.00  0.00    -0.382 N 
ATOM      9  H42 UNL     1       7.601  49.765  -5.407  1.00  0.00     0.157 HD
ATOM     10  H41 UNL     1       9.153  50.425  -4.801  1.00  0.00     0.157 HD
BRANCH   7  11
HETATM   11  C3  UNL     1       9.586  48.771  -2.981  1.00  0.00     0.181 A 
HETATM   12  N5  UNL     1       9.656  47.908  -1.951  1.00  0.00    -0.171 N 
HETATM   13  C4  UNL     1      10.702  47.869  -1.105  1.00  0.00     0.708 A 
ATOM     14  H5  UNL     1       8.885  47.257  -1.805  1.00  0.00     0.186 HD
HETATM   15  N9  UNL     1      11.695  48.750  -1.344  1.00  0.00    -0.022 N 
HETATM   16  C11 UNL     1      11.640  49.622  -2.373  1.00  0.00     0.692 A 
ATOM     17  H9  UNL     1      12.510  48.758  -0.729  1.00  0.00     0.203 HD
HETATM   18  N11 UNL     1      10.585  49.646  -3.208  1.00  0.00    -0.172 N 
ATOM     19  H11 UNL     1      10.543  50.305  -3.987  1.00  0.00     0.186 HD
BRANCH  13  20
HETATM   20  N6  UNL     1      10.767  47.041  -0.117  1.00  0.00    -0.112 N 
ATOM     21  H6  UNL     1      10.826  47.373   0.846  1.00  0.00     0.197 HD
BRANCH  20  22
HETATM   22  S1  UNL     1      10.751  45.359  -0.478  1.00  0.00     0.276 S 
HETATM   23  O2  UNL     1      10.747  45.159  -1.981  1.00  0.00    -0.200 OA
HETATM   24  O3  UNL     1      12.067  44.787   0.017  1.00  0.00    -0.200 OA
BRANCH  22  25
HETATM   25  C5  UNL     1       9.403  44.545   0.260  1.00  0.00     0.085 A 
HETATM   26  C6  UNL     1       8.101  44.895  -0.035  1.00  0.00     0.061 A 
HETATM   27  C7  UNL     1       7.022  44.249   0.552  1.00  0.00     0.106 A 
HETATM   28  C8  UNL     1       7.260  43.231   1.450  1.00  0.00     0.072 A 
HETATM   29  C9  UNL     1       8.555  42.855   1.765  1.00  0.00     0.106 A 
HETATM   30  C10 UNL     1       9.607  43.523   1.162  1.00  0.00     0.061 A 
BRANCH  27  31
HETATM   31  N7  UNL     1       5.688  44.616   0.243  1.00  0.00    -0.116 N 
HETATM   32  O4  UNL     1       5.460  45.557  -0.526  1.00  0.00    -0.532 OA
HETATM   33  O5  UNL     1       4.647  43.926   0.801  1.00  0.00    -0.532 OA
ENDBRANCH  27  31
BRANCH  29  34
HETATM   34  N8  UNL     1       8.809  41.804   2.692  1.00  0.00    -0.116 N 
HETATM   35  O6  UNL     1       9.178  40.693   2.272  1.00  0.00    -0.532 OA
HETATM   36  O7  UNL     1       8.667  41.956   4.044  1.00  0.00    -0.532 OA
ENDBRANCH  29  34
ENDBRANCH  22  25
ENDBRANCH  20  22
ENDBRANCH  13  20
BRANCH  16  37
HETATM   37  N10 UNL     1      12.581  50.471  -2.614  1.00  0.00    -0.234 N 
ATOM     38 2H10 UNL     1      13.238  50.649  -1.853  1.00  0.00     0.174 HD
ATOM     39 1H10 UNL     1      12.676  50.945  -3.512  1.00  0.00     0.174 HD
ENDBRANCH  16  37
ENDBRANCH   7  11
ENDBRANCH   5   7
ENDBRANCH   4   5
ENDBRANCH   3   4
TORSDOF 10
ENDMDL
MODEL 4
REMARK VINA RESULT: -6.669584868      2.327      5.071
REMARK  10 active torsions:
REMARK  status: ('A' for Active; 'I' for Inactive)
REMARK    1  A    between atoms: O1_3  and  N2_4 
REMARK    2  A    between atoms: N2_4  and  N3_5 
REMARK    3  A    between atoms: N3_5  and  C2_7 
REMARK    4  A    between atoms: C2_7  and  C3_11 
REMARK    5  A    between atoms: C4_14  and  N6_15 
REMARK    6  A    between atoms: N6_15  and  S1_17 
REMARK    7  A    between atoms: S1_17  and  C5_20 
REMARK    8  A    between atoms: C7_22  and  N7_23 
REMARK    9  A    between atoms: C9_27  and  N8_28 
REMARK   10  A    between atoms: C11_34  and  N10_35 
ROOT
HETATM    1  N1  UNL     1      11.526  47.675   1.029  1.00  0.00    -0.162 NA
HETATM    2  C1  UNL     1      11.434  47.944  -0.095  1.00  0.00     0.250 C 
HETATM    3  O1  UNL     1      11.342  48.276  -1.400  1.00  0.00    -0.144 OA
ENDROOT
BRANCH   3   4
HETATM    4  N2  UNL     1      11.735  49.446  -1.951  1.00  0.00     0.039 NA
BRANCH   4   5
HETATM    5  N3  UNL     1      12.777  49.316  -2.871  1.00  0.00    -0.260 N 
ATOM      6  H3  UNL     1      13.747  49.266  -2.562  1.00  0.00     0.186 HD
BRANCH   5   7
HETATM    7  C2  UNL     1      12.445  49.254  -4.244  1.00  0.00     0.158 C 
HETATM    8  N4  UNL     1      13.398  49.241  -5.106  1.00  0.00    -0.382 N 
ATOM      9  H42 UNL     1      14.360  49.276  -4.770  1.00  0.00     0.157 HD
ATOM     10  H41 UNL     1      13.159  49.197  -6.097  1.00  0.00     0.157 HD
BRANCH   7  11
HETATM   11  C3  UNL     1      11.073  49.205  -4.723  1.00  0.00     0.181 A 
HETATM   12  N5  UNL     1      10.206  48.258  -4.322  1.00  0.00    -0.171 N 
HETATM   13  C4  UNL     1       8.934  48.204  -4.760  1.00  0.00     0.708 A 
ATOM     14  H5  UNL     1      10.524  47.552  -3.659  1.00  0.00     0.186 HD
HETATM   15  N9  UNL     1       8.564  49.162  -5.635  1.00  0.00    -0.022 N 
HETATM   16  C11 UNL     1       9.423  50.119  -6.047  1.00  0.00     0.692 A 
ATOM     17  H9  UNL     1       7.610  49.163  -5.996  1.00  0.00     0.203 HD
HETATM   18  N11 UNL     1      10.691  50.156  -5.598  1.00  0.00    -0.172 N 
ATOM     19  H11 UNL     1      11.340  50.879  -5.908  1.00  0.00     0.186 HD
BRANCH  13  20
HETATM   20  N6  UNL     1       8.103  47.295  -4.375  1.00  0.00    -0.112 N 
ATOM     21  H6  UNL     1       8.054  46.391  -4.846  1.00  0.00     0.197 HD
BRANCH  20  22
HETATM   22  S1  UNL     1       7.081  47.656  -3.039  1.00  0.00     0.276 S 
HETATM   23  O2  UNL     1       7.397  49.044  -2.515  1.00  0.00    -0.200 OA
HETATM   24  O3  UNL     1       5.661  47.726  -3.574  1.00  0.00    -0.200 OA
BRANCH  22  25
HETATM   25  C5  UNL     1       7.212  46.471  -1.775  1.00  0.00     0.085 A 
HETATM   26  C6  UNL     1       6.093  45.945  -1.162  1.00  0.00     0.061 A 
HETATM   27  C7  UNL     1       6.192  44.998  -0.152  1.00  0.00     0.106 A 
HETATM   28  C8  UNL     1       7.442  44.574   0.246  1.00  0.00     0.072 A 
HETATM   29  C9  UNL     1       8.584  45.081  -0.350  1.00  0.00     0.106 A 
HETATM   30  C10 UNL     1       8.447  46.025  -1.354  1.00  0.00     0.061 A 
BRANCH  27  31
HETATM   31  N7  UNL     1       5.037  44.464   0.473  1.00  0.00    -0.116 N 
HETATM   32  O4  UNL     1       5.064  43.335   0.976  1.00  0.00    -0.532 OA
HETATM   33  O5  UNL     1       3.887  45.202   0.518  1.00  0.00    -0.532 OA
ENDBRANCH  27  31
BRANCH  29  34
HETATM   34  N8  UNL     1       9.878  44.648   0.055  1.00  0.00    -0.116 N 
HETATM   35  O6  UNL     1      10.726  44.361  -0.809  1.00  0.00    -0.532 OA
HETATM   36  O7  UNL     1      10.244  44.529   1.367  1.00  0.00    -0.532 OA
ENDBRANCH  29  34
ENDBRANCH  22  25
ENDBRANCH  20  22
ENDBRANCH  13  20
BRANCH  16  37
HETATM   37  N10 UNL     1       9.084  51.042  -6.884  1.00  0.00    -0.234 N 
ATOM     38 2H10 UNL     1       8.569  50.737  -7.710  1.00  0.00     0.174 HD
ATOM     39 1H10 UNL     1       9.313  52.025  -6.738  1.00  0.00     0.174 HD
ENDBRANCH  16  37
ENDBRANCH   7  11
ENDBRANCH   5   7
ENDBRANCH   4   5
ENDBRANCH   3   4
TORSDOF 10
ENDMDL
MODEL 5
REMARK VINA RESULT: -6.565167224      3.245      6.157
REMARK  10 active torsions:
REMARK  status: ('A' for Active; 'I' for Inactive)
REMARK    1  A    between atoms: O1_3  and  N2_4 
REMARK    2  A    between atoms: N2_4  and  N3_5 
REMARK    3  A    between atoms: N3_5  and  C2_7 
REMARK    4  A    between atoms: C2_7  and  C3_11 
REMARK    5  A    between atoms: C4_14  and  N6_15 
REMARK    6  A    between atoms: N6_15  and  S1_17 
REMARK    7  A    between atoms: S1_17  and  C5_20 
REMARK    8  A    between atoms: C7_22  and  N7_23 
REMARK    9  A    between atoms: C9_27  and  N8_28 
REMARK   10  A    between atoms: C11_34  and  N10_35 
ROOT
HETATM    1  N1  UNL     1      11.841  47.788   1.112  1.00  0.00    -0.162 NA
HETATM    2  C1  UNL     1      11.509  46.821   0.564  1.00  0.00     0.250 C 
HETATM    3  O1  UNL     1      11.140  45.698  -0.087  1.00  0.00    -0.144 OA
ENDROOT
BRANCH   3   4
HETATM    4  N2  UNL     1      11.625  45.275  -1.276  1.00  0.00     0.039 NA
BRANCH   4   5
HETATM    5  N3  UNL     1      11.156  44.018  -1.662  1.00  0.00    -0.260 N 
ATOM      6  H3  UNL     1      10.755  43.375  -0.980  1.00  0.00     0.186 HD
BRANCH   5   7
HETATM    7  C2  UNL     1      11.256  43.663  -3.027  1.00  0.00     0.158 C 
HETATM    8  N4  UNL     1      12.011  42.676  -3.352  1.00  0.00    -0.382 N 
ATOM      9  H42 UNL     1      12.514  42.183  -2.613  1.00  0.00     0.157 HD
ATOM     10  H41 UNL     1      12.083  42.420  -4.336  1.00  0.00     0.157 HD
BRANCH   7  11
HETATM   11  C3  UNL     1      10.539  44.366  -4.079  1.00  0.00     0.181 A 
HETATM   12  N5  UNL     1      10.113  45.633  -3.935  1.00  0.00    -0.171 N 
HETATM   13  C4  UNL     1       9.449  46.292  -4.903  1.00  0.00     0.708 A 
ATOM     14  H5  UNL     1      10.300  46.116  -3.056  1.00  0.00     0.186 HD
HETATM   15  N9  UNL     1       9.229  45.609  -6.045  1.00  0.00    -0.022 N 
HETATM   16  C11 UNL     1       9.651  44.336  -6.205  1.00  0.00     0.692 A 
ATOM     17  H9  UNL     1       8.730  46.066  -6.809  1.00  0.00     0.203 HD
HETATM   18  N11 UNL     1      10.313  43.695  -5.225  1.00  0.00    -0.172 N 
ATOM     19  H11 UNL     1      10.632  42.733  -5.345  1.00  0.00     0.186 HD
BRANCH  13  20
HETATM   20  N6  UNL     1       9.040  47.508  -4.763  1.00  0.00    -0.112 N 
ATOM     21  H6  UNL     1       8.853  48.099  -5.574  1.00  0.00     0.197 HD
BRANCH  20  22
HETATM   22  S1  UNL     1       8.820  48.101  -3.163  1.00  0.00     0.276 S 
HETATM   23  O2  UNL     1      10.130  48.017  -2.403  1.00  0.00    -0.200 OA
HETATM   24  O3  UNL     1       8.499  49.580  -3.279  1.00  0.00    -0.200 OA
BRANCH  22  25
HETATM   25  C5  UNL     1       7.557  47.255  -2.320  1.00  0.00     0.085 A 
HETATM   26  C6  UNL     1       6.230  47.599  -2.477  1.00  0.00     0.061 A 
HETATM   27  C7  UNL     1       5.218  46.927  -1.806  1.00  0.00     0.106 A 
HETATM   28  C8  UNL     1       5.551  45.889  -0.962  1.00  0.00     0.072 A 
HETATM   29  C9  UNL     1       6.873  45.518  -0.784  1.00  0.00     0.106 A 
HETATM   30  C10 UNL     1       7.856  46.212  -1.469  1.00  0.00     0.061 A 
BRANCH  27  31
HETATM   31  N7  UNL     1       3.857  47.288  -1.973  1.00  0.00    -0.116 N 
HETATM   32  O4  UNL     1       3.553  48.283  -2.640  1.00  0.00    -0.532 OA
HETATM   33  O5  UNL     1       2.878  46.531  -1.393  1.00  0.00    -0.532 OA
ENDBRANCH  27  31
BRANCH  29  34
HETATM   34  N8  UNL     1       7.224  44.447   0.086  1.00  0.00    -0.116 N 
HETATM   35  O6  UNL     1       6.400  44.044   0.925  1.00  0.00    -0.532 OA
HETATM   36  O7  UNL     1       8.443  43.827   0.045  1.00  0.00    -0.532 OA
ENDBRANCH  29  34
ENDBRANCH  22  25
ENDBRANCH  20  22
ENDBRANCH  13  20
BRANCH  16  37
HETATM   37  N10 UNL     1       9.447  43.669  -7.291  1.00  0.00    -0.234 N 
ATOM     38 2H10 UNL     1       8.996  44.173  -8.055  1.00  0.00     0.174 HD
ATOM     39 1H10 UNL     1       9.718  42.691  -7.393  1.00  0.00     0.174 HD
ENDBRANCH  16  37
ENDBRANCH   7  11
ENDBRANCH   5   7
ENDBRANCH   4   5
ENDBRANCH   3   4
TORSDOF 10
ENDMDL
