MODEL 1
REMARK VINA RESULT: -4.130355483      0.000      0.000
REMARK  1 active torsions:
REMARK  status: ('A' for Active; 'I' for Inactive)
REMARK    1  A    between atoms: C3_3  and  N1_4 
REMARK       I    between atoms: N1_4  and  C6_7 
REMARK       I    between atoms: C6_7  and  N3_11 
ROOT
HETATM    1  C1  UNL     1      87.625  66.032 -10.343  1.00  0.00     0.113 C 
HETATM    2  C2  UNL     1      86.848  67.276 -10.309  1.00  0.00    -0.080 C 
HETATM    3  C3  UNL     1      86.204  68.298 -10.274  1.00  0.00     0.124 C 
ENDROOT
BRANCH   3   4
HETATM    4  N1  UNL     1      85.466  69.514 -10.223  1.00  0.00     0.050 N 
HETATM    5  C4  UNL     1      86.237  70.588 -10.807  1.00  0.00     0.300 C 
HETATM    6  C5  UNL     1      85.313  69.836  -8.794  1.00  0.00     0.300 C 
HETATM    7  C6  UNL     1      84.196  69.334 -10.802  1.00  0.00     0.289 C 
HETATM    8  N2  UNL     1      83.988  69.260 -12.055  1.00  0.00    -0.359 N 
HETATM    9  N3  UNL     1      83.071  69.226  -9.941  1.00  0.00    -0.359 N 
HETATM   10  C7  UNL     1      84.925  69.336 -13.122  1.00  0.00     0.149 C 
ATOM     11  H2  UNL     1      83.015  69.129 -12.332  1.00  0.00     0.162 HD
HETATM   12  C8  UNL     1      82.430  67.963  -9.701  1.00  0.00     0.149 C 
ATOM     13  H3  UNL     1      82.711  70.063  -9.484  1.00  0.00     0.162 HD
ENDBRANCH   3   4
TORSDOF 1
ENDMDL
MODEL 2
REMARK VINA RESULT: -3.082497764      1.224      1.287
REMARK  1 active torsions:
REMARK  status: ('A' for Active; 'I' for Inactive)
REMARK    1  A    between atoms: C3_3  and  N1_4 
REMARK       I    between atoms: N1_4  and  C6_7 
REMARK       I    between atoms: C6_7  and  N3_11 
ROOT
HETATM    1  C1  UNL     1      87.775  65.492  -9.813  1.00  0.00     0.113 C 
HETATM    2  C2  UNL     1      87.261  66.817 -10.178  1.00  0.00    -0.080 C 
HETATM    3  C3  UNL     1      86.843  67.911 -10.472  1.00  0.00     0.124 C 
ENDROOT
BRANCH   3   4
HETATM    4  N1  UNL     1      86.367  69.203 -10.835  1.00  0.00     0.050 N 
HETATM    5  C4  UNL     1      86.958  69.616 -12.087  1.00  0.00     0.300 C 
HETATM    6  C5  UNL     1      86.877  70.126  -9.806  1.00  0.00     0.300 C 
HETATM    7  C6  UNL     1      84.960  69.221 -10.827  1.00  0.00     0.289 C 
HETATM    8  N2  UNL     1      84.235  68.700 -11.733  1.00  0.00    -0.359 N 
HETATM    9  N3  UNL     1      84.300  69.858  -9.741  1.00  0.00    -0.359 N 
HETATM   10  C7  UNL     1      84.635  68.010 -12.911  1.00  0.00     0.149 C 
ATOM     11  H2  UNL     1      83.229  68.789 -11.596  1.00  0.00     0.162 HD
HETATM   12  C8  UNL     1      83.654  69.098  -8.707  1.00  0.00     0.149 C 
ATOM     13  H3  UNL     1      84.283  70.876  -9.696  1.00  0.00     0.162 HD
ENDBRANCH   3   4
TORSDOF 1
ENDMDL
MODEL 3
REMARK VINA RESULT: -2.073379181      1.436      3.831
REMARK  1 active torsions:
REMARK  status: ('A' for Active; 'I' for Inactive)
REMARK    1  A    between atoms: C3_3  and  N1_4 
REMARK       I    between atoms: N1_4  and  C6_7 
REMARK       I    between atoms: C6_7  and  N3_11 
ROOT
HETATM    1  C1  UNL     1      82.204  69.112  -8.789  1.00  0.00     0.113 C 
HETATM    2  C2  UNL     1      83.153  68.954  -9.897  1.00  0.00    -0.080 C 
HETATM    3  C3  UNL     1      83.939  68.830 -10.805  1.00  0.00     0.124 C 
ENDROOT
BRANCH   3   4
HETATM    4  N1  UNL     1      84.875  68.663 -11.865  1.00  0.00     0.050 N 
HETATM    5  C4  UNL     1      84.619  69.628 -12.910  1.00  0.00     0.300 C 
HETATM    6  C5  UNL     1      84.600  67.336 -12.443  1.00  0.00     0.300 C 
HETATM    7  C6  UNL     1      86.188  68.694 -11.361  1.00  0.00     0.289 C 
HETATM    8  N2  UNL     1      86.789  69.755 -10.999  1.00  0.00    -0.359 N 
HETATM    9  N3  UNL     1      86.895  67.466 -11.245  1.00  0.00    -0.359 N 
HETATM   10  C7  UNL     1      86.317  71.097 -11.010  1.00  0.00     0.149 C 
ATOM     11  H2  UNL     1      87.739  69.626 -10.653  1.00  0.00     0.162 HD
HETATM   12  C8  UNL     1      87.107  66.841  -9.969  1.00  0.00     0.149 C 
ATOM     13  H3  UNL     1      87.260  67.019 -12.086  1.00  0.00     0.162 HD
ENDBRANCH   3   4
TORSDOF 1
ENDMDL
MODEL 4
REMARK VINA RESULT: -1.924441486      1.551      3.445
REMARK  1 active torsions:
REMARK  status: ('A' for Active; 'I' for Inactive)
REMARK    1  A    between atoms: C3_3  and  N1_4 
REMARK       I    between atoms: N1_4  and  C6_7 
REMARK       I    between atoms: C6_7  and  N3_11 
ROOT
HETATM    1  C1  UNL     1      82.084  69.163  -8.494  1.00  0.00     0.113 C 
HETATM    2  C2  UNL     1      83.390  69.036  -9.150  1.00  0.00    -0.080 C 
HETATM    3  C3  UNL     1      84.463  68.923  -9.693  1.00  0.00     0.124 C 
ENDROOT
BRANCH   3   4
HETATM    4  N1  UNL     1      85.720  68.804 -10.351  1.00  0.00     0.050 N 
HETATM    5  C4  UNL     1      86.166  67.430 -10.326  1.00  0.00     0.300 C 
HETATM    6  C5  UNL     1      86.678  69.571  -9.536  1.00  0.00     0.300 C 
HETATM    7  C6  UNL     1      85.646  69.364 -11.640  1.00  0.00     0.289 C 
HETATM    8  N2  UNL     1      85.075  68.803 -12.629  1.00  0.00    -0.359 N 
HETATM    9  N3  UNL     1      86.242  70.635 -11.859  1.00  0.00    -0.359 N 
HETATM   10  C7  UNL     1      84.409  67.548 -12.682  1.00  0.00     0.149 C 
ATOM     11  H2  UNL     1      85.100  69.326 -13.505  1.00  0.00     0.162 HD
HETATM   12  C8  UNL     1      85.446  71.822 -11.998  1.00  0.00     0.149 C 
ATOM     13  H3  UNL     1      87.258  70.706 -11.919  1.00  0.00     0.162 HD
ENDBRANCH   3   4
TORSDOF 1
ENDMDL
MODEL 5
REMARK VINA RESULT: -1.676895679      1.457      2.213
REMARK  1 active torsions:
REMARK  status: ('A' for Active; 'I' for Inactive)
REMARK    1  A    between atoms: C3_3  and  N1_4 
REMARK       I    between atoms: N1_4  and  C6_7 
REMARK       I    between atoms: C6_7  and  N3_11 
ROOT
HETATM    1  C1  UNL     1      88.207  65.392  -9.910  1.00  0.00     0.113 C 
HETATM    2  C2  UNL     1      87.332  66.567  -9.991  1.00  0.00    -0.080 C 
HETATM    3  C3  UNL     1      86.610  67.532 -10.067  1.00  0.00     0.124 C 
ENDROOT
BRANCH   3   4
HETATM    4  N1  UNL     1      85.741  68.657 -10.146  1.00  0.00     0.050 N 
HETATM    5  C4  UNL     1      86.182  69.691  -9.238  1.00  0.00     0.300 C 
HETATM    6  C5  UNL     1      84.434  68.194  -9.649  1.00  0.00     0.300 C 
HETATM    7  C6  UNL     1      85.614  69.078 -11.482  1.00  0.00     0.289 C 
HETATM    8  N2  UNL     1      86.508  69.725 -12.114  1.00  0.00    -0.359 N 
HETATM    9  N3  UNL     1      84.415  68.763 -12.178  1.00  0.00    -0.359 N 
HETATM   10  C7  UNL     1      87.783  70.162 -11.660  1.00  0.00     0.149 C 
ATOM     11  H2  UNL     1      86.279  69.964 -13.079  1.00  0.00     0.162 HD
HETATM   12  C8  UNL     1      84.377  67.729 -13.175  1.00  0.00     0.149 C 
ATOM     13  H3  UNL     1      83.564  69.282 -11.965  1.00  0.00     0.162 HD
ENDBRANCH   3   4
TORSDOF 1
ENDMDL
