MODEL 1
REMARK VINA RESULT: -4.931808782      0.000      0.000
REMARK  4 active torsions:
REMARK  status: ('A' for Active; 'I' for Inactive)
REMARK    1  A    between atoms: C3_3  and  N1_4 
REMARK       I    between atoms: N1_4  and  C4_6 
REMARK    2  A    between atoms: C4_6  and  C5_8 
REMARK    3  A    between atoms: C6_9  and  C7_10 
REMARK    4  A    between atoms: C8_11  and  C9_12 
ROOT
HETATM    1  C1  UNL     1      88.838  63.826  -9.223  1.00  0.00     0.014 C 
HETATM    2  C2  UNL     1      88.546  64.832  -9.820  1.00  0.00    -0.098 C 
HETATM    3  C3  UNL     1      88.218  66.058 -10.544  1.00  0.00     0.217 C 
ENDROOT
BRANCH   3   4
HETATM    4  N1  UNL     1      87.052  66.691  -9.983  1.00  0.00    -0.340 N 
HETATM    5  C4  UNL     1      86.594  67.959 -10.416  1.00  0.00     0.298 C 
HETATM    6  O1  UNL     1      87.198  68.605 -11.331  1.00  0.00    -0.258 OA
ATOM      7  H1  UNL     1      86.537  66.208  -9.247  1.00  0.00     0.164 HD
BRANCH   5   8
HETATM    8  C5  UNL     1      85.436  68.602  -9.866  1.00  0.00     0.009 C 
HETATM    9  C6  UNL     1      84.456  69.136  -9.383  1.00  0.00    -0.005 C 
BRANCH   9  10
HETATM   10  C7  UNL     1      83.303  69.739  -8.808  1.00  0.00    -0.014 C 
HETATM   11  C8  UNL     1      82.322  70.240  -8.301  1.00  0.00    -0.088 C 
BRANCH  11  12
HETATM   12  C9  UNL     1      81.139  70.829  -7.670  1.00  0.00     0.058 C 
HETATM   13  C10 UNL     1      81.421  71.287  -6.258  1.00  0.00     0.023 C 
HETATM   14  C11 UNL     1      79.989  69.848  -7.603  1.00  0.00     0.023 C 
ENDBRANCH  11  12
ENDBRANCH   9  10
ENDBRANCH   5   8
ENDBRANCH   3   4
TORSDOF 4
ENDMDL
MODEL 2
REMARK VINA RESULT: -4.704429298      4.538      5.936
REMARK  4 active torsions:
REMARK  status: ('A' for Active; 'I' for Inactive)
REMARK    1  A    between atoms: C3_3  and  N1_4 
REMARK       I    between atoms: N1_4  and  C4_6 
REMARK    2  A    between atoms: C4_6  and  C5_8 
REMARK    3  A    between atoms: C6_9  and  C7_10 
REMARK    4  A    between atoms: C8_11  and  C9_12 
ROOT
HETATM    1  C1  UNL     1      87.248  69.880 -11.415  1.00  0.00     0.014 C 
HETATM    2  C2  UNL     1      86.263  70.056 -10.744  1.00  0.00    -0.098 C 
HETATM    3  C3  UNL     1      85.084  70.270  -9.907  1.00  0.00     0.217 C 
ENDROOT
BRANCH   3   4
HETATM    4  N1  UNL     1      84.018  69.375 -10.281  1.00  0.00    -0.340 N 
HETATM    5  C4  UNL     1      82.791  69.322  -9.577  1.00  0.00     0.298 C 
HETATM    6  O1  UNL     1      82.569  70.070  -8.572  1.00  0.00    -0.258 OA
ATOM      7  H1  UNL     1      84.153  68.758 -11.081  1.00  0.00     0.164 HD
BRANCH   5   8
HETATM    8  C5  UNL     1      81.721  68.436  -9.937  1.00  0.00     0.009 C 
HETATM    9  C6  UNL     1      80.826  67.669 -10.235  1.00  0.00    -0.005 C 
BRANCH   9  10
HETATM   10  C7  UNL     1      79.796  66.756 -10.593  1.00  0.00    -0.014 C 
HETATM   11  C8  UNL     1      78.930  65.961 -10.890  1.00  0.00    -0.088 C 
BRANCH  11  12
HETATM   12  C9  UNL     1      77.898  64.983 -11.242  1.00  0.00     0.058 C 
HETATM   13  C10 UNL     1      77.512  64.120 -10.063  1.00  0.00     0.023 C 
HETATM   14  C11 UNL     1      78.354  64.056 -12.347  1.00  0.00     0.023 C 
ENDBRANCH  11  12
ENDBRANCH   9  10
ENDBRANCH   5   8
ENDBRANCH   3   4
TORSDOF 4
ENDMDL
MODEL 3
REMARK VINA RESULT: -4.472464085      4.653      7.283
REMARK  4 active torsions:
REMARK  status: ('A' for Active; 'I' for Inactive)
REMARK    1  A    between atoms: C3_3  and  N1_4 
REMARK       I    between atoms: N1_4  and  C4_6 
REMARK    2  A    between atoms: C4_6  and  C5_8 
REMARK    3  A    between atoms: C6_9  and  C7_10 
REMARK    4  A    between atoms: C8_11  and  C9_12 
ROOT
HETATM    1  C1  UNL     1      77.626  63.912  -9.436  1.00  0.00     0.014 C 
HETATM    2  C2  UNL     1      77.928  64.770 -10.225  1.00  0.00    -0.098 C 
HETATM    3  C3  UNL     1      78.284  65.796 -11.203  1.00  0.00     0.217 C 
ENDROOT
BRANCH   3   4
HETATM    4  N1  UNL     1      79.622  66.281 -10.978  1.00  0.00    -0.340 N 
HETATM    5  C4  UNL     1      79.951  67.657 -11.041  1.00  0.00     0.298 C 
HETATM    6  O1  UNL     1      79.071  68.538 -11.301  1.00  0.00    -0.258 OA
ATOM      7  H1  UNL     1      80.358  65.608 -10.766  1.00  0.00     0.164 HD
BRANCH   5   8
HETATM    8  C5  UNL     1      81.279  68.153 -10.820  1.00  0.00     0.009 C 
HETATM    9  C6  UNL     1      82.406  68.577 -10.653  1.00  0.00    -0.005 C 
BRANCH   9  10
HETATM   10  C7  UNL     1      83.732  69.061 -10.477  1.00  0.00    -0.014 C 
HETATM   11  C8  UNL     1      84.870  69.459 -10.344  1.00  0.00    -0.088 C 
BRANCH  11  12
HETATM   12  C9  UNL     1      86.251  69.924 -10.197  1.00  0.00     0.058 C 
HETATM   13  C10 UNL     1      87.086  69.605 -11.416  1.00  0.00     0.023 C 
HETATM   14  C11 UNL     1      86.935  69.291  -9.006  1.00  0.00     0.023 C 
ENDBRANCH  11  12
ENDBRANCH   9  10
ENDBRANCH   5   8
ENDBRANCH   3   4
TORSDOF 4
ENDMDL
MODEL 4
REMARK VINA RESULT: -4.288993294      5.297      6.706
REMARK  4 active torsions:
REMARK  status: ('A' for Active; 'I' for Inactive)
REMARK    1  A    between atoms: C3_3  and  N1_4 
REMARK       I    between atoms: N1_4  and  C4_6 
REMARK    2  A    between atoms: C4_6  and  C5_8 
REMARK    3  A    between atoms: C6_9  and  C7_10 
REMARK    4  A    between atoms: C8_11  and  C9_12 
ROOT
HETATM    1  C1  UNL     1      86.556  69.428  -9.433  1.00  0.00     0.014 C 
HETATM    2  C2  UNL     1      85.394  69.630  -9.185  1.00  0.00    -0.098 C 
HETATM    3  C3  UNL     1      83.992  69.879  -8.858  1.00  0.00     0.217 C 
ENDROOT
BRANCH   3   4
HETATM    4  N1  UNL     1      83.137  68.897  -9.476  1.00  0.00    -0.340 N 
HETATM    5  C4  UNL     1      81.727  69.032  -9.510  1.00  0.00     0.298 C 
HETATM    6  O1  UNL     1      81.145  70.039  -8.993  1.00  0.00    -0.258 OA
ATOM      7  H1  UNL     1      83.562  68.075  -9.903  1.00  0.00     0.164 HD
BRANCH   5   8
HETATM    8  C5  UNL     1      80.864  68.063 -10.120  1.00  0.00     0.009 C 
HETATM    9  C6  UNL     1      80.145  67.226 -10.632  1.00  0.00    -0.005 C 
BRANCH   9  10
HETATM   10  C7  UNL     1      79.325  66.237 -11.241  1.00  0.00    -0.014 C 
HETATM   11  C8  UNL     1      78.643  65.384 -11.769  1.00  0.00    -0.088 C 
BRANCH  11  12
HETATM   12  C9  UNL     1      77.839  64.346 -12.418  1.00  0.00     0.058 C 
HETATM   13  C10 UNL     1      78.065  62.987 -11.798  1.00  0.00     0.023 C 
HETATM   14  C11 UNL     1      78.157  64.226 -13.892  1.00  0.00     0.023 C 
ENDBRANCH  11  12
ENDBRANCH   9  10
ENDBRANCH   5   8
ENDBRANCH   3   4
TORSDOF 4
ENDMDL
MODEL 5
REMARK VINA RESULT: -4.282633184      5.364      6.988
REMARK  4 active torsions:
REMARK  status: ('A' for Active; 'I' for Inactive)
REMARK    1  A    between atoms: C3_3  and  N1_4 
REMARK       I    between atoms: N1_4  and  C4_6 
REMARK    2  A    between atoms: C4_6  and  C5_8 
REMARK    3  A    between atoms: C6_9  and  C7_10 
REMARK    4  A    between atoms: C8_11  and  C9_12 
ROOT
HETATM    1  C1  UNL     1      85.536  69.239  -9.525  1.00  0.00     0.014 C 
HETATM    2  C2  UNL     1      84.408  69.554  -9.239  1.00  0.00    -0.098 C 
HETATM    3  C3  UNL     1      83.051  69.950  -8.870  1.00  0.00     0.217 C 
ENDROOT
BRANCH   3   4
HETATM    4  N1  UNL     1      82.139  68.842  -8.998  1.00  0.00    -0.340 N 
HETATM    5  C4  UNL     1      81.312  68.667 -10.134  1.00  0.00     0.298 C 
HETATM    6  O1  UNL     1      81.337  69.488 -11.105  1.00  0.00    -0.258 OA
ATOM      7  H1  UNL     1      82.087  68.159  -8.242  1.00  0.00     0.164 HD
BRANCH   5   8
HETATM    8  C5  UNL     1      80.398  67.569 -10.274  1.00  0.00     0.009 C 
HETATM    9  C6  UNL     1      79.635  66.629 -10.379  1.00  0.00    -0.005 C 
BRANCH   9  10
HETATM   10  C7  UNL     1      78.761  65.514 -10.500  1.00  0.00    -0.014 C 
HETATM   11  C8  UNL     1      78.024  64.554 -10.586  1.00  0.00    -0.088 C 
BRANCH  11  12
HETATM   12  C9  UNL     1      77.146  63.385 -10.670  1.00  0.00     0.058 C 
HETATM   13  C10 UNL     1      77.134  62.594  -9.383  1.00  0.00     0.023 C 
HETATM   14  C11 UNL     1      77.570  62.441 -11.774  1.00  0.00     0.023 C 
ENDBRANCH  11  12
ENDBRANCH   9  10
ENDBRANCH   5   8
ENDBRANCH   3   4
TORSDOF 4
ENDMDL
