MODEL 1
REMARK VINA RESULT: -5.474980878      0.000      0.000
REMARK  7 active torsions:
REMARK  status: ('A' for Active; 'I' for Inactive)
REMARK    1  A    between atoms: N1_1  and  C1_4 
REMARK    2  A    between atoms: C1_4  and  C2_5 
REMARK    3  A    between atoms: C2_5  and  C3_6 
REMARK    4  A    between atoms: C3_6  and  N2_7 
REMARK       I    between atoms: N2_7  and  C4_9 
REMARK    5  A    between atoms: C4_9  and  C5_11 
REMARK    6  A    between atoms: C6_12  and  C7_13 
REMARK    7  A    between atoms: C7_13  and  C8_15 
ROOT
HETATM    1  C5  UNL     1      10.651  14.497  36.905  1.00  0.00     0.077 C 
HETATM    2  C6  UNL     1      10.068  15.088  37.872  1.00  0.00     0.057 C 
ENDROOT
BRANCH   1   3
HETATM    3  C4  UNL     1      10.274  14.082  35.606  1.00  0.00     0.241 C 
HETATM    4  N2  UNL     1       8.930  13.498  35.439  1.00  0.00    -0.357 N 
ATOM      5  H2  UNL     1       8.312  13.380  36.242  1.00  0.00     0.162 HD
HETATM    6  O1  UNL     1      10.946  14.172  34.614  1.00  0.00    -0.269 OA
BRANCH   4   7
HETATM    7  C3  UNL     1       8.507  13.096  34.124  1.00  0.00     0.136 C 
BRANCH   7   8
HETATM    8  C2  UNL     1       7.110  13.491  33.890  1.00  0.00     0.123 C 
BRANCH   8   9
HETATM    9  C1  UNL     1       6.894  14.539  33.136  1.00  0.00    -0.076 C 
BRANCH   9  10
HETATM   10  N1  UNL     1       6.514  15.341  32.158  1.00  0.00    -0.370 N 
ATOM     11  H12 UNL     1       5.634  14.850  31.999  1.00  0.00     0.165 HD
ATOM     12  H11 UNL     1       6.472  16.085  31.462  1.00  0.00     0.165 HD
ENDBRANCH   9  10
ENDBRANCH   8   9
ENDBRANCH   7   8
ENDBRANCH   4   7
ENDBRANCH   1   3
BRANCH   2  13
HETATM   13  C7  UNL     1       8.722  15.593  37.925  1.00  0.00     0.172 C 
HETATM   14  O2  UNL     1       8.318  16.592  37.412  1.00  0.00    -0.291 OA
BRANCH  13  15
HETATM   15  C8  UNL     1       7.743  14.749  38.730  1.00  0.00     0.190 C 
HETATM   16  C9  UNL     1       6.789  15.649  39.429  1.00  0.00     0.151 C 
HETATM   17  N3  UNL     1       5.698  14.903  40.013  1.00  0.00    -0.383 N 
HETATM   18  C10 UNL     1       5.222  13.915  39.271  1.00  0.00     0.189 C 
ATOM     19  H3  UNL     1       5.320  15.124  40.934  1.00  0.00     0.160 HD
HETATM   20  N4  UNL     1       5.800  13.670  38.016  1.00  0.00    -0.299 N 
HETATM   21  N5  UNL     1       7.218  13.724  37.906  1.00  0.00    -0.126 NA
ATOM     22  H4  UNL     1       5.219  13.459  37.205  1.00  0.00     0.183 HD
ENDBRANCH  13  15
ENDBRANCH   2  13
TORSDOF 7
ENDMDL
MODEL 2
REMARK VINA RESULT: -5.285806419      1.254      1.641
REMARK  7 active torsions:
REMARK  status: ('A' for Active; 'I' for Inactive)
REMARK    1  A    between atoms: N1_1  and  C1_4 
REMARK    2  A    between atoms: C1_4  and  C2_5 
REMARK    3  A    between atoms: C2_5  and  C3_6 
REMARK    4  A    between atoms: C3_6  and  N2_7 
REMARK       I    between atoms: N2_7  and  C4_9 
REMARK    5  A    between atoms: C4_9  and  C5_11 
REMARK    6  A    between atoms: C6_12  and  C7_13 
REMARK    7  A    between atoms: C7_13  and  C8_15 
ROOT
HETATM    1  C5  UNL     1      10.452  15.114  37.101  1.00  0.00     0.077 C 
HETATM    2  C6  UNL     1      10.068  15.252  38.308  1.00  0.00     0.057 C 
ENDROOT
BRANCH   1   3
HETATM    3  C4  UNL     1      10.185  14.194  36.059  1.00  0.00     0.241 C 
HETATM    4  N2  UNL     1       8.860  14.260  35.412  1.00  0.00    -0.357 N 
ATOM      5  H2  UNL     1       8.162  14.932  35.728  1.00  0.00     0.162 HD
HETATM    6  O1  UNL     1      10.946  13.364  35.639  1.00  0.00    -0.269 OA
BRANCH   4   7
HETATM    7  C3  UNL     1       8.573  13.359  34.329  1.00  0.00     0.136 C 
BRANCH   7   8
HETATM    8  C2  UNL     1       7.170  13.491  33.908  1.00  0.00     0.123 C 
BRANCH   8   9
HETATM    9  C1  UNL     1       6.849  14.536  33.188  1.00  0.00    -0.076 C 
BRANCH   9  10
HETATM   10  N1  UNL     1       6.534  15.338  32.188  1.00  0.00    -0.370 N 
ATOM     11  H12 UNL     1       7.264  14.980  31.574  1.00  0.00     0.165 HD
ATOM     12  H11 UNL     1       6.091  16.047  31.603  1.00  0.00     0.165 HD
ENDBRANCH   9  10
ENDBRANCH   8   9
ENDBRANCH   7   8
ENDBRANCH   4   7
ENDBRANCH   1   3
BRANCH   2  13
HETATM   13  C7  UNL     1       9.125  14.449  39.039  1.00  0.00     0.172 C 
HETATM   14  O2  UNL     1       9.378  13.675  39.911  1.00  0.00    -0.291 OA
BRANCH  13  15
HETATM   15  C8  UNL     1       7.668  14.625  38.631  1.00  0.00     0.190 C 
HETATM   16  C9  UNL     1       7.084  13.292  38.335  1.00  0.00     0.151 C 
HETATM   17  N3  UNL     1       5.650  13.372  38.175  1.00  0.00    -0.383 N 
HETATM   18  C10 UNL     1       5.026  14.171  39.026  1.00  0.00     0.189 C 
ATOM     19  H3  UNL     1       5.153  12.848  37.454  1.00  0.00     0.160 HD
HETATM   20  N4  UNL     1       5.780  14.863  39.986  1.00  0.00    -0.299 N 
HETATM   21  N5  UNL     1       7.011  15.451  39.577  1.00  0.00    -0.126 NA
ATOM     22  H4  UNL     1       5.456  14.942  40.949  1.00  0.00     0.183 HD
ENDBRANCH  13  15
ENDBRANCH   2  13
TORSDOF 7
ENDMDL
MODEL 3
REMARK VINA RESULT: -5.130418815      1.603      1.850
REMARK  7 active torsions:
REMARK  status: ('A' for Active; 'I' for Inactive)
REMARK    1  A    between atoms: N1_1  and  C1_4 
REMARK    2  A    between atoms: C1_4  and  C2_5 
REMARK    3  A    between atoms: C2_5  and  C3_6 
REMARK    4  A    between atoms: C3_6  and  N2_7 
REMARK       I    between atoms: N2_7  and  C4_9 
REMARK    5  A    between atoms: C4_9  and  C5_11 
REMARK    6  A    between atoms: C6_12  and  C7_13 
REMARK    7  A    between atoms: C7_13  and  C8_15 
ROOT
HETATM    1  C5  UNL     1      10.728  14.561  36.933  1.00  0.00     0.077 C 
HETATM    2  C6  UNL     1      10.139  14.789  38.040  1.00  0.00     0.057 C 
ENDROOT
BRANCH   1   3
HETATM    3  C4  UNL     1      10.321  14.131  35.647  1.00  0.00     0.241 C 
HETATM    4  N2  UNL     1       8.985  13.515  35.525  1.00  0.00    -0.357 N 
ATOM      5  H2  UNL     1       8.395  13.388  36.347  1.00  0.00     0.162 HD
HETATM    6  O1  UNL     1      10.959  14.231  34.634  1.00  0.00    -0.269 OA
BRANCH   4   7
HETATM    7  C3  UNL     1       8.531  13.099  34.225  1.00  0.00     0.136 C 
BRANCH   7   8
HETATM    8  C2  UNL     1       7.150  13.548  33.994  1.00  0.00     0.123 C 
BRANCH   8   9
HETATM    9  C1  UNL     1       6.966  14.537  33.157  1.00  0.00    -0.076 C 
BRANCH   9  10
HETATM   10  N1  UNL     1       6.509  15.312  32.191  1.00  0.00    -0.370 N 
ATOM     11  H12 UNL     1       6.604  16.170  32.735  1.00  0.00     0.165 HD
ATOM     12  H11 UNL     1       6.137  15.660  31.307  1.00  0.00     0.165 HD
ENDBRANCH   9  10
ENDBRANCH   8   9
ENDBRANCH   7   8
ENDBRANCH   4   7
ENDBRANCH   1   3
BRANCH   2  13
HETATM   13  C7  UNL     1       8.735  14.701  38.337  1.00  0.00     0.172 C 
HETATM   14  O2  UNL     1       7.847  15.206  37.720  1.00  0.00    -0.291 OA
BRANCH  13  15
HETATM   15  C8  UNL     1       8.381  13.882  39.571  1.00  0.00     0.190 C 
HETATM   16  C9  UNL     1       9.283  14.271  40.685  1.00  0.00     0.151 C 
HETATM   17  N3  UNL     1       8.842  13.703  41.938  1.00  0.00    -0.383 N 
HETATM   18  C10 UNL     1       7.533  13.713  42.139  1.00  0.00     0.189 C 
ATOM     19  H3  UNL     1       9.496  13.321  42.622  1.00  0.00     0.160 HD
HETATM   20  N4  UNL     1       6.699  14.251  41.148  1.00  0.00    -0.299 N 
HETATM   21  N5  UNL     1       6.983  13.939  39.787  1.00  0.00    -0.126 NA
ATOM     22  H4  UNL     1       5.911  14.850  41.395  1.00  0.00     0.183 HD
ENDBRANCH  13  15
ENDBRANCH   2  13
TORSDOF 7
ENDMDL
MODEL 4
REMARK VINA RESULT: -5.123282518      1.473      1.502
REMARK  7 active torsions:
REMARK  status: ('A' for Active; 'I' for Inactive)
REMARK    1  A    between atoms: N1_1  and  C1_4 
REMARK    2  A    between atoms: C1_4  and  C2_5 
REMARK    3  A    between atoms: C2_5  and  C3_6 
REMARK    4  A    between atoms: C3_6  and  N2_7 
REMARK       I    between atoms: N2_7  and  C4_9 
REMARK    5  A    between atoms: C4_9  and  C5_11 
REMARK    6  A    between atoms: C6_12  and  C7_13 
REMARK    7  A    between atoms: C7_13  and  C8_15 
ROOT
HETATM    1  C5  UNL     1      10.304  15.247  37.093  1.00  0.00     0.077 C 
HETATM    2  C6  UNL     1       9.881  15.402  38.285  1.00  0.00     0.057 C 
ENDROOT
BRANCH   1   3
HETATM    3  C4  UNL     1      10.132  14.270  36.084  1.00  0.00     0.241 C 
HETATM    4  N2  UNL     1       8.810  14.186  35.433  1.00  0.00    -0.357 N 
ATOM      5  H2  UNL     1       8.049  14.798  35.724  1.00  0.00     0.162 HD
HETATM    6  O1  UNL     1      10.971  13.503  35.694  1.00  0.00    -0.269 OA
BRANCH   4   7
HETATM    7  C3  UNL     1       8.616  13.223  34.382  1.00  0.00     0.136 C 
BRANCH   7   8
HETATM    8  C2  UNL     1       7.251  13.320  33.842  1.00  0.00     0.123 C 
BRANCH   8   9
HETATM    9  C1  UNL     1       6.922  14.423  33.219  1.00  0.00    -0.076 C 
BRANCH   9  10
HETATM   10  N1  UNL     1       6.562  15.303  32.303  1.00  0.00    -0.370 N 
ATOM     11  H12 UNL     1       6.528  14.615  31.551  1.00  0.00     0.165 HD
ATOM     12  H11 UNL     1       6.298  16.161  31.819  1.00  0.00     0.165 HD
ENDBRANCH   9  10
ENDBRANCH   8   9
ENDBRANCH   7   8
ENDBRANCH   4   7
ENDBRANCH   1   3
BRANCH   2  13
HETATM   13  C7  UNL     1       8.982  14.561  39.027  1.00  0.00     0.172 C 
HETATM   14  O2  UNL     1       9.285  13.648  39.735  1.00  0.00    -0.291 OA
BRANCH  13  15
HETATM   15  C8  UNL     1       7.504  14.889  38.868  1.00  0.00     0.190 C 
HETATM   16  C9  UNL     1       7.363  16.322  38.501  1.00  0.00     0.151 C 
HETATM   17  N3  UNL     1       6.008  16.630  38.106  1.00  0.00    -0.383 N 
HETATM   18  C10 UNL     1       5.409  15.714  37.360  1.00  0.00     0.189 C 
ATOM     19  H3  UNL     1       5.544  17.495  38.384  1.00  0.00     0.160 HD
HETATM   20  N4  UNL     1       6.112  14.547  37.025  1.00  0.00    -0.299 N 
HETATM   21  N5  UNL     1       6.894  13.919  38.036  1.00  0.00    -0.126 NA
ATOM     22  H4  UNL     1       6.064  14.160  36.083  1.00  0.00     0.183 HD
ENDBRANCH  13  15
ENDBRANCH   2  13
TORSDOF 7
ENDMDL
MODEL 5
REMARK VINA RESULT: -5.098462128      2.975      4.198
REMARK  7 active torsions:
REMARK  status: ('A' for Active; 'I' for Inactive)
REMARK    1  A    between atoms: N1_1  and  C1_4 
REMARK    2  A    between atoms: C1_4  and  C2_5 
REMARK    3  A    between atoms: C2_5  and  C3_6 
REMARK    4  A    between atoms: C3_6  and  N2_7 
REMARK       I    between atoms: N2_7  and  C4_9 
REMARK    5  A    between atoms: C4_9  and  C5_11 
REMARK    6  A    between atoms: C6_12  and  C7_13 
REMARK    7  A    between atoms: C7_13  and  C8_15 
ROOT
HETATM    1  C5  UNL     1       7.211  16.086  36.755  1.00  0.00     0.077 C 
HETATM    2  C6  UNL     1       7.609  16.237  37.956  1.00  0.00     0.057 C 
ENDROOT
BRANCH   1   3
HETATM    3  C4  UNL     1       7.610  15.288  35.656  1.00  0.00     0.241 C 
HETATM    4  N2  UNL     1       7.495  13.824  35.798  1.00  0.00    -0.357 N 
ATOM      5  H2  UNL     1       7.162  13.411  36.669  1.00  0.00     0.162 HD
HETATM    6  O1  UNL     1       8.026  15.693  34.604  1.00  0.00    -0.269 OA
BRANCH   4   7
HETATM    7  C3  UNL     1       7.863  12.989  34.686  1.00  0.00     0.136 C 
BRANCH   7   8
HETATM    8  C2  UNL     1       9.091  12.238  34.990  1.00  0.00     0.123 C 
BRANCH   8   9
HETATM    9  C1  UNL     1      10.231  12.873  34.891  1.00  0.00    -0.076 C 
BRANCH   9  10
HETATM   10  N1  UNL     1      11.429  13.275  34.511  1.00  0.00    -0.370 N 
ATOM     11  H12 UNL     1      11.152  13.421  33.540  1.00  0.00     0.165 HD
ATOM     12  H11 UNL     1      12.414  13.539  34.493  1.00  0.00     0.165 HD
ENDBRANCH   9  10
ENDBRANCH   8   9
ENDBRANCH   7   8
ENDBRANCH   4   7
ENDBRANCH   1   3
BRANCH   2  13
HETATM   13  C7  UNL     1       8.671  15.547  38.635  1.00  0.00     0.172 C 
HETATM   14  O2  UNL     1       8.778  14.366  38.770  1.00  0.00    -0.291 OA
BRANCH  13  15
HETATM   15  C8  UNL     1       9.747  16.441  39.237  1.00  0.00     0.190 C 
HETATM   16  C9  UNL     1      10.500  15.672  40.260  1.00  0.00     0.151 C 
HETATM   17  N3  UNL     1      11.678  16.388  40.692  1.00  0.00    -0.383 N 
HETATM   18  C10 UNL     1      12.348  17.012  39.736  1.00  0.00     0.189 C 
ATOM     19  H3  UNL     1      11.973  16.412  41.669  1.00  0.00     0.160 HD
HETATM   20  N4  UNL     1      11.876  16.937  38.417  1.00  0.00    -0.299 N 
HETATM   21  N5  UNL     1      10.475  17.067  38.196  1.00  0.00    -0.126 NA
ATOM     22  H4  UNL     1      12.518  16.793  37.638  1.00  0.00     0.183 HD
ENDBRANCH  13  15
ENDBRANCH   2  13
TORSDOF 7
ENDMDL
