MODEL 1
REMARK VINA RESULT: -6.317159365      0.000      0.000
REMARK  2 active torsions:
REMARK  status: ('A' for Active; 'I' for Inactive)
REMARK    1  A    between atoms: N1_1  and  C1_4 
REMARK    2  A    between atoms: N4_15  and  N5_16 
ROOT
HETATM    1  C1  UNL     1     116.819  43.211  61.683  1.00  0.00     0.681 C 
HETATM    2  N2  UNL     1     116.762  44.037  62.742  1.00  0.00    -0.154 N 
ATOM      3  H2  UNL     1     117.080  43.658  63.634  1.00  0.00     0.187 HD
HETATM    4  C2  UNL     1     116.330  45.311  62.751  1.00  0.00     0.288 C 
HETATM    5  O1  UNL     1     116.482  45.935  63.820  1.00  0.00    -0.265 OA
HETATM    6  C3  UNL     1     115.727  46.059  61.734  1.00  0.00     0.133 C 
HETATM    7  C4  UNL     1     115.636  45.715  60.387  1.00  0.00     0.152 C 
HETATM    8  C5  UNL     1     116.131  44.560  59.803  1.00  0.00     0.290 C 
HETATM    9  O2  UNL     1     116.009  44.517  58.543  1.00  0.00    -0.265 OA
HETATM   10  N3  UNL     1     116.724  43.476  60.366  1.00  0.00    -0.154 N 
ATOM     11  H3  UNL     1     117.138  42.796  59.728  1.00  0.00     0.187 HD
HETATM   12  N4  UNL     1     114.945  46.765  59.724  1.00  0.00    -0.273 N 
HETATM   13  C6  UNL     1     114.305  47.586  60.714  1.00  0.00     0.270 C 
HETATM   14  N6  UNL     1     115.092  47.316  61.896  1.00  0.00    -0.365 N 
ATOM     15  H6  UNL     1     115.177  47.926  62.709  1.00  0.00     0.161 HD
ENDROOT
BRANCH   1  16
HETATM   16  N1  UNL     1     116.993  41.945  61.962  1.00  0.00    -0.234 N 
ATOM     17  H12 UNL     1     117.018  41.738  62.960  1.00  0.00     0.174 HD
ATOM     18  H11 UNL     1     117.082  41.324  61.157  1.00  0.00     0.174 HD
ENDBRANCH   1  16
BRANCH  12  19
HETATM   19  N5  UNL     1     114.933  46.915  58.336  1.00  0.00    -0.341 N 
ATOM     20  H52 UNL     1     114.367  46.415  57.650  1.00  0.00     0.177 HD
ATOM     21  H51 UNL     1     115.526  47.582  57.842  1.00  0.00     0.177 HD
ENDBRANCH  12  19
TORSDOF 2
ENDMDL
MODEL 2
REMARK VINA RESULT: -6.272678770      0.828      3.015
REMARK  2 active torsions:
REMARK  status: ('A' for Active; 'I' for Inactive)
REMARK    1  A    between atoms: N1_1  and  C1_4 
REMARK    2  A    between atoms: N4_15  and  N5_16 
ROOT
HETATM    1  C1  UNL     1     116.449  43.057  61.632  1.00  0.00     0.681 C 
HETATM    2  N2  UNL     1     116.529  43.347  60.322  1.00  0.00    -0.154 N 
ATOM      3  H2  UNL     1     116.935  42.630  59.720  1.00  0.00     0.187 HD
HETATM    4  C2  UNL     1     116.132  44.482  59.720  1.00  0.00     0.288 C 
HETATM    5  O1  UNL     1     116.183  44.490  58.473  1.00  0.00    -0.265 OA
HETATM    6  C3  UNL     1     115.662  45.675  60.279  1.00  0.00     0.133 C 
HETATM    7  C4  UNL     1     115.283  45.884  61.604  1.00  0.00     0.152 C 
HETATM    8  C5  UNL     1     115.302  44.939  62.618  1.00  0.00     0.290 C 
HETATM    9  O2  UNL     1     114.821  45.342  63.718  1.00  0.00    -0.265 OA
HETATM   10  N3  UNL     1     115.752  43.658  62.616  1.00  0.00    -0.154 N 
ATOM     11  H3  UNL     1     115.542  43.096  63.441  1.00  0.00     0.187 HD
HETATM   12  N4  UNL     1     114.874  47.240  61.722  1.00  0.00    -0.273 N 
HETATM   13  C6  UNL     1     115.330  47.956  60.563  1.00  0.00     0.270 C 
HETATM   14  N6  UNL     1     115.486  46.900  59.589  1.00  0.00    -0.365 N 
ATOM     15  H6  UNL     1     115.472  47.017  58.575  1.00  0.00     0.161 HD
ENDROOT
BRANCH   1  16
HETATM   16  N1  UNL     1     117.154  42.030  62.029  1.00  0.00    -0.234 N 
ATOM     17  H12 UNL     1     117.863  41.728  61.360  1.00  0.00     0.174 HD
ATOM     18  H11 UNL     1     116.915  41.658  62.948  1.00  0.00     0.174 HD
ENDBRANCH   1  16
BRANCH  12  19
HETATM   19  N5  UNL     1     114.150  47.727  62.813  1.00  0.00    -0.341 N 
ATOM     20  H52 UNL     1     113.282  47.366  63.208  1.00  0.00     0.177 HD
ATOM     21  H51 UNL     1     114.438  48.542  63.354  1.00  0.00     0.177 HD
ENDBRANCH  12  19
TORSDOF 2
ENDMDL
MODEL 3
REMARK VINA RESULT: -6.205105716      4.043      6.583
REMARK  2 active torsions:
REMARK  status: ('A' for Active; 'I' for Inactive)
REMARK    1  A    between atoms: N1_1  and  C1_4 
REMARK    2  A    between atoms: N4_15  and  N5_16 
ROOT
HETATM    1  C1  UNL     1     116.701  42.306  62.392  1.00  0.00     0.681 C 
HETATM    2  N2  UNL     1     115.945  42.786  63.395  1.00  0.00    -0.154 N 
ATOM      3  H2  UNL     1     115.277  43.517  63.153  1.00  0.00     0.187 HD
HETATM    4  C2  UNL     1     115.976  42.404  64.684  1.00  0.00     0.288 C 
HETATM    5  O1  UNL     1     115.099  42.893  65.424  1.00  0.00    -0.265 OA
HETATM    6  C3  UNL     1     116.852  41.531  65.338  1.00  0.00     0.133 C 
HETATM    7  C4  UNL     1     117.773  40.672  64.743  1.00  0.00     0.152 C 
HETATM    8  C5  UNL     1     117.992  40.523  63.383  1.00  0.00     0.290 C 
HETATM    9  O2  UNL     1     118.817  39.610  63.082  1.00  0.00    -0.265 OA
HETATM   10  N3  UNL     1     117.464  41.197  62.330  1.00  0.00    -0.154 N 
ATOM     11  H3  UNL     1     117.663  40.827  61.400  1.00  0.00     0.187 HD
HETATM   12  N4  UNL     1     118.445  39.978  65.786  1.00  0.00    -0.273 N 
HETATM   13  C6  UNL     1     118.189  40.657  67.025  1.00  0.00     0.270 C 
HETATM   14  N6  UNL     1     116.960  41.364  66.742  1.00  0.00    -0.365 N 
ATOM     15  H6  UNL     1     116.285  41.688  67.434  1.00  0.00     0.161 HD
ENDROOT
BRANCH   1  16
HETATM   16  N1  UNL     1     116.706  43.019  61.296  1.00  0.00    -0.234 N 
ATOM     17  H12 UNL     1     116.463  44.000  61.437  1.00  0.00     0.174 HD
ATOM     18  H11 UNL     1     116.950  42.516  60.443  1.00  0.00     0.174 HD
ENDBRANCH   1  16
BRANCH  12  19
HETATM   19  N5  UNL     1     119.211  38.830  65.570  1.00  0.00    -0.341 N 
ATOM     20  H52 UNL     1     118.901  37.916  65.238  1.00  0.00     0.177 HD
ATOM     21  H51 UNL     1     120.217  38.791  65.733  1.00  0.00     0.177 HD
ENDBRANCH  12  19
TORSDOF 2
ENDMDL
MODEL 4
REMARK VINA RESULT: -6.143611833      7.149      9.217
REMARK  2 active torsions:
REMARK  status: ('A' for Active; 'I' for Inactive)
REMARK    1  A    between atoms: N1_1  and  C1_4 
REMARK    2  A    between atoms: N4_15  and  N5_16 
ROOT
HETATM    1  C1  UNL     1     118.354  43.126  70.958  1.00  0.00     0.681 C 
HETATM    2  N2  UNL     1     118.657  41.825  70.802  1.00  0.00    -0.154 N 
ATOM      3  H2  UNL     1     119.286  41.417  71.494  1.00  0.00     0.187 HD
HETATM    4  C2  UNL     1     118.220  41.004  69.831  1.00  0.00     0.288 C 
HETATM    5  O1  UNL     1     118.526  39.801  69.949  1.00  0.00    -0.265 OA
HETATM    6  C3  UNL     1     117.463  41.291  68.690  1.00  0.00     0.133 C 
HETATM    7  C4  UNL     1     116.791  42.479  68.411  1.00  0.00     0.152 C 
HETATM    8  C5  UNL     1     116.748  43.603  69.220  1.00  0.00     0.290 C 
HETATM    9  O2  UNL     1     115.992  44.526  68.794  1.00  0.00    -0.265 OA
HETATM   10  N3  UNL     1     117.383  43.867  70.390  1.00  0.00    -0.154 N 
ATOM     11  H3  UNL     1     117.098  44.711  70.888  1.00  0.00     0.187 HD
HETATM   12  N4  UNL     1     116.159  42.325  67.147  1.00  0.00    -0.273 N 
HETATM   13  C6  UNL     1     116.726  41.180  66.490  1.00  0.00     0.270 C 
HETATM   14  N6  UNL     1     117.244  40.412  67.599  1.00  0.00    -0.365 N 
ATOM     15  H6  UNL     1     117.422  39.408  67.598  1.00  0.00     0.161 HD
ENDROOT
BRANCH   1  16
HETATM   16  N1  UNL     1     119.114  43.788  71.790  1.00  0.00    -0.234 N 
ATOM     17  H12 UNL     1     119.236  43.334  72.695  1.00  0.00     0.174 HD
ATOM     18  H11 UNL     1     119.490  44.669  71.439  1.00  0.00     0.174 HD
ENDBRANCH   1  16
BRANCH  12  19
HETATM   19  N5  UNL     1     115.158  43.182  66.684  1.00  0.00    -0.341 N 
ATOM     20  H52 UNL     1     114.446  43.674  67.225  1.00  0.00     0.177 HD
ATOM     21  H51 UNL     1     115.034  43.414  65.699  1.00  0.00     0.177 HD
ENDBRANCH  12  19
TORSDOF 2
ENDMDL
MODEL 5
REMARK VINA RESULT: -6.087979320      6.970      9.035
REMARK  2 active torsions:
REMARK  status: ('A' for Active; 'I' for Inactive)
REMARK    1  A    between atoms: N1_1  and  C1_4 
REMARK    2  A    between atoms: N4_15  and  N5_16 
ROOT
HETATM    1  C1  UNL     1     116.586  42.076  70.618  1.00  0.00     0.681 C 
HETATM    2  N2  UNL     1     117.593  41.184  70.608  1.00  0.00    -0.154 N 
ATOM      3  H2  UNL     1     118.050  41.002  71.501  1.00  0.00     0.187 HD
HETATM    4  C2  UNL     1     118.060  40.506  69.545  1.00  0.00     0.288 C 
HETATM    5  O1  UNL     1     118.918  39.633  69.784  1.00  0.00    -0.265 OA
HETATM    6  C3  UNL     1     117.731  40.627  68.190  1.00  0.00     0.133 C 
HETATM    7  C4  UNL     1     116.663  41.340  67.651  1.00  0.00     0.152 C 
HETATM    8  C5  UNL     1     115.721  42.065  68.364  1.00  0.00     0.290 C 
HETATM    9  O2  UNL     1     114.788  42.550  67.657  1.00  0.00    -0.265 OA
HETATM   10  N3  UNL     1     115.642  42.335  69.692  1.00  0.00    -0.154 N 
ATOM     11  H3  UNL     1     114.783  42.776  70.021  1.00  0.00     0.187 HD
HETATM   12  N4  UNL     1     116.716  41.186  66.239  1.00  0.00    -0.273 N 
HETATM   13  C6  UNL     1     118.010  40.673  65.885  1.00  0.00     0.270 C 
HETATM   14  N6  UNL     1     118.437  40.039  67.111  1.00  0.00    -0.365 N 
ATOM     15  H6  UNL     1     119.130  39.294  67.187  1.00  0.00     0.161 HD
ENDROOT
BRANCH   1  16
HETATM   16  N1  UNL     1     116.499  42.818  71.691  1.00  0.00    -0.234 N 
ATOM     17  H12 UNL     1     117.070  43.663  71.661  1.00  0.00     0.174 HD
ATOM     18  H11 UNL     1     115.878  42.468  72.420  1.00  0.00     0.174 HD
ENDBRANCH   1  16
BRANCH  12  19
HETATM   19  N5  UNL     1     115.648  41.500  65.396  1.00  0.00    -0.341 N 
ATOM     20  H52 UNL     1     114.774  40.989  65.263  1.00  0.00     0.177 HD
ATOM     21  H51 UNL     1     115.636  42.323  64.793  1.00  0.00     0.177 HD
ENDBRANCH  12  19
TORSDOF 2
ENDMDL
