MODEL 1
REMARK VINA RESULT: -7.432675298      0.000      0.000
REMARK  13 active torsions:
REMARK  status: ('A' for Active; 'I' for Inactive)
REMARK    1  A    between atoms: N2_4  and  N3_6 
REMARK    2  A    between atoms: C1_7  and  N4_8 
REMARK    3  A    between atoms: N4_8  and  C2_10 
REMARK    4  A    between atoms: C8_24  and  N9_25 
REMARK       I    between atoms: N10_28  and  C11_30 
REMARK    5  A    between atoms: C11_30  and  C12_32 
REMARK    6  A    between atoms: C12_32  and  N11_33 
REMARK    7  A    between atoms: C12_32  and  C13_37 
REMARK    8  A    between atoms: C13_37  and  O3_38 
REMARK    9  A    between atoms: C13_37  and  C17_46 
REMARK   10  A    between atoms: O3_38  and  C14_39 
REMARK   11  A    between atoms: C17_46  and  O4_47 
REMARK   12  A    between atoms: C17_46  and  C18_49 
REMARK   13  A    between atoms: C18_49  and  O5_50 
ROOT
HETATM    1  N9  UNL     1       0.739  20.859  20.638  1.00  0.00    -0.300 N 
HETATM    2  C9  UNL     1       0.355  20.259  19.396  1.00  0.00     0.192 C 
HETATM    3  C10 UNL     1       0.923  21.024  18.277  1.00  0.00     0.019 C 
HETATM    4  N10 UNL     1       1.408  20.480  17.220  1.00  0.00    -0.330 N 
ATOM      5  H10 UNL     1       1.384  19.461  17.182  1.00  0.00     0.168 HD
HETATM    6  C11 UNL     1       1.964  21.130  16.115  1.00  0.00     0.255 C 
HETATM    7  O2  UNL     1       3.070  21.714  16.241  1.00  0.00    -0.271 OA
HETATM    8  C19 UNL     1       0.882  22.492  18.485  1.00  0.00     0.152 C 
HETATM    9  S1  UNL     1       0.814  22.587  20.321  1.00  0.00    -0.046 SA
ENDROOT
BRANCH   1  10
HETATM   10  C8  UNL     1       1.012  20.262  21.884  1.00  0.00     0.139 A 
HETATM   11  N3  UNL     1       2.146  19.669  22.302  1.00  0.00    -0.209 N 
HETATM   12  C1  UNL     1       1.963  19.229  23.580  1.00  0.00     0.146 A 
HETATM   13  C6  UNL     1       0.683  19.559  23.961  1.00  0.00     0.055 A 
HETATM   14  C7  UNL     1       0.068  20.205  22.919  1.00  0.00     0.055 A 
BRANCH  11  15
HETATM   15  N2  UNL     1       3.299  19.530  21.562  1.00  0.00    -0.239 N 
HETATM   16  N1  UNL     1       3.680  18.419  21.055  1.00  0.00    -0.330 N 
ATOM     17  H12 UNL     1       3.088  17.604  21.217  1.00  0.00     0.178 HD
ATOM     18  H11 UNL     1       4.534  18.315  20.507  1.00  0.00     0.178 HD
ATOM     19  H2  UNL     1       3.879  20.354  21.410  1.00  0.00     0.208 HD
ENDBRANCH  11  15
BRANCH  12  20
HETATM   20  N4  UNL     1       2.931  18.553  24.366  1.00  0.00    -0.175 N 
ATOM     21  H4  UNL     1       2.817  17.566  24.598  1.00  0.00     0.186 HD
BRANCH  20  22
HETATM   22  C2  UNL     1       4.062  19.279  24.820  1.00  0.00     0.682 C 
HETATM   23  N5  UNL     1       3.994  20.564  24.839  1.00  0.00    -0.217 N 
HETATM   24  C3  UNL     1       4.943  21.564  25.234  1.00  0.00     0.241 C 
ATOM     25  H5  UNL     1       3.103  20.939  24.514  1.00  0.00     0.178 HD
HETATM   26  C4  UNL     1       6.343  21.246  24.866  1.00  0.00     0.242 C 
HETATM   27  O1  UNL     1       7.014  22.150  24.261  1.00  0.00    -0.271 OA
HETATM   28  N6  UNL     1       7.043  20.034  25.110  1.00  0.00    -0.299 N 
HETATM   29  C5  UNL     1       6.526  18.857  25.255  1.00  0.00     0.209 C 
ATOM     30  H6  UNL     1       8.058  20.098  25.178  1.00  0.00     0.171 HD
HETATM   31  N7  UNL     1       7.448  17.808  25.490  1.00  0.00    -0.063 NA
HETATM   32  N8  UNL     1       5.163  18.485  25.209  1.00  0.00    -0.163 N 
ATOM     33  H8  UNL     1       4.949  17.528  25.491  1.00  0.00     0.187 HD
ENDBRANCH  20  22
ENDBRANCH  12  20
ENDBRANCH   1  10
BRANCH   6  34
HETATM   34  C12 UNL     1       1.274  21.152  14.765  1.00  0.00     0.306 C 
BRANCH  34  35
HETATM   35  N11 UNL     1       0.427  22.406  14.989  1.00  0.00    -0.064 N 
ATOM     36 3H11 UNL     1       0.056  22.549  15.929  1.00  0.00     0.275 HD
ATOM     37 2H11 UNL     1       0.918  23.301  14.979  1.00  0.00     0.275 HD
ATOM     38 1H11 UNL     1      -0.253  22.246  14.246  1.00  0.00     0.275 HD
ENDBRANCH  34  35
BRANCH  34  39
HETATM   39  C13 UNL     1       0.345  20.036  14.539  1.00  0.00     0.202 C 
BRANCH  39  40
HETATM   40  O3  UNL     1      -1.025  20.472  14.877  1.00  0.00    -0.312 OA
BRANCH  40  41
HETATM   41  C14 UNL     1      -1.788  19.769  15.763  1.00  0.00     0.215 C 
HETATM   42  N12 UNL     1      -2.020  18.518  15.718  1.00  0.00    -0.355 N 
HETATM   43  C15 UNL     1      -2.876  18.119  16.830  1.00  0.00     0.143 C 
ATOM     44  H12 UNL     1      -1.658  17.884  15.005  1.00  0.00     0.163 HD
HETATM   45  C16 UNL     1      -2.736  19.287  17.799  1.00  0.00     0.143 C 
HETATM   46  N13 UNL     1      -2.441  20.367  16.882  1.00  0.00    -0.355 N 
ATOM     47  H13 UNL     1      -2.656  21.355  17.011  1.00  0.00     0.163 HD
ENDBRANCH  40  41
ENDBRANCH  39  40
BRANCH  39  48
HETATM   48  C17 UNL     1       0.278  19.277  13.287  1.00  0.00     0.173 C 
BRANCH  48  49
HETATM   49  O4  UNL     1       1.090  18.080  13.510  1.00  0.00    -0.391 OA
ATOM     50  H4  UNL     1       1.152  17.986  14.453  1.00  0.00     0.210 HD
ENDBRANCH  48  49
BRANCH  48  51
HETATM   51  C18 UNL     1       0.742  19.794  12.003  1.00  0.00     0.198 C 
BRANCH  51  52
HETATM   52  O5  UNL     1       0.698  18.886  10.959  1.00  0.00    -0.398 OA
ATOM     53  H5  UNL     1      -0.173  18.700  10.626  1.00  0.00     0.209 HD
ENDBRANCH  51  52
ENDBRANCH  48  51
ENDBRANCH  39  48
ENDBRANCH  34  39
ENDBRANCH   6  34
TORSDOF 13
ENDMDL
MODEL 2
REMARK VINA RESULT: -7.420317370      2.086      3.262
REMARK  13 active torsions:
REMARK  status: ('A' for Active; 'I' for Inactive)
REMARK    1  A    between atoms: N2_4  and  N3_6 
REMARK    2  A    between atoms: C1_7  and  N4_8 
REMARK    3  A    between atoms: N4_8  and  C2_10 
REMARK    4  A    between atoms: C8_24  and  N9_25 
REMARK       I    between atoms: N10_28  and  C11_30 
REMARK    5  A    between atoms: C11_30  and  C12_32 
REMARK    6  A    between atoms: C12_32  and  N11_33 
REMARK    7  A    between atoms: C12_32  and  C13_37 
REMARK    8  A    between atoms: C13_37  and  O3_38 
REMARK    9  A    between atoms: C13_37  and  C17_46 
REMARK   10  A    between atoms: O3_38  and  C14_39 
REMARK   11  A    between atoms: C17_46  and  O4_47 
REMARK   12  A    between atoms: C17_46  and  C18_49 
REMARK   13  A    between atoms: C18_49  and  O5_50 
ROOT
HETATM    1  N9  UNL     1       0.576  19.315  21.744  1.00  0.00    -0.300 N 
HETATM    2  C9  UNL     1       0.642  18.738  20.435  1.00  0.00     0.192 C 
HETATM    3  C10 UNL     1       0.191  19.718  19.436  1.00  0.00     0.019 C 
HETATM    4  N10 UNL     1       0.746  19.868  18.289  1.00  0.00    -0.330 N 
ATOM      5  H10 UNL     1       1.540  19.260  18.086  1.00  0.00     0.168 HD
HETATM    6  C11 UNL     1       0.382  20.769  17.286  1.00  0.00     0.255 C 
HETATM    7  O2  UNL     1       0.578  21.998  17.466  1.00  0.00    -0.271 OA
HETATM    8  C19 UNL     1      -0.974  20.520  19.883  1.00  0.00     0.152 C 
HETATM    9  S1  UNL     1      -0.808  20.397  21.710  1.00  0.00    -0.046 SA
ENDROOT
BRANCH   1  10
HETATM   10  C8  UNL     1       1.404  19.108  22.866  1.00  0.00     0.139 A 
HETATM   11  N3  UNL     1       2.479  19.815  23.260  1.00  0.00    -0.209 N 
HETATM   12  C1  UNL     1       2.973  19.257  24.402  1.00  0.00     0.146 A 
HETATM   13  C6  UNL     1       2.183  18.177  24.721  1.00  0.00     0.055 A 
HETATM   14  C7  UNL     1       1.196  18.063  23.777  1.00  0.00     0.055 A 
BRANCH  11  15
HETATM   15  N2  UNL     1       2.994  20.919  22.617  1.00  0.00    -0.239 N 
HETATM   16  N1  UNL     1       2.547  22.105  22.790  1.00  0.00    -0.330 N 
ATOM     17  H12 UNL     1       1.771  22.222  23.440  1.00  0.00     0.178 HD
ATOM     18  H11 UNL     1       2.928  22.923  22.314  1.00  0.00     0.178 HD
ATOM     19  H2  UNL     1       3.770  20.784  21.970  1.00  0.00     0.208 HD
ENDBRANCH  11  15
BRANCH  12  20
HETATM   20  N4  UNL     1       4.104  19.719  25.123  1.00  0.00    -0.175 N 
ATOM     21  H4  UNL     1       4.068  20.596  25.643  1.00  0.00     0.186 HD
BRANCH  20  22
HETATM   22  C2  UNL     1       5.286  18.935  25.104  1.00  0.00     0.682 C 
HETATM   23  N5  UNL     1       5.751  18.506  26.225  1.00  0.00    -0.217 N 
HETATM   24  C3  UNL     1       6.900  17.708  26.539  1.00  0.00     0.241 C 
ATOM     25  H5  UNL     1       5.201  18.786  27.038  1.00  0.00     0.178 HD
HETATM   26  C4  UNL     1       8.088  18.006  25.706  1.00  0.00     0.242 C 
HETATM   27  O1  UNL     1       9.196  18.209  26.309  1.00  0.00    -0.271 OA
HETATM   28  N6  UNL     1       8.145  18.097  24.289  1.00  0.00    -0.299 N 
HETATM   29  C5  UNL     1       7.172  18.399  23.493  1.00  0.00     0.209 C 
ATOM     30  H6  UNL     1       9.047  17.903  23.854  1.00  0.00     0.171 HD
HETATM   31  N7  UNL     1       7.492  18.420  22.113  1.00  0.00    -0.063 NA
HETATM   32  N8  UNL     1       5.832  18.709  23.822  1.00  0.00    -0.163 N 
ATOM     33  H8  UNL     1       5.181  18.779  23.039  1.00  0.00     0.187 HD
ENDBRANCH  20  22
ENDBRANCH  12  20
ENDBRANCH   1  10
BRANCH   6  34
HETATM   34  C12 UNL     1      -0.244  20.312  15.983  1.00  0.00     0.306 C 
BRANCH  34  35
HETATM   35  N11 UNL     1      -1.158  19.231  16.563  1.00  0.00    -0.064 N 
ATOM     36 3H11 UNL     1      -1.329  19.265  17.568  1.00  0.00     0.275 HD
ATOM     37 2H11 UNL     1      -2.149  19.291  16.328  1.00  0.00     0.275 HD
ATOM     38 1H11 UNL     1      -0.650  18.419  16.211  1.00  0.00     0.275 HD
ENDBRANCH  34  35
BRANCH  34  39
HETATM   39  C13 UNL     1       0.687  19.644  15.063  1.00  0.00     0.202 C 
BRANCH  39  40
HETATM   40  O3  UNL     1       1.351  18.532  15.771  1.00  0.00    -0.312 OA
BRANCH  40  41
HETATM   41  C14 UNL     1       2.577  18.696  16.346  1.00  0.00     0.215 C 
HETATM   42  N12 UNL     1       3.359  19.685  16.164  1.00  0.00    -0.355 N 
HETATM   43  C15 UNL     1       4.581  19.518  16.944  1.00  0.00     0.143 C 
ATOM     44  H12 UNL     1       3.159  20.481  15.559  1.00  0.00     0.163 HD
HETATM   45  C16 UNL     1       4.182  18.468  17.973  1.00  0.00     0.143 C 
HETATM   46  N13 UNL     1       3.153  17.753  17.249  1.00  0.00    -0.355 N 
ATOM     47  H13 UNL     1       2.892  16.774  17.362  1.00  0.00     0.163 HD
ENDBRANCH  40  41
ENDBRANCH  39  40
BRANCH  39  48
HETATM   48  C17 UNL     1       0.308  19.165  13.731  1.00  0.00     0.173 C 
BRANCH  48  49
HETATM   49  O4  UNL     1       1.101  17.955  13.509  1.00  0.00    -0.391 OA
ATOM     50  H4  UNL     1       1.983  18.258  13.326  1.00  0.00     0.210 HD
ENDBRANCH  48  49
BRANCH  48  51
HETATM   51  C18 UNL     1       0.489  19.943  12.510  1.00  0.00     0.198 C 
BRANCH  51  52
HETATM   52  O5  UNL     1       0.396  19.216  11.335  1.00  0.00    -0.398 OA
ATOM     53  H5  UNL     1      -0.268  19.519  10.726  1.00  0.00     0.209 HD
ENDBRANCH  51  52
ENDBRANCH  48  51
ENDBRANCH  39  48
ENDBRANCH  34  39
ENDBRANCH   6  34
TORSDOF 13
ENDMDL
MODEL 3
REMARK VINA RESULT: -7.294762419      2.182      2.721
REMARK  13 active torsions:
REMARK  status: ('A' for Active; 'I' for Inactive)
REMARK    1  A    between atoms: N2_4  and  N3_6 
REMARK    2  A    between atoms: C1_7  and  N4_8 
REMARK    3  A    between atoms: N4_8  and  C2_10 
REMARK    4  A    between atoms: C8_24  and  N9_25 
REMARK       I    between atoms: N10_28  and  C11_30 
REMARK    5  A    between atoms: C11_30  and  C12_32 
REMARK    6  A    between atoms: C12_32  and  N11_33 
REMARK    7  A    between atoms: C12_32  and  C13_37 
REMARK    8  A    between atoms: C13_37  and  O3_38 
REMARK    9  A    between atoms: C13_37  and  C17_46 
REMARK   10  A    between atoms: O3_38  and  C14_39 
REMARK   11  A    between atoms: C17_46  and  O4_47 
REMARK   12  A    between atoms: C17_46  and  C18_49 
REMARK   13  A    between atoms: C18_49  and  O5_50 
ROOT
HETATM    1  N9  UNL     1       3.247  20.026  19.019  1.00  0.00    -0.300 N 
HETATM    2  C9  UNL     1       3.183  19.937  17.591  1.00  0.00     0.192 C 
HETATM    3  C10 UNL     1       1.996  20.652  17.101  1.00  0.00     0.019 C 
HETATM    4  N10 UNL     1       1.990  21.371  16.038  1.00  0.00    -0.330 N 
ATOM      5  H10 UNL     1       2.870  21.433  15.527  1.00  0.00     0.168 HD
HETATM    6  C11 UNL     1       0.911  22.080  15.504  1.00  0.00     0.255 C 
HETATM    7  O2  UNL     1       0.481  23.092  16.113  1.00  0.00    -0.271 OA
HETATM    8  C19 UNL     1       0.798  20.458  17.954  1.00  0.00     0.152 C 
HETATM    9  S1  UNL     1       1.577  20.029  19.564  1.00  0.00    -0.046 SA
ENDROOT
BRANCH   1  10
HETATM   10  C8  UNL     1       4.368  20.099  19.870  1.00  0.00     0.139 A 
HETATM   11  N3  UNL     1       5.007  19.100  20.507  1.00  0.00    -0.209 N 
HETATM   12  C1  UNL     1       6.038  19.629  21.225  1.00  0.00     0.146 A 
HETATM   13  C6  UNL     1       6.035  20.990  21.028  1.00  0.00     0.055 A 
HETATM   14  C7  UNL     1       5.001  21.309  20.186  1.00  0.00     0.055 A 
BRANCH  11  15
HETATM   15  N2  UNL     1       4.675  17.764  20.441  1.00  0.00    -0.239 N 
HETATM   16  N1  UNL     1       4.652  17.098  19.350  1.00  0.00    -0.330 N 
ATOM     17  H12 UNL     1       4.893  17.595  18.493  1.00  0.00     0.178 HD
ATOM     18  H11 UNL     1       4.406  16.109  19.302  1.00  0.00     0.178 HD
ATOM     19  H2  UNL     1       4.436  17.282  21.307  1.00  0.00     0.208 HD
ENDBRANCH  11  15
BRANCH  12  20
HETATM   20  N4  UNL     1       6.945  18.893  22.030  1.00  0.00    -0.175 N 
ATOM     21  H4  UNL     1       7.802  18.510  21.631  1.00  0.00     0.186 HD
BRANCH  20  22
HETATM   22  C2  UNL     1       6.634  18.703  23.401  1.00  0.00     0.682 C 
HETATM   23  N5  UNL     1       5.516  19.162  23.842  1.00  0.00    -0.217 N 
HETATM   24  C3  UNL     1       4.920  19.133  25.146  1.00  0.00     0.241 C 
ATOM     25  H5  UNL     1       4.950  19.632  23.134  1.00  0.00     0.178 HD
HETATM   26  C4  UNL     1       5.887  19.312  26.255  1.00  0.00     0.242 C 
HETATM   27  O1  UNL     1       5.609  20.186  27.145  1.00  0.00    -0.271 OA
HETATM   28  N6  UNL     1       7.110  18.615  26.451  1.00  0.00    -0.299 N 
HETATM   29  C5  UNL     1       7.841  18.063  25.539  1.00  0.00     0.209 C 
ATOM     30  H6  UNL     1       7.445  18.543  27.411  1.00  0.00     0.171 HD
HETATM   31  N7  UNL     1       9.020  17.427  26.000  1.00  0.00    -0.063 NA
HETATM   32  N8  UNL     1       7.616  18.012  24.144  1.00  0.00    -0.163 N 
ATOM     33  H8  UNL     1       8.238  17.404  23.611  1.00  0.00     0.187 HD
ENDBRANCH  20  22
ENDBRANCH  12  20
ENDBRANCH   1  10
BRANCH   6  34
HETATM   34  C12 UNL     1       0.239  21.664  14.210  1.00  0.00     0.306 C 
BRANCH  34  35
HETATM   35  N11 UNL     1      -1.031  22.506  14.359  1.00  0.00    -0.064 N 
ATOM     36 3H11 UNL     1      -1.815  22.072  14.846  1.00  0.00     0.275 HD
ATOM     37 2H11 UNL     1      -0.986  23.296  15.003  1.00  0.00     0.275 HD
ATOM     38 1H11 UNL     1      -1.167  22.724  13.372  1.00  0.00     0.275 HD
ENDBRANCH  34  35
BRANCH  34  39
HETATM   39  C13 UNL     1      -0.177  20.256  14.166  1.00  0.00     0.202 C 
BRANCH  39  40
HETATM   40  O3  UNL     1      -1.627  20.171  14.435  1.00  0.00    -0.312 OA
BRANCH  40  41
HETATM   41  C14 UNL     1      -2.095  19.689  15.621  1.00  0.00     0.215 C 
HETATM   42  N12 UNL     1      -2.536  20.390  16.589  1.00  0.00    -0.355 N 
HETATM   43  C15 UNL     1      -2.950  19.532  17.693  1.00  0.00     0.143 C 
ATOM     44  H12 UNL     1      -2.591  21.409  16.591  1.00  0.00     0.163 HD
HETATM   45  C16 UNL     1      -3.096  18.170  17.025  1.00  0.00     0.143 C 
HETATM   46  N13 UNL     1      -2.151  18.298  15.937  1.00  0.00    -0.355 N 
ATOM     47  H13 UNL     1      -1.629  17.546  15.486  1.00  0.00     0.163 HD
ENDBRANCH  40  41
ENDBRANCH  39  40
BRANCH  39  48
HETATM   48  C17 UNL     1       0.124  19.355  13.050  1.00  0.00     0.173 C 
BRANCH  48  49
HETATM   49  O4  UNL     1       0.906  18.261  13.629  1.00  0.00    -0.391 OA
ATOM     50  H4  UNL     1       1.286  17.801  12.890  1.00  0.00     0.210 HD
ENDBRANCH  48  49
BRANCH  48  51
HETATM   51  C18 UNL     1       0.885  19.756  11.871  1.00  0.00     0.198 C 
BRANCH  51  52
HETATM   52  O5  UNL     1       0.683  18.968  10.750  1.00  0.00    -0.398 OA
ATOM     53  H5  UNL     1       0.193  19.386  10.050  1.00  0.00     0.209 HD
ENDBRANCH  51  52
ENDBRANCH  48  51
ENDBRANCH  39  48
ENDBRANCH  34  39
ENDBRANCH   6  34
TORSDOF 13
ENDMDL
MODEL 4
REMARK VINA RESULT: -7.255167583      0.931      1.701
REMARK  13 active torsions:
REMARK  status: ('A' for Active; 'I' for Inactive)
REMARK    1  A    between atoms: N2_4  and  N3_6 
REMARK    2  A    between atoms: C1_7  and  N4_8 
REMARK    3  A    between atoms: N4_8  and  C2_10 
REMARK    4  A    between atoms: C8_24  and  N9_25 
REMARK       I    between atoms: N10_28  and  C11_30 
REMARK    5  A    between atoms: C11_30  and  C12_32 
REMARK    6  A    between atoms: C12_32  and  N11_33 
REMARK    7  A    between atoms: C12_32  and  C13_37 
REMARK    8  A    between atoms: C13_37  and  O3_38 
REMARK    9  A    between atoms: C13_37  and  C17_46 
REMARK   10  A    between atoms: O3_38  and  C14_39 
REMARK   11  A    between atoms: C17_46  and  O4_47 
REMARK   12  A    between atoms: C17_46  and  C18_49 
REMARK   13  A    between atoms: C18_49  and  O5_50 
ROOT
HETATM    1  N9  UNL     1       0.675  20.883  20.593  1.00  0.00    -0.300 N 
HETATM    2  C9  UNL     1       0.306  20.276  19.350  1.00  0.00     0.192 C 
HETATM    3  C10 UNL     1       0.857  21.057  18.233  1.00  0.00     0.019 C 
HETATM    4  N10 UNL     1       1.355  20.528  17.175  1.00  0.00    -0.330 N 
ATOM      5  H10 UNL     1       1.355  19.508  17.134  1.00  0.00     0.168 HD
HETATM    6  C11 UNL     1       1.897  21.193  16.073  1.00  0.00     0.255 C 
HETATM    7  O2  UNL     1       2.988  21.802  16.200  1.00  0.00    -0.271 OA
HETATM    8  C19 UNL     1       0.780  22.523  18.445  1.00  0.00     0.152 C 
HETATM    9  S1  UNL     1       0.709  22.612  20.280  1.00  0.00    -0.046 SA
ENDROOT
BRANCH   1  10
HETATM   10  C8  UNL     1       0.961  20.289  21.838  1.00  0.00     0.139 A 
HETATM   11  N3  UNL     1       2.089  19.670  22.236  1.00  0.00    -0.209 N 
HETATM   12  C1  UNL     1       1.924  19.246  23.521  1.00  0.00     0.146 A 
HETATM   13  C6  UNL     1       0.662  19.612  23.928  1.00  0.00     0.055 A 
HETATM   14  C7  UNL     1       0.040  20.264  22.895  1.00  0.00     0.055 A 
BRANCH  11  15
HETATM   15  N2  UNL     1       3.221  19.496  21.471  1.00  0.00    -0.239 N 
HETATM   16  N1  UNL     1       3.349  18.561  20.607  1.00  0.00    -0.330 N 
ATOM     17  H12 UNL     1       2.564  17.921  20.491  1.00  0.00     0.178 HD
ATOM     18  H11 UNL     1       4.187  18.432  20.041  1.00  0.00     0.178 HD
ATOM     19  H2  UNL     1       3.997  20.145  21.600  1.00  0.00     0.208 HD
ENDBRANCH  11  15
BRANCH  12  20
HETATM   20  N4  UNL     1       2.892  18.552  24.291  1.00  0.00    -0.175 N 
ATOM     21  H4  UNL     1       2.777  17.561  24.502  1.00  0.00     0.186 HD
BRANCH  20  22
HETATM   22  C2  UNL     1       4.025  19.267  24.760  1.00  0.00     0.682 C 
HETATM   23  N5  UNL     1       5.050  18.596  25.152  1.00  0.00    -0.217 N 
HETATM   24  C3  UNL     1       6.322  19.011  25.668  1.00  0.00     0.241 C 
ATOM     25  H5  UNL     1       4.937  17.584  25.083  1.00  0.00     0.178 HD
HETATM   26  C4  UNL     1       6.254  20.190  26.563  1.00  0.00     0.242 C 
HETATM   27  O1  UNL     1       6.845  20.109  27.693  1.00  0.00    -0.271 OA
HETATM   28  N6  UNL     1       5.598  21.425  26.310  1.00  0.00    -0.299 N 
HETATM   29  C5  UNL     1       4.587  21.619  25.528  1.00  0.00     0.209 C 
ATOM     30  H6  UNL     1       5.962  22.244  26.797  1.00  0.00     0.171 HD
HETATM   31  N7  UNL     1       4.118  22.953  25.451  1.00  0.00    -0.063 NA
HETATM   32  N8  UNL     1       3.891  20.672  24.740  1.00  0.00    -0.163 N 
ATOM     33  H8  UNL     1       3.212  21.050  24.080  1.00  0.00     0.187 HD
ENDBRANCH  20  22
ENDBRANCH  12  20
ENDBRANCH   1  10
BRANCH   6  34
HETATM   34  C12 UNL     1       1.207  21.202  14.722  1.00  0.00     0.306 C 
BRANCH  34  35
HETATM   35  N11 UNL     1       0.334  22.439  14.946  1.00  0.00    -0.064 N 
ATOM     36 3H11 UNL     1       0.123  23.007  14.126  1.00  0.00     0.275 HD
ATOM     37 2H11 UNL     1      -0.649  22.274  15.166  1.00  0.00     0.275 HD
ATOM     38 1H11 UNL     1       0.901  22.875  15.674  1.00  0.00     0.275 HD
ENDBRANCH  34  35
BRANCH  34  39
HETATM   39  C13 UNL     1       0.302  20.068  14.494  1.00  0.00     0.202 C 
BRANCH  39  40
HETATM   40  O3  UNL     1      -1.079  20.480  14.814  1.00  0.00    -0.312 OA
BRANCH  40  41
HETATM   41  C14 UNL     1      -1.778  19.879  15.819  1.00  0.00     0.215 C 
HETATM   42  N12 UNL     1      -2.364  20.475  16.779  1.00  0.00    -0.355 N 
HETATM   43  C15 UNL     1      -3.008  19.509  17.662  1.00  0.00     0.143 C 
ATOM     44  H12 UNL     1      -2.380  21.487  16.913  1.00  0.00     0.163 HD
HETATM   45  C16 UNL     1      -3.079  18.257  16.796  1.00  0.00     0.143 C 
HETATM   46  N13 UNL     1      -1.944  18.465  15.924  1.00  0.00    -0.355 N 
ATOM     47  H13 UNL     1      -1.377  17.746  15.474  1.00  0.00     0.163 HD
ENDBRANCH  40  41
ENDBRANCH  39  40
BRANCH  39  48
HETATM   48  C17 UNL     1       0.262  19.299  13.247  1.00  0.00     0.173 C 
BRANCH  48  49
HETATM   49  O4  UNL     1       1.039  18.086  13.509  1.00  0.00    -0.391 OA
ATOM     50  H4  UNL     1       0.412  17.373  13.494  1.00  0.00     0.210 HD
ENDBRANCH  48  49
BRANCH  48  51
HETATM   51  C18 UNL     1       0.784  19.792  11.976  1.00  0.00     0.198 C 
BRANCH  51  52
HETATM   52  O5  UNL     1       0.658  18.914  10.913  1.00  0.00    -0.398 OA
ATOM     53  H5  UNL     1       0.305  19.296  10.117  1.00  0.00     0.209 HD
ENDBRANCH  51  52
ENDBRANCH  48  51
ENDBRANCH  39  48
ENDBRANCH  34  39
ENDBRANCH   6  34
TORSDOF 13
ENDMDL
MODEL 5
REMARK VINA RESULT: -7.227459425      2.244      2.828
REMARK  13 active torsions:
REMARK  status: ('A' for Active; 'I' for Inactive)
REMARK    1  A    between atoms: N2_4  and  N3_6 
REMARK    2  A    between atoms: C1_7  and  N4_8 
REMARK    3  A    between atoms: N4_8  and  C2_10 
REMARK    4  A    between atoms: C8_24  and  N9_25 
REMARK       I    between atoms: N10_28  and  C11_30 
REMARK    5  A    between atoms: C11_30  and  C12_32 
REMARK    6  A    between atoms: C12_32  and  N11_33 
REMARK    7  A    between atoms: C12_32  and  C13_37 
REMARK    8  A    between atoms: C13_37  and  O3_38 
REMARK    9  A    between atoms: C13_37  and  C17_46 
REMARK   10  A    between atoms: O3_38  and  C14_39 
REMARK   11  A    between atoms: C17_46  and  O4_47 
REMARK   12  A    between atoms: C17_46  and  C18_49 
REMARK   13  A    between atoms: C18_49  and  O5_50 
ROOT
HETATM    1  N9  UNL     1       3.343  21.017  19.896  1.00  0.00    -0.300 N 
HETATM    2  C9  UNL     1       2.188  21.202  19.070  1.00  0.00     0.192 C 
HETATM    3  C10 UNL     1       2.382  20.516  17.784  1.00  0.00     0.019 C 
HETATM    4  N10 UNL     1       1.453  19.870  17.178  1.00  0.00    -0.330 N 
ATOM      5  H10 UNL     1       0.542  19.847  17.637  1.00  0.00     0.168 HD
HETATM    6  C11 UNL     1       1.552  19.194  15.960  1.00  0.00     0.255 C 
HETATM    7  O2  UNL     1       2.234  18.141  15.897  1.00  0.00    -0.271 OA
HETATM    8  C19 UNL     1       3.759  20.646  17.249  1.00  0.00     0.152 C 
HETATM    9  S1  UNL     1       4.708  20.969  18.790  1.00  0.00    -0.046 SA
ENDROOT
BRANCH   1  10
HETATM   10  C8  UNL     1       3.442  20.893  21.296  1.00  0.00     0.139 A 
HETATM   11  N3  UNL     1       3.592  19.777  22.033  1.00  0.00    -0.209 N 
HETATM   12  C1  UNL     1       3.640  20.128  23.350  1.00  0.00     0.146 A 
HETATM   13  C6  UNL     1       3.516  21.495  23.429  1.00  0.00     0.055 A 
HETATM   14  C7  UNL     1       3.390  21.997  22.159  1.00  0.00     0.055 A 
BRANCH  11  15
HETATM   15  N2  UNL     1       3.683  18.494  21.539  1.00  0.00    -0.239 N 
HETATM   16  N1  UNL     1       4.741  18.023  20.996  1.00  0.00    -0.330 N 
ATOM     17  H12 UNL     1       5.549  18.642  20.933  1.00  0.00     0.178 HD
ATOM     18  H11 UNL     1       4.809  17.074  20.630  1.00  0.00     0.178 HD
ATOM     19  H2  UNL     1       2.866  17.889  21.610  1.00  0.00     0.208 HD
ENDBRANCH  11  15
BRANCH  12  20
HETATM   20  N4  UNL     1       3.792  19.229  24.438  1.00  0.00    -0.175 N 
ATOM     21  H4  UNL     1       3.003  18.673  24.769  1.00  0.00     0.186 HD
BRANCH  20  22
HETATM   22  C2  UNL     1       5.066  19.119  25.053  1.00  0.00     0.682 C 
HETATM   23  N5  UNL     1       5.960  18.394  24.479  1.00  0.00    -0.217 N 
HETATM   24  C3  UNL     1       7.315  18.088  24.837  1.00  0.00     0.241 C 
ATOM     25  H5  UNL     1       5.649  17.958  23.611  1.00  0.00     0.178 HD
HETATM   26  C4  UNL     1       7.527  17.901  26.291  1.00  0.00     0.242 C 
HETATM   27  O1  UNL     1       8.150  16.850  26.667  1.00  0.00    -0.271 OA
HETATM   28  N6  UNL     1       7.111  18.766  27.340  1.00  0.00    -0.299 N 
HETATM   29  C5  UNL     1       6.117  19.591  27.314  1.00  0.00     0.209 C 
ATOM     30  H6  UNL     1       7.654  18.731  28.202  1.00  0.00     0.171 HD
HETATM   31  N7  UNL     1       5.914  20.344  28.496  1.00  0.00    -0.063 NA
HETATM   32  N8  UNL     1       5.208  19.840  26.259  1.00  0.00    -0.163 N 
ATOM     33  H8  UNL     1       4.581  20.635  26.384  1.00  0.00     0.187 HD
ENDBRANCH  20  22
ENDBRANCH  12  20
ENDBRANCH   1  10
BRANCH   6  34
HETATM   34  C12 UNL     1       0.858  19.692  14.706  1.00  0.00     0.306 C 
BRANCH  34  35
HETATM   35  N11 UNL     1       1.449  21.104  14.694  1.00  0.00    -0.064 N 
ATOM     36 3H11 UNL     1       0.887  21.833  14.254  1.00  0.00     0.275 HD
ATOM     37 2H11 UNL     1       1.496  21.591  15.589  1.00  0.00     0.275 HD
ATOM     38 1H11 UNL     1       2.337  20.876  14.247  1.00  0.00     0.275 HD
ENDBRANCH  34  35
BRANCH  34  39
HETATM   39  C13 UNL     1      -0.599  19.833  14.833  1.00  0.00     0.202 C 
BRANCH  39  40
HETATM   40  O3  UNL     1      -0.908  20.556  16.083  1.00  0.00    -0.312 OA
BRANCH  40  41
HETATM   41  C14 UNL     1      -2.085  20.352  16.741  1.00  0.00     0.215 C 
HETATM   42  N12 UNL     1      -2.833  21.260  17.228  1.00  0.00    -0.355 N 
HETATM   43  C15 UNL     1      -4.008  20.669  17.859  1.00  0.00     0.143 C 
ATOM     44  H12 UNL     1      -2.638  22.260  17.185  1.00  0.00     0.163 HD
HETATM   45  C16 UNL     1      -4.045  19.269  17.256  1.00  0.00     0.143 C 
HETATM   46  N13 UNL     1      -2.642  19.058  16.972  1.00  0.00    -0.355 N 
ATOM     47  H13 UNL     1      -2.150  18.165  16.943  1.00  0.00     0.163 HD
ENDBRANCH  40  41
ENDBRANCH  39  40
BRANCH  39  48
HETATM   48  C17 UNL     1      -1.456  20.378  13.777  1.00  0.00     0.173 C 
BRANCH  48  49
HETATM   49  O4  UNL     1      -0.847  19.950  12.517  1.00  0.00    -0.391 OA
ATOM     50  H4  UNL     1      -0.860  20.715  11.954  1.00  0.00     0.210 HD
ENDBRANCH  48  49
BRANCH  48  51
HETATM   51  C18 UNL     1      -1.701  21.805  13.591  1.00  0.00     0.198 C 
BRANCH  51  52
HETATM   52  O5  UNL     1      -0.908  22.639  14.361  1.00  0.00    -0.398 OA
ATOM     53  H5  UNL     1      -1.238  22.811  15.236  1.00  0.00     0.209 HD
ENDBRANCH  51  52
ENDBRANCH  48  51
ENDBRANCH  39  48
ENDBRANCH  34  39
ENDBRANCH   6  34
TORSDOF 13
ENDMDL
