MODEL 1
REMARK VINA RESULT: -6.909925748      0.000      0.000
REMARK  4 active torsions:
REMARK  status: ('A' for Active; 'I' for Inactive)
REMARK    1  A    between atoms: C4_4  and  N1_5 
REMARK    2  A    between atoms: C5_10  and  N3_11 
REMARK    3  A    between atoms: N3_11  and  C6_13 
REMARK    4  A    between atoms: N7_24  and  N8_25 
ROOT
HETATM    1  C1  UNL     1       9.106  20.350  10.241  1.00  0.00     0.071 C 
HETATM    2  C2  UNL     1       8.170  20.077  11.363  1.00  0.00     0.051 A 
HETATM    3  C3  UNL     1       6.789  20.260  11.234  1.00  0.00     0.075 A 
HETATM    4  C4  UNL     1       5.970  19.990  12.311  1.00  0.00     0.116 A 
HETATM    5  N2  UNL     1       6.495  19.557  13.469  1.00  0.00    -0.175 N 
ATOM      6  H2  UNL     1       5.879  19.362  14.258  1.00  0.00     0.186 HD
HETATM    7  C5  UNL     1       7.825  19.378  13.604  1.00  0.00     0.705 A 
HETATM    8  N7  UNL     1       8.609  19.643  12.552  1.00  0.00    -0.097 N 
ENDROOT
BRANCH   7   9
HETATM    9  N3  UNL     1       8.361  18.961  14.713  1.00  0.00    -0.181 N 
ATOM     10  H3  UNL     1       8.870  19.613  15.309  1.00  0.00     0.184 HD
BRANCH   9  11
HETATM   11  C6  UNL     1       8.240  17.596  15.097  1.00  0.00     0.158 A 
HETATM   12  C7  UNL     1       7.176  17.168  15.891  1.00  0.00     0.153 A 
HETATM   13  N4  UNL     1       6.190  18.110  16.327  1.00  0.00    -0.080 NA
HETATM   14  N5  UNL     1       7.112  15.878  16.221  1.00  0.00    -0.295 N 
HETATM   15  C8  UNL     1       8.029  14.968  15.824  1.00  0.00     0.328 A 
ATOM     16  H5  UNL     1       6.335  15.564  16.802  1.00  0.00     0.172 HD
HETATM   17  O1  UNL     1       7.924  13.748  16.166  1.00  0.00    -0.247 OA
HETATM   18  N6  UNL     1       9.059  15.342  15.064  1.00  0.00    -0.273 N 
HETATM   19  C9  UNL     1       9.153  16.638  14.713  1.00  0.00     0.280 A 
ATOM     20  H6  UNL     1       9.757  14.664  14.757  1.00  0.00     0.173 HD
HETATM   21  O2  UNL     1      10.137  16.958  13.995  1.00  0.00    -0.265 OA
ENDBRANCH   9  11
ENDBRANCH   7   9
BRANCH   8  22
HETATM   22  N8  UNL     1       9.996  19.460  12.680  1.00  0.00    -0.324 N 
ATOM     23  H82 UNL     1      10.615  19.924  12.016  1.00  0.00     0.178 HD
ATOM     24  H81 UNL     1      10.308  18.860  13.445  1.00  0.00     0.178 HD
ENDBRANCH   8  22
BRANCH   4  25
HETATM   25  N1  UNL     1       4.677  20.159  12.197  1.00  0.00    -0.385 N 
ATOM     26  H12 UNL     1       4.171  19.736  11.419  1.00  0.00     0.157 HD
ATOM     27  H11 UNL     1       4.180  20.717  12.892  1.00  0.00     0.157 HD
ENDBRANCH   4  25
TORSDOF 4
ENDMDL
MODEL 2
REMARK VINA RESULT: -6.766753235      1.095      1.211
REMARK  4 active torsions:
REMARK  status: ('A' for Active; 'I' for Inactive)
REMARK    1  A    between atoms: C4_4  and  N1_5 
REMARK    2  A    between atoms: C5_10  and  N3_11 
REMARK    3  A    between atoms: N3_11  and  C6_13 
REMARK    4  A    between atoms: N7_24  and  N8_25 
ROOT
HETATM    1  C1  UNL     1       9.502  19.911  10.516  1.00  0.00     0.071 C 
HETATM    2  C2  UNL     1       8.409  19.983  11.520  1.00  0.00     0.051 A 
HETATM    3  C3  UNL     1       7.124  20.421  11.184  1.00  0.00     0.075 A 
HETATM    4  C4  UNL     1       6.150  20.466  12.161  1.00  0.00     0.116 A 
HETATM    5  N2  UNL     1       6.436  20.092  13.419  1.00  0.00    -0.175 N 
ATOM      6  H2  UNL     1       5.708  20.130  14.132  1.00  0.00     0.186 HD
HETATM    7  C5  UNL     1       7.671  19.668  13.753  1.00  0.00     0.705 A 
HETATM    8  N7  UNL     1       8.607  19.628  12.797  1.00  0.00    -0.097 N 
ENDROOT
BRANCH   7   9
HETATM    9  N3  UNL     1       7.977  19.300  14.963  1.00  0.00    -0.181 N 
ATOM     10  H3  UNL     1       8.617  19.866  15.520  1.00  0.00     0.184 HD
BRANCH   9  11
HETATM   11  C6  UNL     1       7.420  18.111  15.512  1.00  0.00     0.158 A 
HETATM   12  C7  UNL     1       6.232  18.148  16.243  1.00  0.00     0.153 A 
HETATM   13  N4  UNL     1       5.562  19.397  16.447  1.00  0.00    -0.080 NA
HETATM   14  N5  UNL     1       5.756  17.005  16.734  1.00  0.00    -0.295 N 
HETATM   15  C8  UNL     1       6.369  15.813  16.557  1.00  0.00     0.328 A 
ATOM     16  H5  UNL     1       4.889  17.030  17.269  1.00  0.00     0.172 HD
HETATM   17  O1  UNL     1       5.874  14.749  17.046  1.00  0.00    -0.247 OA
HETATM   18  N6  UNL     1       7.505  15.741  15.863  1.00  0.00    -0.273 N 
HETATM   19  C9  UNL     1       8.014  16.878  15.353  1.00  0.00     0.280 A 
ATOM     20  H6  UNL     1       7.977  14.847  15.722  1.00  0.00     0.173 HD
HETATM   21  O2  UNL     1       9.087  16.775  14.704  1.00  0.00    -0.265 OA
ENDBRANCH   9  11
ENDBRANCH   7   9
BRANCH   8  22
HETATM   22  N8  UNL     1       9.898  19.188  13.133  1.00  0.00    -0.324 N 
ATOM     23  H82 UNL     1      10.536  18.921  12.383  1.00  0.00     0.178 HD
ATOM     24  H81 UNL     1      10.126  19.160  14.128  1.00  0.00     0.178 HD
ENDBRANCH   8  22
BRANCH   4  25
HETATM   25  N1  UNL     1       4.946  20.876  11.853  1.00  0.00    -0.385 N 
ATOM     26  H12 UNL     1       4.602  21.768  12.208  1.00  0.00     0.157 HD
ATOM     27  H11 UNL     1       4.356  20.298  11.255  1.00  0.00     0.157 HD
ENDBRANCH   4  25
TORSDOF 4
ENDMDL
MODEL 3
REMARK VINA RESULT: -6.691746751      2.951      6.139
REMARK  4 active torsions:
REMARK  status: ('A' for Active; 'I' for Inactive)
REMARK    1  A    between atoms: C4_4  and  N1_5 
REMARK    2  A    between atoms: C5_10  and  N3_11 
REMARK    3  A    between atoms: N3_11  and  C6_13 
REMARK    4  A    between atoms: N7_24  and  N8_25 
ROOT
HETATM    1  C1  UNL     1       7.708  14.532  16.653  1.00  0.00     0.071 C 
HETATM    2  C2  UNL     1       8.127  15.871  16.162  1.00  0.00     0.051 A 
HETATM    3  C3  UNL     1       9.434  16.343  16.326  1.00  0.00     0.075 A 
HETATM    4  C4  UNL     1       9.763  17.595  15.849  1.00  0.00     0.116 A 
HETATM    5  N2  UNL     1       8.839  18.350  15.234  1.00  0.00    -0.175 N 
ATOM      6  H2  UNL     1       9.094  19.274  14.886  1.00  0.00     0.186 HD
HETATM    7  C5  UNL     1       7.576  17.904  15.070  1.00  0.00     0.705 A 
HETATM    8  N7  UNL     1       7.269  16.688  15.537  1.00  0.00    -0.097 N 
ENDROOT
BRANCH   7   9
HETATM    9  N3  UNL     1       6.660  18.614  14.479  1.00  0.00    -0.181 N 
ATOM     10  H3  UNL     1       5.875  18.151  14.021  1.00  0.00     0.184 HD
BRANCH   9  11
HETATM   11  C6  UNL     1       6.749  20.034  14.469  1.00  0.00     0.158 A 
HETATM   12  C7  UNL     1       7.460  20.699  13.469  1.00  0.00     0.153 A 
HETATM   13  N4  UNL     1       8.110  19.947  12.439  1.00  0.00    -0.080 NA
HETATM   14  N5  UNL     1       7.511  22.030  13.509  1.00  0.00    -0.295 N 
HETATM   15  C8  UNL     1       6.908  22.764  14.471  1.00  0.00     0.328 A 
ATOM     16  H5  UNL     1       8.031  22.518  12.780  1.00  0.00     0.172 HD
HETATM   17  O1  UNL     1       6.987  24.033  14.465  1.00  0.00    -0.247 OA
HETATM   18  N6  UNL     1       6.220  22.161  15.441  1.00  0.00    -0.273 N 
HETATM   19  C9  UNL     1       6.149  20.817  15.430  1.00  0.00     0.280 A 
ATOM     20  H6  UNL     1       5.759  22.704  16.172  1.00  0.00     0.173 HD
HETATM   21  O2  UNL     1       5.491  20.280  16.360  1.00  0.00    -0.265 OA
ENDBRANCH   9  11
ENDBRANCH   7   9
BRANCH   8  22
HETATM   22  N8  UNL     1       5.957  16.214  15.373  1.00  0.00    -0.324 N 
ATOM     23  H82 UNL     1       5.612  16.043  14.428  1.00  0.00     0.178 HD
ATOM     24  H81 UNL     1       5.415  16.065  16.225  1.00  0.00     0.178 HD
ENDBRANCH   8  22
BRANCH   4  25
HETATM   25  N1  UNL     1      10.984  18.042  16.000  1.00  0.00    -0.385 N 
ATOM     26  H12 UNL     1      11.447  18.537  15.238  1.00  0.00     0.157 HD
ATOM     27  H11 UNL     1      11.468  17.894  16.886  1.00  0.00     0.157 HD
ENDBRANCH   4  25
TORSDOF 4
ENDMDL
MODEL 4
REMARK VINA RESULT: -6.681851013      1.546      2.841
REMARK  4 active torsions:
REMARK  status: ('A' for Active; 'I' for Inactive)
REMARK    1  A    between atoms: C4_4  and  N1_5 
REMARK    2  A    between atoms: C5_10  and  N3_11 
REMARK    3  A    between atoms: N3_11  and  C6_13 
REMARK    4  A    between atoms: N7_24  and  N8_25 
ROOT
HETATM    1  C1  UNL     1       6.246  21.272  11.436  1.00  0.00     0.071 C 
HETATM    2  C2  UNL     1       7.395  20.535  12.026  1.00  0.00     0.051 A 
HETATM    3  C3  UNL     1       8.525  20.203  11.272  1.00  0.00     0.075 A 
HETATM    4  C4  UNL     1       9.560  19.518  11.875  1.00  0.00     0.116 A 
HETATM    5  N2  UNL     1       9.480  19.176  13.171  1.00  0.00    -0.175 N 
ATOM      6  H2  UNL     1      10.251  18.670  13.606  1.00  0.00     0.186 HD
HETATM    7  C5  UNL     1       8.395  19.492  13.907  1.00  0.00     0.705 A 
HETATM    8  N7  UNL     1       7.398  20.157  13.310  1.00  0.00    -0.097 N 
ENDROOT
BRANCH   7   9
HETATM    9  N3  UNL     1       8.290  19.174  15.164  1.00  0.00    -0.181 N 
ATOM     10  H3  UNL     1       8.207  19.906  15.869  1.00  0.00     0.184 HD
BRANCH   9  11
HETATM   11  C6  UNL     1       8.292  17.807  15.558  1.00  0.00     0.158 A 
HETATM   12  C7  UNL     1       9.459  17.197  16.019  1.00  0.00     0.153 A 
HETATM   13  N4  UNL     1      10.673  17.952  16.098  1.00  0.00    -0.080 NA
HETATM   14  N5  UNL     1       9.404  15.914  16.375  1.00  0.00    -0.295 N 
HETATM   15  C8  UNL     1       8.272  15.178  16.310  1.00  0.00     0.328 A 
ATOM     16  H5  UNL     1      10.256  15.466  16.711  1.00  0.00     0.172 HD
HETATM   17  O1  UNL     1       8.270  13.955  16.661  1.00  0.00    -0.247 OA
HETATM   18  N6  UNL     1       7.138  15.729  15.876  1.00  0.00    -0.273 N 
HETATM   19  C9  UNL     1       7.160  17.023  15.508  1.00  0.00     0.280 A 
ATOM     20  H6  UNL     1       6.277  15.184  15.823  1.00  0.00     0.173 HD
HETATM   21  O2  UNL     1       6.074  17.513  15.102  1.00  0.00    -0.265 OA
ENDBRANCH   9  11
ENDBRANCH   7   9
BRANCH   8  22
HETATM   22  N8  UNL     1       6.263  20.492  14.067  1.00  0.00    -0.324 N 
ATOM     23  H82 UNL     1       5.411  20.768  13.577  1.00  0.00     0.178 HD
ATOM     24  H81 UNL     1       6.358  20.439  15.081  1.00  0.00     0.178 HD
ENDBRANCH   8  22
BRANCH   4  25
HETATM   25  N1  UNL     1      10.619  19.203  11.175  1.00  0.00    -0.385 N 
ATOM     26  H12 UNL     1      11.364  19.886  11.035  1.00  0.00     0.157 HD
ATOM     27  H11 UNL     1      10.696  18.269  10.772  1.00  0.00     0.157 HD
ENDBRANCH   4  25
TORSDOF 4
ENDMDL
MODEL 5
REMARK VINA RESULT: -6.667174762      2.424      3.173
REMARK  4 active torsions:
REMARK  status: ('A' for Active; 'I' for Inactive)
REMARK    1  A    between atoms: C4_4  and  N1_5 
REMARK    2  A    between atoms: C5_10  and  N3_11 
REMARK    3  A    between atoms: N3_11  and  C6_13 
REMARK    4  A    between atoms: N7_24  and  N8_25 
ROOT
HETATM    1  C1  UNL     1      10.058  19.328  10.303  1.00  0.00     0.071 C 
HETATM    2  C2  UNL     1       9.018  20.112  11.019  1.00  0.00     0.051 A 
HETATM    3  C3  UNL     1       8.101  20.919  10.338  1.00  0.00     0.075 A 
HETATM    4  C4  UNL     1       7.158  21.623  11.058  1.00  0.00     0.116 A 
HETATM    5  N2  UNL     1       7.123  21.533  12.397  1.00  0.00    -0.175 N 
ATOM      6  H2  UNL     1       6.422  22.059  12.918  1.00  0.00     0.186 HD
HETATM    7  C5  UNL     1       8.003  20.757  13.063  1.00  0.00     0.705 A 
HETATM    8  N7  UNL     1       8.912  20.079  12.354  1.00  0.00    -0.097 N 
ENDROOT
BRANCH   7   9
HETATM    9  N3  UNL     1       7.993  20.651  14.360  1.00  0.00    -0.181 N 
ATOM     10  H3  UNL     1       8.764  21.033  14.907  1.00  0.00     0.184 HD
BRANCH   9  11
HETATM   11  C6  UNL     1       6.909  20.004  15.017  1.00  0.00     0.158 A 
HETATM   12  C7  UNL     1       5.825  20.736  15.502  1.00  0.00     0.153 A 
HETATM   13  N4  UNL     1       5.799  22.159  15.340  1.00  0.00    -0.080 NA
HETATM   14  N5  UNL     1       4.839  20.078  16.109  1.00  0.00    -0.295 N 
HETATM   15  C8  UNL     1       4.839  18.736  16.276  1.00  0.00     0.328 A 
ATOM     16  H5  UNL     1       4.046  20.612  16.465  1.00  0.00     0.172 HD
HETATM   17  O1  UNL     1       3.872  18.155  16.863  1.00  0.00    -0.247 OA
HETATM   18  N6  UNL     1       5.858  18.005  15.824  1.00  0.00    -0.273 N 
HETATM   19  C9  UNL     1       6.872  18.639  15.207  1.00  0.00     0.280 A 
ATOM     20  H6  UNL     1       5.869  16.992  15.943  1.00  0.00     0.173 HD
HETATM   21  O2  UNL     1       7.818  17.920  14.792  1.00  0.00    -0.265 OA
ENDBRANCH   9  11
ENDBRANCH   7   9
BRANCH   8  22
HETATM   22  N8  UNL     1       9.833  19.268  13.037  1.00  0.00    -0.324 N 
ATOM     23  H82 UNL     1      10.420  18.630  12.498  1.00  0.00     0.178 HD
ATOM     24  H81 UNL     1       9.862  19.365  14.053  1.00  0.00     0.178 HD
ENDBRANCH   8  22
BRANCH   4  25
HETATM   25  N1  UNL     1       6.298  22.381  10.426  1.00  0.00    -0.385 N 
ATOM     26  H12 UNL     1       5.315  22.379  10.699  1.00  0.00     0.157 HD
ATOM     27  H11 UNL     1       6.618  22.974   9.660  1.00  0.00     0.157 HD
ENDBRANCH   4  25
TORSDOF 4
ENDMDL
