MODEL 1
REMARK VINA RESULT: -8.575786961      0.000      0.000
REMARK  4 active torsions:
REMARK  status: ('A' for Active; 'I' for Inactive)
REMARK    1  A    between atoms: C2_2  and  C4_4 
REMARK    2  A    between atoms: C8_8  and  O1_9 
REMARK    3  A    between atoms: C15_18  and  O3_19 
REMARK    4  A    between atoms: N1_24  and  O4_25 
ROOT
HETATM    1  C4  UNL     1      24.716   4.484  36.675  1.00  0.00     0.051 C 
HETATM    2  C5  UNL     1      23.537   4.124  37.499  1.00  0.00     0.013 C 
HETATM    3  C6  UNL     1      22.725   3.291  36.521  1.00  0.00     0.011 C 
HETATM    4  C7  UNL     1      22.827   3.990  35.222  1.00  0.00     0.058 C 
HETATM    5  C8  UNL     1      24.237   4.596  35.240  1.00  0.00     0.100 C 
HETATM    6  C9  UNL     1      23.936   6.024  34.963  1.00  0.00     0.183 C 
HETATM    7  O2  UNL     1      22.719   6.207  35.651  1.00  0.00    -0.369 OA
HETATM    8  C10 UNL     1      21.978   5.180  35.037  1.00  0.00     0.074 C 
HETATM    9  C11 UNL     1      20.581   5.098  35.465  1.00  0.00     0.047 C 
HETATM   10  C12 UNL     1      22.081   5.642  33.575  1.00  0.00     0.015 C 
HETATM   11  C13 UNL     1      21.902   4.391  32.754  1.00  0.00     0.020 C 
HETATM   12  C14 UNL     1      20.959   6.579  33.225  1.00  0.00     0.048 C 
HETATM   13  C15 UNL     1      21.384   7.512  32.136  1.00  0.00     0.148 C 
HETATM   14  C16 UNL     1      22.565   8.305  32.600  1.00  0.00     0.073 C 
HETATM   15  C17 UNL     1      22.103   9.512  33.427  1.00  0.00     0.043 C 
HETATM   16  C18 UNL     1      23.206   8.916  31.345  1.00  0.00     0.043 C 
HETATM   17  N1  UNL     1      23.545   7.620  33.312  1.00  0.00    -0.277 N 
HETATM   18  C19 UNL     1      23.431   6.237  33.526  1.00  0.00     0.152 C 
ENDROOT
BRANCH   1  19
HETATM   19  C2  UNL     1      25.901   3.626  36.796  1.00  0.00    -0.086 C 
HETATM   20  C1  UNL     1      25.922   2.396  37.283  1.00  0.00     0.014 C 
HETATM   21  C3  UNL     1      27.216   4.205  36.329  1.00  0.00     0.043 C 
ENDBRANCH   1  19
BRANCH   5  22
HETATM   22  O1  UNL     1      25.063   3.993  34.330  1.00  0.00    -0.386 OA
ATOM     23  H1  UNL     1      24.603   3.490  33.668  1.00  0.00     0.210 HD
ENDBRANCH   5  22
BRANCH  17  24
HETATM   24  O4  UNL     1      24.820   7.923  32.966  1.00  0.00    -0.291 OA
ATOM     25  H4  UNL     1      25.488   7.522  33.510  1.00  0.00     0.244 HD
ENDBRANCH  17  24
BRANCH  13  26
HETATM   26  O3  UNL     1      21.735   6.891  30.957  1.00  0.00    -0.393 OA
ATOM     27  H3  UNL     1      22.661   6.934  30.750  1.00  0.00     0.210 HD
ENDBRANCH  13  26
TORSDOF 4
ENDMDL
MODEL 2
REMARK VINA RESULT: -7.802924155      2.324      5.743
REMARK  4 active torsions:
REMARK  status: ('A' for Active; 'I' for Inactive)
REMARK    1  A    between atoms: C2_2  and  C4_4 
REMARK    2  A    between atoms: C8_8  and  O1_9 
REMARK    3  A    between atoms: C15_18  and  O3_19 
REMARK    4  A    between atoms: N1_24  and  O4_25 
ROOT
HETATM    1  C4  UNL     1      18.466   5.846  34.435  1.00  0.00     0.051 C 
HETATM    2  C5  UNL     1      18.515   7.265  34.006  1.00  0.00     0.013 C 
HETATM    3  C6  UNL     1      19.257   7.158  32.684  1.00  0.00     0.011 C 
HETATM    4  C7  UNL     1      20.337   6.173  32.912  1.00  0.00     0.058 C 
HETATM    5  C8  UNL     1      19.724   5.179  33.909  1.00  0.00     0.100 C 
HETATM    6  C9  UNL     1      20.743   5.197  34.990  1.00  0.00     0.183 C 
HETATM    7  O2  UNL     1      21.151   6.548  34.987  1.00  0.00    -0.369 OA
HETATM    8  C10 UNL     1      21.529   6.646  33.635  1.00  0.00     0.074 C 
HETATM    9  C11 UNL     1      22.093   7.941  33.253  1.00  0.00     0.047 C 
HETATM   10  C12 UNL     1      22.602   5.546  33.598  1.00  0.00     0.015 C 
HETATM   11  C13 UNL     1      22.658   5.099  32.160  1.00  0.00     0.020 C 
HETATM   12  C14 UNL     1      23.954   6.099  33.956  1.00  0.00     0.048 C 
HETATM   13  C15 UNL     1      24.806   5.030  34.563  1.00  0.00     0.148 C 
HETATM   14  C16 UNL     1      24.141   4.513  35.799  1.00  0.00     0.073 C 
HETATM   15  C17 UNL     1      24.460   5.421  36.995  1.00  0.00     0.043 C 
HETATM   16  C18 UNL     1      24.815   3.174  36.136  1.00  0.00     0.043 C 
HETATM   17  N1  UNL     1      22.764   4.316  35.739  1.00  0.00    -0.277 N 
HETATM   18  C19 UNL     1      22.065   4.549  34.545  1.00  0.00     0.152 C 
ENDROOT
BRANCH   1  19
HETATM   19  C2  UNL     1      17.257   5.088  34.094  1.00  0.00    -0.086 C 
HETATM   20  C1  UNL     1      16.901   3.921  34.608  1.00  0.00     0.014 C 
HETATM   21  C3  UNL     1      16.340   5.691  33.055  1.00  0.00     0.043 C 
ENDBRANCH   1  19
BRANCH   5  22
HETATM   22  O1  UNL     1      19.507   3.954  33.340  1.00  0.00    -0.386 OA
ATOM     23  H1  UNL     1      19.292   3.272  33.965  1.00  0.00     0.210 HD
ENDBRANCH   5  22
BRANCH  17  24
HETATM   24  O4  UNL     1      22.326   3.164  36.305  1.00  0.00    -0.291 OA
ATOM     25  H4  UNL     1      21.424   3.182  36.602  1.00  0.00     0.244 HD
ENDBRANCH  17  24
BRANCH  13  26
HETATM   26  O3  UNL     1      25.047   3.953  33.737  1.00  0.00    -0.393 OA
ATOM     27  H3  UNL     1      24.575   3.163  33.972  1.00  0.00     0.210 HD
ENDBRANCH  13  26
TORSDOF 4
ENDMDL
MODEL 3
REMARK VINA RESULT: -7.386249835      2.328      3.137
REMARK  4 active torsions:
REMARK  status: ('A' for Active; 'I' for Inactive)
REMARK    1  A    between atoms: C2_2  and  C4_4 
REMARK    2  A    between atoms: C8_8  and  O1_9 
REMARK    3  A    between atoms: C15_18  and  O3_19 
REMARK    4  A    between atoms: N1_24  and  O4_25 
ROOT
HETATM    1  C4  UNL     1      20.237   4.206  36.819  1.00  0.00     0.051 C 
HETATM    2  C5  UNL     1      18.785   4.291  36.527  1.00  0.00     0.013 C 
HETATM    3  C6  UNL     1      18.717   3.672  35.141  1.00  0.00     0.011 C 
HETATM    4  C7  UNL     1      19.888   4.202  34.410  1.00  0.00     0.058 C 
HETATM    5  C8  UNL     1      20.965   4.345  35.496  1.00  0.00     0.100 C 
HETATM    6  C9  UNL     1      21.349   5.770  35.328  1.00  0.00     0.183 C 
HETATM    7  O2  UNL     1      20.115   6.371  35.003  1.00  0.00    -0.369 OA
HETATM    8  C10 UNL     1      19.784   5.576  33.890  1.00  0.00     0.074 C 
HETATM    9  C11 UNL     1      18.545   5.960  33.214  1.00  0.00     0.047 C 
HETATM   10  C12 UNL     1      21.008   5.866  33.006  1.00  0.00     0.015 C 
HETATM   11  C13 UNL     1      21.131   4.670  32.098  1.00  0.00     0.020 C 
HETATM   12  C14 UNL     1      20.772   7.073  32.139  1.00  0.00     0.048 C 
HETATM   13  C15 UNL     1      22.071   7.741  31.818  1.00  0.00     0.148 C 
HETATM   14  C16 UNL     1      22.733   8.168  33.090  1.00  0.00     0.073 C 
HETATM   15  C17 UNL     1      22.173   9.519  33.553  1.00  0.00     0.043 C 
HETATM   16  C18 UNL     1      24.203   8.451  32.748  1.00  0.00     0.043 C 
HETATM   17  N1  UNL     1      22.687   7.273  34.156  1.00  0.00    -0.277 N 
HETATM   18  C19 UNL     1      22.088   6.014  34.001  1.00  0.00     0.152 C 
ENDROOT
BRANCH   1  19
HETATM   19  C2  UNL     1      20.696   3.039  37.581  1.00  0.00    -0.086 C 
HETATM   20  C1  UNL     1      20.016   1.919  37.771  1.00  0.00     0.014 C 
HETATM   21  C3  UNL     1      22.065   3.128  38.213  1.00  0.00     0.043 C 
ENDBRANCH   1  19
BRANCH   5  22
HETATM   22  O1  UNL     1      21.983   3.448  35.325  1.00  0.00    -0.386 OA
ATOM     23  H1  UNL     1      22.493   3.589  34.536  1.00  0.00     0.210 HD
ENDBRANCH   5  22
BRANCH  17  24
HETATM   24  O4  UNL     1      23.850   7.142  34.842  1.00  0.00    -0.291 OA
ATOM     25  H4  UNL     1      24.035   7.847  35.452  1.00  0.00     0.244 HD
ENDBRANCH  17  24
BRANCH  13  26
HETATM   26  O3  UNL     1      22.964   6.950  31.127  1.00  0.00    -0.393 OA
ATOM     27  H3  UNL     1      23.606   7.433  30.621  1.00  0.00     0.210 HD
ENDBRANCH  13  26
TORSDOF 4
ENDMDL
MODEL 4
REMARK VINA RESULT: -7.199439871      2.242      3.822
REMARK  4 active torsions:
REMARK  status: ('A' for Active; 'I' for Inactive)
REMARK    1  A    between atoms: C2_2  and  C4_4 
REMARK    2  A    between atoms: C8_8  and  O1_9 
REMARK    3  A    between atoms: C15_18  and  O3_19 
REMARK    4  A    between atoms: N1_24  and  O4_25 
ROOT
HETATM    1  C4  UNL     1      23.840   3.641  35.788  1.00  0.00     0.051 C 
HETATM    2  C5  UNL     1      24.380   3.194  34.480  1.00  0.00     0.013 C 
HETATM    3  C6  UNL     1      24.595   4.522  33.772  1.00  0.00     0.011 C 
HETATM    4  C7  UNL     1      23.415   5.348  34.106  1.00  0.00     0.058 C 
HETATM    5  C8  UNL     1      23.054   4.912  35.533  1.00  0.00     0.100 C 
HETATM    6  C9  UNL     1      21.624   4.546  35.365  1.00  0.00     0.183 C 
HETATM    7  O2  UNL     1      21.616   3.981  34.073  1.00  0.00    -0.369 OA
HETATM    8  C10 UNL     1      22.172   5.065  33.369  1.00  0.00     0.074 C 
HETATM    9  C11 UNL     1      22.264   4.868  31.921  1.00  0.00     0.047 C 
HETATM   10  C12 UNL     1      21.133   6.143  33.714  1.00  0.00     0.015 C 
HETATM   11  C13 UNL     1      21.866   7.453  33.582  1.00  0.00     0.020 C 
HETATM   12  C14 UNL     1      20.009   6.148  32.715  1.00  0.00     0.048 C 
HETATM   13  C15 UNL     1      18.752   6.650  33.352  1.00  0.00     0.148 C 
HETATM   14  C16 UNL     1      18.391   5.758  34.499  1.00  0.00     0.073 C 
HETATM   15  C17 UNL     1      17.623   4.529  33.995  1.00  0.00     0.043 C 
HETATM   16  C18 UNL     1      17.375   6.530  35.354  1.00  0.00     0.043 C 
HETATM   17  N1  UNL     1      19.433   5.333  35.319  1.00  0.00    -0.277 N 
HETATM   18  C19 UNL     1      20.744   5.778  35.090  1.00  0.00     0.152 C 
ENDROOT
BRANCH   1  19
HETATM   19  C2  UNL     1      24.800   3.796  36.887  1.00  0.00    -0.086 C 
HETATM   20  C1  UNL     1      25.959   4.431  36.821  1.00  0.00     0.014 C 
HETATM   21  C3  UNL     1      24.434   3.165  38.210  1.00  0.00     0.043 C 
ENDBRANCH   1  19
BRANCH   5  22
HETATM   22  O1  UNL     1      23.293   5.905  36.445  1.00  0.00    -0.386 OA
ATOM     23  H1  UNL     1      24.132   6.335  36.334  1.00  0.00     0.210 HD
ENDBRANCH   5  22
BRANCH  17  24
HETATM   24  O4  UNL     1      19.165   5.371  36.648  1.00  0.00    -0.291 OA
ATOM     25  H4  UNL     1      19.684   4.776  37.177  1.00  0.00     0.244 HD
ENDBRANCH  17  24
BRANCH  13  26
HETATM   26  O3  UNL     1      18.832   7.938  33.834  1.00  0.00    -0.393 OA
ATOM     27  H3  UNL     1      17.995   8.378  33.922  1.00  0.00     0.210 HD
ENDBRANCH  13  26
TORSDOF 4
ENDMDL
MODEL 5
REMARK VINA RESULT: -6.778068587      2.300      4.188
REMARK  4 active torsions:
REMARK  status: ('A' for Active; 'I' for Inactive)
REMARK    1  A    between atoms: C2_2  and  C4_4 
REMARK    2  A    between atoms: C8_8  and  O1_9 
REMARK    3  A    between atoms: C15_18  and  O3_19 
REMARK    4  A    between atoms: N1_24  and  O4_25 
ROOT
HETATM    1  C4  UNL     1      24.335   4.333  35.068  1.00  0.00     0.051 C 
HETATM    2  C5  UNL     1      24.657   4.068  33.645  1.00  0.00     0.013 C 
HETATM    3  C6  UNL     1      24.360   5.417  33.010  1.00  0.00     0.011 C 
HETATM    4  C7  UNL     1      23.118   5.895  33.654  1.00  0.00     0.058 C 
HETATM    5  C8  UNL     1      23.215   5.355  35.088  1.00  0.00     0.100 C 
HETATM    6  C9  UNL     1      21.926   4.626  35.205  1.00  0.00     0.183 C 
HETATM    7  O2  UNL     1      21.767   4.100  33.906  1.00  0.00    -0.369 OA
HETATM    8  C10 UNL     1      21.853   5.305  33.183  1.00  0.00     0.074 C 
HETATM    9  C11 UNL     1      21.658   5.164  31.739  1.00  0.00     0.047 C 
HETATM   10  C12 UNL     1      20.681   6.063  33.826  1.00  0.00     0.015 C 
HETATM   11  C13 UNL     1      21.006   7.522  33.639  1.00  0.00     0.020 C 
HETATM   12  C14 UNL     1      19.395   5.786  33.097  1.00  0.00     0.048 C 
HETATM   13  C15 UNL     1      18.232   5.926  34.027  1.00  0.00     0.148 C 
HETATM   14  C16 UNL     1      18.382   4.952  35.153  1.00  0.00     0.073 C 
HETATM   15  C17 UNL     1      17.858   3.572  34.734  1.00  0.00     0.043 C 
HETATM   16  C18 UNL     1      17.426   5.411  36.264  1.00  0.00     0.043 C 
HETATM   17  N1  UNL     1      19.656   4.804  35.694  1.00  0.00    -0.277 N 
HETATM   18  C19 UNL     1      20.723   5.584  35.222  1.00  0.00     0.152 C 
ENDROOT
BRANCH   1  19
HETATM   19  C2  UNL     1      25.449   4.718  35.943  1.00  0.00    -0.086 C 
HETATM   20  C1  UNL     1      26.512   5.420  35.583  1.00  0.00     0.014 C 
HETATM   21  C3  UNL     1      25.379   4.265  37.382  1.00  0.00     0.043 C 
ENDBRANCH   1  19
BRANCH   5  22
HETATM   22  O1  UNL     1      23.395   6.359  35.999  1.00  0.00    -0.386 OA
ATOM     23  H1  UNL     1      22.991   6.192  36.843  1.00  0.00     0.210 HD
ENDBRANCH   5  22
BRANCH  17  24
HETATM   24  O4  UNL     1      19.699   4.746  37.048  1.00  0.00    -0.291 OA
ATOM     25  H4  UNL     1      19.669   5.590  37.485  1.00  0.00     0.244 HD
ENDBRANCH  17  24
BRANCH  13  26
HETATM   26  O3  UNL     1      18.090   7.182  34.578  1.00  0.00    -0.393 OA
ATOM     27  H3  UNL     1      17.798   7.848  33.967  1.00  0.00     0.210 HD
ENDBRANCH  13  26
TORSDOF 4
ENDMDL
