MODEL 1
REMARK VINA RESULT: -8.125277483      0.000      0.000
REMARK  7 active torsions:
REMARK  status: ('A' for Active; 'I' for Inactive)
REMARK    1  A    between atoms: C3_3  and  C4_4 
REMARK    2  A    between atoms: C4_4  and  N1_5 
REMARK    3  A    between atoms: N1_5  and  C5_6 
REMARK    4  A    between atoms: C5_6  and  C6_7 
REMARK    5  A    between atoms: C6_7  and  C7_8 
REMARK    6  A    between atoms: C11_12  and  C12_13 
REMARK    7  A    between atoms: C12_13  and  O1_14 
ROOT
HETATM    1  C1  UNL     1      36.680  24.006  56.600  1.00  0.00     0.112 C 
HETATM    2  C2  UNL     1      37.838  24.427  55.819  1.00  0.00    -0.109 C 
HETATM    3  C3  UNL     1      38.794  24.776  55.165  1.00  0.00    -0.079 C 
ENDROOT
BRANCH   3   4
HETATM    4  C4  UNL     1      39.950  25.159  54.403  1.00  0.00     0.338 C 
BRANCH   4   5
HETATM    5  N1  UNL     1      40.361  26.511  54.507  1.00  0.00    -0.011 N 
HETATM    6  C18 UNL     1      40.681  26.758  55.926  1.00  0.00     0.274 C 
HETATM    7  C19 UNL     1      40.580  28.251  56.082  1.00  0.00     0.267 C 
HETATM    8  N5  UNL     1      39.444  28.547  55.258  1.00  0.00    -0.049 N 
HETATM    9  C20 UNL     1      39.586  29.866  54.650  1.00  0.00     0.274 C 
HETATM   10  C21 UNL     1      38.248  28.523  56.101  1.00  0.00     0.274 C 
HETATM   11  C22 UNL     1      39.321  27.498  54.288  1.00  0.00     0.478 C 
BRANCH   5  12
HETATM   12  C5  UNL     1      41.525  26.784  53.753  1.00  0.00     0.208 C 
BRANCH  12  13
HETATM   13  C6  UNL     1      42.863  26.343  54.101  1.00  0.00     0.054 C 
BRANCH  13  14
HETATM   14  C7  UNL     1      43.412  25.082  53.712  1.00  0.00     0.031 C 
HETATM   15  C8  UNL     1      43.132  24.308  52.562  1.00  0.00     0.016 C 
HETATM   16  C9  UNL     1      43.316  22.990  52.041  1.00  0.00     0.029 A 
HETATM   17  C10 UNL     1      43.662  21.914  51.904  1.00  0.00     0.048 A 
HETATM   18  C17 UNL     1      44.306  22.150  53.013  1.00  0.00     0.065 A 
HETATM   19  C16 UNL     1      44.116  22.977  53.232  1.00  0.00     0.064 A 
HETATM   20  C11 UNL     1      44.240  20.674  52.013  1.00  0.00     0.030 A 
HETATM   21  N2  UNL     1      45.103  20.237  53.037  1.00  0.00    -0.326 N 
HETATM   22  C13 UNL     1      45.828  19.218  53.500  1.00  0.00     0.129 C 
HETATM   23  C14 UNL     1      45.074  21.382  53.694  1.00  0.00     0.100 A 
HETATM   24  N3  UNL     1      45.433  22.212  54.739  1.00  0.00    -0.334 N 
HETATM   25  C15 UNL     1      44.736  23.296  54.357  1.00  0.00     0.095 A 
ATOM     26  H3  UNL     1      46.036  22.053  55.547  1.00  0.00     0.168 HD
HETATM   27  N4  UNL     1      44.414  24.535  54.661  1.00  0.00    -0.345 N 
ATOM     28  H4  UNL     1      44.804  25.053  55.449  1.00  0.00     0.167 HD
BRANCH  20  29
HETATM   29  C12 UNL     1      43.996  19.643  51.026  1.00  0.00     0.218 C 
BRANCH  29  30
HETATM   30  O1  UNL     1      44.630  19.891  49.800  1.00  0.00    -0.395 OA
ATOM     31  H1  UNL     1      45.577  19.836  49.851  1.00  0.00     0.209 HD
ENDBRANCH  29  30
ENDBRANCH  20  29
ENDBRANCH  13  14
ENDBRANCH  12  13
ENDBRANCH   5  12
ENDBRANCH   4   5
ENDBRANCH   3   4
TORSDOF 7
ENDMDL
MODEL 2
REMARK VINA RESULT: -8.118345444      3.507      7.929
REMARK  7 active torsions:
REMARK  status: ('A' for Active; 'I' for Inactive)
REMARK    1  A    between atoms: C3_3  and  C4_4 
REMARK    2  A    between atoms: C4_4  and  N1_5 
REMARK    3  A    between atoms: N1_5  and  C5_6 
REMARK    4  A    between atoms: C5_6  and  C6_7 
REMARK    5  A    between atoms: C6_7  and  C7_8 
REMARK    6  A    between atoms: C11_12  and  C12_13 
REMARK    7  A    between atoms: C12_13  and  O1_14 
ROOT
HETATM    1  C1  UNL     1      44.491  21.086  51.326  1.00  0.00     0.112 C 
HETATM    2  C2  UNL     1      43.555  22.127  51.738  1.00  0.00    -0.109 C 
HETATM    3  C3  UNL     1      42.783  22.994  52.074  1.00  0.00    -0.079 C 
ENDROOT
BRANCH   3   4
HETATM    4  C4  UNL     1      41.877  24.021  52.512  1.00  0.00     0.338 C 
BRANCH   4   5
HETATM    5  N1  UNL     1      42.384  24.960  53.444  1.00  0.00    -0.011 N 
HETATM    6  C18 UNL     1      43.233  25.902  52.691  1.00  0.00     0.274 C 
HETATM    7  C19 UNL     1      44.141  26.505  53.728  1.00  0.00     0.267 C 
HETATM    8  N5  UNL     1      44.419  25.369  54.558  1.00  0.00    -0.049 N 
HETATM    9  C20 UNL     1      44.608  25.786  55.944  1.00  0.00     0.274 C 
HETATM   10  C21 UNL     1      45.642  24.732  54.069  1.00  0.00     0.274 C 
HETATM   11  C22 UNL     1      43.341  24.437  54.400  1.00  0.00     0.478 C 
BRANCH   5  12
HETATM   12  C5  UNL     1      41.361  25.712  54.068  1.00  0.00     0.208 C 
BRANCH  12  13
HETATM   13  C6  UNL     1      39.963  25.329  54.119  1.00  0.00     0.054 C 
BRANCH  13  14
HETATM   14  C7  UNL     1      39.280  24.967  55.321  1.00  0.00     0.031 C 
HETATM   15  C8  UNL     1      38.011  24.362  55.474  1.00  0.00     0.016 C 
HETATM   16  C9  UNL     1      37.015  24.110  56.468  1.00  0.00     0.029 A 
HETATM   17  C10 UNL     1      36.472  24.026  57.465  1.00  0.00     0.048 A 
HETATM   18  C17 UNL     1      37.592  24.502  57.933  1.00  0.00     0.065 A 
HETATM   19  C16 UNL     1      38.115  24.615  57.238  1.00  0.00     0.064 A 
HETATM   20  C11 UNL     1      36.094  24.040  58.784  1.00  0.00     0.030 A 
HETATM   21  N2  UNL     1      36.876  24.463  59.876  1.00  0.00    -0.326 N 
HETATM   22  C13 UNL     1      36.912  24.633  61.199  1.00  0.00     0.129 C 
HETATM   23  C14 UNL     1      37.928  24.772  59.141  1.00  0.00     0.100 A 
HETATM   24  N3  UNL     1      39.218  25.236  58.968  1.00  0.00    -0.334 N 
HETATM   25  C15 UNL     1      39.282  25.101  57.633  1.00  0.00     0.095 A 
ATOM     26  H3  UNL     1      39.905  25.575  59.641  1.00  0.00     0.168 HD
HETATM   27  N4  UNL     1      40.031  25.273  56.565  1.00  0.00    -0.345 N 
ATOM     28  H4  UNL     1      41.005  25.577  56.588  1.00  0.00     0.167 HD
BRANCH  20  29
HETATM   29  C12 UNL     1      34.777  23.598  59.193  1.00  0.00     0.218 C 
BRANCH  29  30
HETATM   30  O1  UNL     1      34.349  22.444  58.523  1.00  0.00    -0.395 OA
ATOM     31  H1  UNL     1      33.461  22.191  58.743  1.00  0.00     0.209 HD
ENDBRANCH  29  30
ENDBRANCH  20  29
ENDBRANCH  13  14
ENDBRANCH  12  13
ENDBRANCH   5  12
ENDBRANCH   4   5
ENDBRANCH   3   4
TORSDOF 7
ENDMDL
MODEL 3
REMARK VINA RESULT: -8.084907931      1.553      1.902
REMARK  7 active torsions:
REMARK  status: ('A' for Active; 'I' for Inactive)
REMARK    1  A    between atoms: C3_3  and  C4_4 
REMARK    2  A    between atoms: C4_4  and  N1_5 
REMARK    3  A    between atoms: N1_5  and  C5_6 
REMARK    4  A    between atoms: C5_6  and  C6_7 
REMARK    5  A    between atoms: C6_7  and  C7_8 
REMARK    6  A    between atoms: C11_12  and  C12_13 
REMARK    7  A    between atoms: C12_13  and  O1_14 
ROOT
HETATM    1  C1  UNL     1      37.576  24.405  55.928  1.00  0.00     0.112 C 
HETATM    2  C2  UNL     1      38.731  24.770  55.114  1.00  0.00    -0.109 C 
HETATM    3  C3  UNL     1      39.683  25.075  54.434  1.00  0.00    -0.079 C 
ENDROOT
BRANCH   3   4
HETATM    4  C4  UNL     1      40.829  25.400  53.631  1.00  0.00     0.338 C 
BRANCH   4   5
HETATM    5  N1  UNL     1      41.819  26.214  54.236  1.00  0.00    -0.011 N 
HETATM    6  C18 UNL     1      42.203  25.560  55.500  1.00  0.00     0.274 C 
HETATM    7  C19 UNL     1      42.804  26.663  56.329  1.00  0.00     0.267 C 
HETATM    8  N5  UNL     1      41.943  27.763  56.007  1.00  0.00    -0.049 N 
HETATM    9  C20 UNL     1      42.686  29.019  56.042  1.00  0.00     0.274 C 
HETATM   10  C21 UNL     1      40.864  27.806  56.994  1.00  0.00     0.274 C 
HETATM   11  C22 UNL     1      41.357  27.499  54.725  1.00  0.00     0.478 C 
BRANCH   5  12
HETATM   12  C5  UNL     1      42.985  26.330  53.444  1.00  0.00     0.208 C 
BRANCH  12  13
HETATM   13  C6  UNL     1      43.342  25.439  52.355  1.00  0.00     0.054 C 
BRANCH  13  14
HETATM   14  C7  UNL     1      43.877  24.128  52.543  1.00  0.00     0.031 C 
HETATM   15  C8  UNL     1      43.672  22.965  51.765  1.00  0.00     0.016 C 
HETATM   16  C9  UNL     1      43.853  21.548  51.818  1.00  0.00     0.029 A 
HETATM   17  C10 UNL     1      44.171  20.505  52.145  1.00  0.00     0.048 A 
HETATM   18  C17 UNL     1      44.725  21.158  53.130  1.00  0.00     0.065 A 
HETATM   19  C16 UNL     1      44.545  22.004  52.989  1.00  0.00     0.064 A 
HETATM   20  C11 UNL     1      44.694  19.408  52.783  1.00  0.00     0.030 A 
HETATM   21  N2  UNL     1      45.447  19.408  53.973  1.00  0.00    -0.326 N 
HETATM   22  C13 UNL     1      46.092  18.652  54.863  1.00  0.00     0.129 C 
HETATM   23  C14 UNL     1      45.402  20.718  54.126  1.00  0.00     0.100 A 
HETATM   24  N3  UNL     1      45.697  21.892  54.793  1.00  0.00    -0.334 N 
HETATM   25  C15 UNL     1      45.076  22.738  53.955  1.00  0.00     0.095 A 
ATOM     26  H3  UNL     1      46.221  22.063  55.652  1.00  0.00     0.168 HD
HETATM   27  N4  UNL     1      44.772  23.997  53.720  1.00  0.00    -0.345 N 
ATOM     28  H4  UNL     1      45.110  24.783  54.276  1.00  0.00     0.167 HD
BRANCH  20  29
HETATM   29  C12 UNL     1      44.501  18.072  52.258  1.00  0.00     0.218 C 
BRANCH  29  30
HETATM   30  O1  UNL     1      43.494  17.358  52.922  1.00  0.00    -0.395 OA
ATOM     31  H1  UNL     1      43.145  16.639  52.408  1.00  0.00     0.209 HD
ENDBRANCH  29  30
ENDBRANCH  20  29
ENDBRANCH  13  14
ENDBRANCH  12  13
ENDBRANCH   5  12
ENDBRANCH   4   5
ENDBRANCH   3   4
TORSDOF 7
ENDMDL
MODEL 4
REMARK VINA RESULT: -8.011778887      3.500      7.793
REMARK  7 active torsions:
REMARK  status: ('A' for Active; 'I' for Inactive)
REMARK    1  A    between atoms: C3_3  and  C4_4 
REMARK    2  A    between atoms: C4_4  and  N1_5 
REMARK    3  A    between atoms: N1_5  and  C5_6 
REMARK    4  A    between atoms: C5_6  and  C6_7 
REMARK    5  A    between atoms: C6_7  and  C7_8 
REMARK    6  A    between atoms: C11_12  and  C12_13 
REMARK    7  A    between atoms: C12_13  and  O1_14 
ROOT
HETATM    1  C1  UNL     1      45.324  20.492  52.547  1.00  0.00     0.112 C 
HETATM    2  C2  UNL     1      44.513  21.603  53.035  1.00  0.00    -0.109 C 
HETATM    3  C3  UNL     1      43.847  22.529  53.435  1.00  0.00    -0.079 C 
ENDROOT
BRANCH   3   4
HETATM    4  C4  UNL     1      43.057  23.614  53.949  1.00  0.00     0.338 C 
BRANCH   4   5
HETATM    5  N1  UNL     1      42.645  24.597  53.017  1.00  0.00    -0.011 N 
HETATM    6  C18 UNL     1      41.827  23.913  51.999  1.00  0.00     0.274 C 
HETATM    7  C19 UNL     1      41.873  24.824  50.802  1.00  0.00     0.267 C 
HETATM    8  N5  UNL     1      43.234  25.273  50.838  1.00  0.00    -0.049 N 
HETATM    9  C20 UNL     1      43.334  26.636  50.325  1.00  0.00     0.274 C 
HETATM   10  C21 UNL     1      44.035  24.377  50.005  1.00  0.00     0.274 C 
HETATM   11  C22 UNL     1      43.699  25.153  52.189  1.00  0.00     0.478 C 
BRANCH   5  12
HETATM   12  C5  UNL     1      41.843  25.602  53.607  1.00  0.00     0.208 C 
BRANCH  12  13
HETATM   13  C6  UNL     1      40.399  25.541  53.737  1.00  0.00     0.054 C 
BRANCH  13  14
HETATM   14  C7  UNL     1      39.724  25.159  54.937  1.00  0.00     0.031 C 
HETATM   15  C8  UNL     1      38.416  24.645  55.095  1.00  0.00     0.016 C 
HETATM   16  C9  UNL     1      37.431  24.410  56.104  1.00  0.00     0.029 A 
HETATM   17  C10 UNL     1      36.910  24.306  57.112  1.00  0.00     0.048 A 
HETATM   18  C17 UNL     1      38.078  24.665  57.570  1.00  0.00     0.065 A 
HETATM   19  C16 UNL     1      38.588  24.780  56.867  1.00  0.00     0.064 A 
HETATM   20  C11 UNL     1      36.572  24.269  58.441  1.00  0.00     0.030 A 
HETATM   21  N2  UNL     1      37.415  24.562  59.530  1.00  0.00    -0.326 N 
HETATM   22  C13 UNL     1      37.501  24.646  60.859  1.00  0.00     0.129 C 
HETATM   23  C14 UNL     1      38.466  24.833  58.780  1.00  0.00     0.100 A 
HETATM   24  N3  UNL     1      39.784  25.206  58.593  1.00  0.00    -0.334 N 
HETATM   25  C15 UNL     1      39.800  25.150  57.252  1.00  0.00     0.095 A 
ATOM     26  H3  UNL     1      40.514  25.449  59.263  1.00  0.00     0.168 HD
HETATM   27  N4  UNL     1      40.531  25.328  56.172  1.00  0.00    -0.345 N 
ATOM     28  H4  UNL     1      41.525  25.555  56.182  1.00  0.00     0.167 HD
BRANCH  20  29
HETATM   29  C12 UNL     1      35.236  23.905  58.865  1.00  0.00     0.218 C 
BRANCH  29  30
HETATM   30  O1  UNL     1      34.884  22.594  58.518  1.00  0.00    -0.395 OA
ATOM     31  H1  UNL     1      34.314  22.547  57.760  1.00  0.00     0.209 HD
ENDBRANCH  29  30
ENDBRANCH  20  29
ENDBRANCH  13  14
ENDBRANCH  12  13
ENDBRANCH   5  12
ENDBRANCH   4   5
ENDBRANCH   3   4
TORSDOF 7
ENDMDL
MODEL 5
REMARK VINA RESULT: -7.799082012      3.570      7.709
REMARK  7 active torsions:
REMARK  status: ('A' for Active; 'I' for Inactive)
REMARK    1  A    between atoms: C3_3  and  C4_4 
REMARK    2  A    between atoms: C4_4  and  N1_5 
REMARK    3  A    between atoms: N1_5  and  C5_6 
REMARK    4  A    between atoms: C5_6  and  C6_7 
REMARK    5  A    between atoms: C6_7  and  C7_8 
REMARK    6  A    between atoms: C11_12  and  C12_13 
REMARK    7  A    between atoms: C12_13  and  O1_14 
ROOT
HETATM    1  C1  UNL     1      44.574  20.845  52.593  1.00  0.00     0.112 C 
HETATM    2  C2  UNL     1      44.131  22.125  53.136  1.00  0.00    -0.109 C 
HETATM    3  C3  UNL     1      43.771  23.186  53.590  1.00  0.00    -0.079 C 
ENDROOT
BRANCH   3   4
HETATM    4  C4  UNL     1      43.305  24.432  54.135  1.00  0.00     0.338 C 
BRANCH   4   5
HETATM    5  N1  UNL     1      42.406  25.179  53.335  1.00  0.00    -0.011 N 
HETATM    6  C18 UNL     1      42.795  24.961  51.929  1.00  0.00     0.274 C 
HETATM    7  C19 UNL     1      42.212  26.135  51.189  1.00  0.00     0.267 C 
HETATM    8  N5  UNL     1      42.435  27.200  52.124  1.00  0.00    -0.049 N 
HETATM    9  C20 UNL     1      41.371  28.194  52.025  1.00  0.00     0.274 C 
HETATM   10  C21 UNL     1      43.720  27.825  51.809  1.00  0.00     0.274 C 
HETATM   11  C22 UNL     1      42.535  26.621  53.432  1.00  0.00     0.478 C 
BRANCH   5  12
HETATM   12  C5  UNL     1      41.066  24.750  53.478  1.00  0.00     0.208 C 
BRANCH  12  13
HETATM   13  C6  UNL     1      40.014  25.515  54.121  1.00  0.00     0.054 C 
BRANCH  13  14
HETATM   14  C7  UNL     1      39.338  25.098  55.309  1.00  0.00     0.031 C 
HETATM   15  C8  UNL     1      38.068  24.491  55.441  1.00  0.00     0.016 C 
HETATM   16  C9  UNL     1      37.078  24.195  56.428  1.00  0.00     0.029 A 
HETATM   17  C10 UNL     1      36.540  24.064  57.424  1.00  0.00     0.048 A 
HETATM   18  C17 UNL     1      37.666  24.513  57.906  1.00  0.00     0.065 A 
HETATM   19  C16 UNL     1      38.185  24.658  57.214  1.00  0.00     0.064 A 
HETATM   20  C11 UNL     1      36.172  24.016  58.745  1.00  0.00     0.030 A 
HETATM   21  N2  UNL     1      36.963  24.383  59.851  1.00  0.00    -0.326 N 
HETATM   22  C13 UNL     1      37.009  24.488  61.180  1.00  0.00     0.129 C 
HETATM   23  C14 UNL     1      38.011  24.722  59.123  1.00  0.00     0.100 A 
HETATM   24  N3  UNL     1      39.302  25.190  58.964  1.00  0.00    -0.334 N 
HETATM   25  C15 UNL     1      39.356  25.120  57.624  1.00  0.00     0.095 A 
ATOM     26  H3  UNL     1      39.995  25.493  59.649  1.00  0.00     0.168 HD
HETATM   27  N4  UNL     1      40.099  25.340  56.560  1.00  0.00    -0.345 N 
ATOM     28  H4  UNL     1      41.074  25.639  56.592  1.00  0.00     0.167 HD
BRANCH  20  29
HETATM   29  C12 UNL     1      34.856  23.560  59.140  1.00  0.00     0.218 C 
BRANCH  29  30
HETATM   30  O1  UNL     1      34.449  22.398  58.470  1.00  0.00    -0.395 OA
ATOM     31  H1  UNL     1      33.518  22.382  58.280  1.00  0.00     0.209 HD
ENDBRANCH  29  30
ENDBRANCH  20  29
ENDBRANCH  13  14
ENDBRANCH  12  13
ENDBRANCH   5  12
ENDBRANCH   4   5
ENDBRANCH   3   4
TORSDOF 7
ENDMDL
