MODEL 1
REMARK VINA RESULT: -6.518489895      0.000      0.000
REMARK  4 active torsions:
REMARK  status: ('A' for Active; 'I' for Inactive)
REMARK    1  A    between atoms: C2_2  and  C18_27 
REMARK    2  A    between atoms: N1_3  and  C3_5 
REMARK    3  A    between atoms: N2_7  and  C4_9 
REMARK    4  A    between atoms: C4_9  and  C5_10 
ROOT
HETATM    1  C5  UNL     1      41.906  25.000  52.947  1.00  0.00     0.009 A 
HETATM    2  C6  UNL     1      42.295  25.218  51.625  1.00  0.00     0.101 A 
HETATM    3  N3  UNL     1      41.979  26.482  51.275  1.00  0.00    -0.368 N 
ATOM      4  H3  UNL     1      42.148  26.918  50.368  1.00  0.00     0.165 HD
HETATM    5  C7  UNL     1      41.409  27.051  52.324  1.00  0.00     0.018 A 
HETATM    6  C8  UNL     1      41.087  28.531  52.242  1.00  0.00     0.069 C 
HETATM    7  C9  UNL     1      41.330  26.171  53.393  1.00  0.00     0.035 A 
HETATM    8  C10 UNL     1      40.727  26.561  54.649  1.00  0.00     0.172 C 
HETATM    9  C11 UNL     1      39.321  27.164  54.300  1.00  0.00     0.240 C 
HETATM   10  N4  UNL     1      38.709  28.057  55.150  1.00  0.00    -0.051 N 
HETATM   11  C12 UNL     1      38.310  29.356  54.616  1.00  0.00     0.278 C 
HETATM   12  C13 UNL     1      37.370  27.482  55.516  1.00  0.00     0.278 C 
HETATM   13  C14 UNL     1      39.468  28.241  56.343  1.00  0.00     0.270 C 
HETATM   14  C15 UNL     1      39.896  26.932  56.807  1.00  0.00     0.271 C 
HETATM   15  N5  UNL     1      40.677  26.082  55.881  1.00  0.00    -0.041 N 
HETATM   16  C16 UNL     1      42.031  26.264  56.524  1.00  0.00     0.279 C 
HETATM   17  C17 UNL     1      40.128  24.777  56.224  1.00  0.00     0.279 C 
ENDROOT
BRANCH   1  18
HETATM   18  C4  UNL     1      42.291  23.850  53.685  1.00  0.00     0.104 C 
BRANCH  18  19
HETATM   19  N2  UNL     1      43.670  23.587  53.941  1.00  0.00    -0.342 N 
HETATM   20  C3  UNL     1      44.700  22.719  53.877  1.00  0.00     0.176 C 
HETATM   21  S1  UNL     1      46.181  23.298  54.557  1.00  0.00    -0.041 SA
ATOM     22  H2  UNL     1      44.045  24.436  54.362  1.00  0.00     0.167 HD
BRANCH  20  23
HETATM   23  N1  UNL     1      44.806  21.466  53.430  1.00  0.00    -0.333 N 
HETATM   24  C2  UNL     1      44.649  20.630  52.552  1.00  0.00     0.073 C 
HETATM   25  C1  UNL     1      45.123  19.213  52.922  1.00  0.00     0.074 C 
ATOM     26  H1  UNL     1      45.227  20.951  54.203  1.00  0.00     0.168 HD
BRANCH  24  27
HETATM   27  C18 UNL     1      44.075  20.751  51.227  1.00  0.00     0.277 C 
HETATM   28  N6  UNL     1      43.206  21.848  50.882  1.00  0.00    -0.056 NA
HETATM   29  O1  UNL     1      44.276  19.944  50.294  1.00  0.00    -0.270 OA
ENDBRANCH  24  27
ENDBRANCH  20  23
ENDBRANCH  18  19
ENDBRANCH   1  18
TORSDOF 4
ENDMDL
MODEL 2
REMARK VINA RESULT: -6.493900434      4.053      6.193
REMARK  4 active torsions:
REMARK  status: ('A' for Active; 'I' for Inactive)
REMARK    1  A    between atoms: C2_2  and  C18_27 
REMARK    2  A    between atoms: N1_3  and  C3_5 
REMARK    3  A    between atoms: N2_7  and  C4_9 
REMARK    4  A    between atoms: C4_9  and  C5_10 
ROOT
HETATM    1  C5  UNL     1      38.497  24.671  56.842  1.00  0.00     0.009 A 
HETATM    2  C6  UNL     1      37.497  24.206  55.987  1.00  0.00     0.101 A 
HETATM    3  N3  UNL     1      36.335  24.129  56.669  1.00  0.00    -0.368 N 
ATOM      4  H3  UNL     1      35.436  23.823  56.298  1.00  0.00     0.165 HD
HETATM    5  C7  UNL     1      36.578  24.523  57.908  1.00  0.00     0.018 A 
HETATM    6  C8  UNL     1      35.399  24.670  58.851  1.00  0.00     0.069 C 
HETATM    7  C9  UNL     1      37.912  24.867  58.075  1.00  0.00     0.035 A 
HETATM    8  C10 UNL     1      38.423  25.312  59.353  1.00  0.00     0.172 C 
HETATM    9  C11 UNL     1      37.970  24.245  60.410  1.00  0.00     0.240 C 
HETATM   10  N4  UNL     1      37.845  24.580  61.739  1.00  0.00    -0.051 N 
HETATM   11  C12 UNL     1      36.564  24.339  62.395  1.00  0.00     0.278 C 
HETATM   12  C13 UNL     1      38.737  23.658  62.521  1.00  0.00     0.278 C 
HETATM   13  C14 UNL     1      38.260  25.924  61.976  1.00  0.00     0.270 C 
HETATM   14  C15 UNL     1      39.505  26.140  61.257  1.00  0.00     0.271 C 
HETATM   15  N5  UNL     1      39.524  25.894  59.798  1.00  0.00    -0.041 N 
HETATM   16  C16 UNL     1      39.525  27.334  59.344  1.00  0.00     0.279 C 
HETATM   17  C17 UNL     1      40.856  25.322  59.663  1.00  0.00     0.279 C 
ENDROOT
BRANCH   1  18
HETATM   18  C4  UNL     1      39.779  25.071  56.383  1.00  0.00     0.104 C 
BRANCH  18  19
HETATM   19  N2  UNL     1      39.903  25.990  55.298  1.00  0.00    -0.342 N 
HETATM   20  C3  UNL     1      40.318  26.222  54.037  1.00  0.00     0.176 C 
HETATM   21  S1  UNL     1      40.084  27.843  53.480  1.00  0.00    -0.041 SA
ATOM     22  H2  UNL     1      39.492  26.865  55.623  1.00  0.00     0.167 HD
BRANCH  20  23
HETATM   23  N1  UNL     1      40.923  25.458  53.124  1.00  0.00    -0.333 N 
HETATM   24  C2  UNL     1      41.790  24.654  52.812  1.00  0.00     0.073 C 
HETATM   25  C1  UNL     1      41.769  24.231  51.332  1.00  0.00     0.074 C 
ATOM     26  H1  UNL     1      40.409  25.631  52.261  1.00  0.00     0.168 HD
BRANCH  24  27
HETATM   27  C18 UNL     1      42.842  24.047  53.602  1.00  0.00     0.277 C 
HETATM   28  N6  UNL     1      43.697  24.840  54.448  1.00  0.00    -0.056 NA
HETATM   29  O1  UNL     1      43.094  22.823  53.622  1.00  0.00    -0.270 OA
ENDBRANCH  24  27
ENDBRANCH  20  23
ENDBRANCH  18  19
ENDBRANCH   1  18
TORSDOF 4
ENDMDL
MODEL 3
REMARK VINA RESULT: -6.430337710      1.183      1.239
REMARK  4 active torsions:
REMARK  status: ('A' for Active; 'I' for Inactive)
REMARK    1  A    between atoms: C2_2  and  C18_27 
REMARK    2  A    between atoms: N1_3  and  C3_5 
REMARK    3  A    between atoms: N2_7  and  C4_9 
REMARK    4  A    between atoms: C4_9  and  C5_10 
ROOT
HETATM    1  C5  UNL     1      42.154  24.527  52.042  1.00  0.00     0.009 A 
HETATM    2  C6  UNL     1      42.275  24.646  50.658  1.00  0.00     0.101 A 
HETATM    3  N3  UNL     1      42.058  25.930  50.304  1.00  0.00    -0.368 N 
ATOM      4  H3  UNL     1      42.083  26.309  49.358  1.00  0.00     0.165 HD
HETATM    5  C7  UNL     1      41.806  26.607  51.412  1.00  0.00     0.018 A 
HETATM    6  C8  UNL     1      41.669  28.114  51.310  1.00  0.00     0.069 C 
HETATM    7  C9  UNL     1      41.846  25.781  52.527  1.00  0.00     0.035 A 
HETATM    8  C10 UNL     1      41.583  26.292  53.855  1.00  0.00     0.172 C 
HETATM    9  C11 UNL     1      40.226  27.074  53.771  1.00  0.00     0.240 C 
HETATM   10  N4  UNL     1      39.932  28.071  54.673  1.00  0.00    -0.051 N 
HETATM   11  C12 UNL     1      39.601  29.395  54.156  1.00  0.00     0.278 C 
HETATM   12  C13 UNL     1      38.641  27.702  55.346  1.00  0.00     0.278 C 
HETATM   13  C14 UNL     1      40.948  28.186  55.668  1.00  0.00     0.270 C 
HETATM   14  C15 UNL     1      41.292  26.845  56.111  1.00  0.00     0.271 C 
HETATM   15  N5  UNL     1      41.738  25.864  55.096  1.00  0.00    -0.041 N 
HETATM   16  C16 UNL     1      43.211  25.875  55.430  1.00  0.00     0.279 C 
HETATM   17  C17 UNL     1      41.111  24.661  55.626  1.00  0.00     0.279 C 
ENDROOT
BRANCH   1  18
HETATM   18  C4  UNL     1      42.537  23.359  52.753  1.00  0.00     0.104 C 
BRANCH  18  19
HETATM   19  N2  UNL     1      43.832  23.265  53.342  1.00  0.00    -0.342 N 
HETATM   20  C3  UNL     1      44.861  22.483  53.724  1.00  0.00     0.176 C 
HETATM   21  S1  UNL     1      46.160  23.318  54.504  1.00  0.00    -0.041 SA
ATOM     22  H2  UNL     1      44.101  24.219  53.583  1.00  0.00     0.167 HD
BRANCH  20  23
HETATM   23  N1  UNL     1      45.073  21.166  53.664  1.00  0.00    -0.333 N 
HETATM   24  C2  UNL     1      44.904  20.082  53.124  1.00  0.00     0.073 C 
HETATM   25  C1  UNL     1      45.620  18.905  53.811  1.00  0.00     0.074 C 
ATOM     26  H1  UNL     1      45.672  20.964  54.464  1.00  0.00     0.168 HD
BRANCH  24  27
HETATM   27  C18 UNL     1      44.126  19.721  51.956  1.00  0.00     0.277 C 
HETATM   28  N6  UNL     1      44.304  20.400  50.697  1.00  0.00    -0.056 NA
HETATM   29  O1  UNL     1      43.262  18.818  51.934  1.00  0.00    -0.270 OA
ENDBRANCH  24  27
ENDBRANCH  20  23
ENDBRANCH  18  19
ENDBRANCH   1  18
TORSDOF 4
ENDMDL
MODEL 4
REMARK VINA RESULT: -6.391109396      3.975      6.011
REMARK  4 active torsions:
REMARK  status: ('A' for Active; 'I' for Inactive)
REMARK    1  A    between atoms: C2_2  and  C18_27 
REMARK    2  A    between atoms: N1_3  and  C3_5 
REMARK    3  A    between atoms: N2_7  and  C4_9 
REMARK    4  A    between atoms: C4_9  and  C5_10 
ROOT
HETATM    1  C5  UNL     1      38.326  25.246  56.551  1.00  0.00     0.009 A 
HETATM    2  C6  UNL     1      37.670  24.377  55.679  1.00  0.00     0.101 A 
HETATM    3  N3  UNL     1      36.699  23.726  56.352  1.00  0.00    -0.368 N 
ATOM      4  H3  UNL     1      36.059  23.031  55.968  1.00  0.00     0.165 HD
HETATM    5  C7  UNL     1      36.731  24.154  57.603  1.00  0.00     0.018 A 
HETATM    6  C8  UNL     1      35.639  23.683  58.545  1.00  0.00     0.069 C 
HETATM    7  C9  UNL     1      37.732  25.098  57.786  1.00  0.00     0.035 A 
HETATM    8  C10 UNL     1      37.974  25.700  59.079  1.00  0.00     0.172 C 
HETATM    9  C11 UNL     1      38.108  24.519  60.103  1.00  0.00     0.240 C 
HETATM   10  N4  UNL     1      37.849  24.715  61.440  1.00  0.00    -0.051 N 
HETATM   11  C12 UNL     1      36.852  23.864  62.082  1.00  0.00     0.278 C 
HETATM   12  C13 UNL     1      39.084  24.322  62.199  1.00  0.00     0.278 C 
HETATM   13  C14 UNL     1      37.560  26.084  61.717  1.00  0.00     0.270 C 
HETATM   14  C15 UNL     1      38.536  26.898  61.011  1.00  0.00     0.271 C 
HETATM   15  N5  UNL     1      38.658  26.732  59.545  1.00  0.00    -0.041 N 
HETATM   16  C16 UNL     1      37.954  28.003  59.133  1.00  0.00     0.279 C 
HETATM   17  C17 UNL     1      40.099  26.884  59.401  1.00  0.00     0.279 C 
ENDROOT
BRANCH   1  18
HETATM   18  C4  UNL     1      39.247  26.231  56.109  1.00  0.00     0.104 C 
BRANCH  18  19
HETATM   19  N2  UNL     1      40.637  26.105  56.409  1.00  0.00    -0.342 N 
HETATM   20  C3  UNL     1      41.838  25.597  56.070  1.00  0.00     0.176 C 
HETATM   21  S1  UNL     1      43.117  25.953  57.180  1.00  0.00    -0.041 SA
ATOM     22  H2  UNL     1      40.789  26.640  57.264  1.00  0.00     0.167 HD
BRANCH  20  23
HETATM   23  N1  UNL     1      42.247  24.825  55.061  1.00  0.00    -0.333 N 
HETATM   24  C2  UNL     1      42.245  24.532  53.874  1.00  0.00     0.073 C 
HETATM   25  C1  UNL     1      43.130  23.327  53.509  1.00  0.00     0.074 C 
ATOM     26  H1  UNL     1      42.868  24.142  55.494  1.00  0.00     0.168 HD
BRANCH  24  27
HETATM   27  C18 UNL     1      41.534  25.122  52.758  1.00  0.00     0.277 C 
HETATM   28  N6  UNL     1      41.575  24.532  51.444  1.00  0.00    -0.056 NA
HETATM   29  O1  UNL     1      40.840  26.160  52.832  1.00  0.00    -0.270 OA
ENDBRANCH  24  27
ENDBRANCH  20  23
ENDBRANCH  18  19
ENDBRANCH   1  18
TORSDOF 4
ENDMDL
MODEL 5
REMARK VINA RESULT: -6.377369826      4.839      7.666
REMARK  4 active torsions:
REMARK  status: ('A' for Active; 'I' for Inactive)
REMARK    1  A    between atoms: C2_2  and  C18_27 
REMARK    2  A    between atoms: N1_3  and  C3_5 
REMARK    3  A    between atoms: N2_7  and  C4_9 
REMARK    4  A    between atoms: C4_9  and  C5_10 
ROOT
HETATM    1  C5  UNL     1      43.078  25.720  49.152  1.00  0.00     0.009 A 
HETATM    2  C6  UNL     1      41.926  26.221  49.758  1.00  0.00     0.101 A 
HETATM    3  N3  UNL     1      41.290  27.037  48.892  1.00  0.00    -0.368 N 
ATOM      4  H3  UNL     1      40.420  27.540  49.063  1.00  0.00     0.165 HD
HETATM    5  C7  UNL     1      42.004  27.062  47.778  1.00  0.00     0.018 A 
HETATM    6  C8  UNL     1      41.429  27.796  46.582  1.00  0.00     0.069 C 
HETATM    7  C9  UNL     1      43.134  26.265  47.886  1.00  0.00     0.035 A 
HETATM    8  C10 UNL     1      44.082  26.148  46.799  1.00  0.00     0.172 C 
HETATM    9  C11 UNL     1      44.453  27.610  46.371  1.00  0.00     0.240 C 
HETATM   10  N4  UNL     1      44.912  27.876  45.101  1.00  0.00    -0.051 N 
HETATM   11  C12 UNL     1      44.199  28.868  44.302  1.00  0.00     0.278 C 
HETATM   12  C13 UNL     1      46.254  28.538  45.238  1.00  0.00     0.278 C 
HETATM   13  C14 UNL     1      45.071  26.677  44.346  1.00  0.00     0.270 C 
HETATM   14  C15 UNL     1      45.728  25.697  45.195  1.00  0.00     0.271 C 
HETATM   15  N5  UNL     1      45.095  25.356  46.489  1.00  0.00    -0.041 N 
HETATM   16  C16 UNL     1      44.549  24.002  46.104  1.00  0.00     0.279 C 
HETATM   17  C17 UNL     1      46.287  25.203  47.312  1.00  0.00     0.279 C 
ENDROOT
BRANCH   1  18
HETATM   18  C4  UNL     1      43.850  24.669  49.712  1.00  0.00     0.104 C 
BRANCH  18  19
HETATM   19  N2  UNL     1      43.601  24.223  51.044  1.00  0.00    -0.342 N 
HETATM   20  C3  UNL     1      43.509  23.191  51.906  1.00  0.00     0.176 C 
HETATM   21  S1  UNL     1      43.048  23.627  53.515  1.00  0.00    -0.041 SA
ATOM     22  H2  UNL     1      43.405  25.062  51.589  1.00  0.00     0.167 HD
BRANCH  20  23
HETATM   23  N1  UNL     1      43.659  21.872  51.765  1.00  0.00    -0.333 N 
HETATM   24  C2  UNL     1      44.261  20.835  52.006  1.00  0.00     0.073 C 
HETATM   25  C1  UNL     1      43.667  19.579  51.344  1.00  0.00     0.074 C 
ATOM     26  H1  UNL     1      42.894  21.589  51.154  1.00  0.00     0.168 HD
BRANCH  24  27
HETATM   27  C18 UNL     1      45.452  20.598  52.798  1.00  0.00     0.277 C 
HETATM   28  N6  UNL     1      45.597  19.407  53.596  1.00  0.00    -0.056 NA
HETATM   29  O1  UNL     1      46.428  21.377  52.856  1.00  0.00    -0.270 OA
ENDBRANCH  24  27
ENDBRANCH  20  23
ENDBRANCH  18  19
ENDBRANCH   1  18
TORSDOF 4
ENDMDL
