MODEL 1
REMARK VINA RESULT: -5.665476011      0.000      0.000
REMARK  10 active torsions:
REMARK  status: ('A' for Active; 'I' for Inactive)
REMARK    1  A    between atoms: C2_2  and  C3_3 
REMARK    2  A    between atoms: C3_3  and  C4_4 
REMARK    3  A    between atoms: C4_4  and  N1_5 
REMARK    4  A    between atoms: N2_10  and  C8_11 
REMARK    5  A    between atoms: C8_11  and  C9_12 
REMARK    6  A    between atoms: C9_12  and  N3_13 
REMARK    7  A    between atoms: N3_13  and  C11_15 
REMARK    8  A    between atoms: C11_15  and  C12_16 
REMARK    9  A    between atoms: C12_16  and  N4_17 
REMARK   10  A    between atoms: N4_17  and  C13_19 
ROOT
HETATM    1  N1  UNL     1      -0.001  19.380  18.191  1.00  0.00    -0.350 N 
HETATM    2  C5  UNL     1      -0.486  20.676  17.794  1.00  0.00     0.135 C 
HETATM    3  C6  UNL     1      -1.987  20.623  17.679  1.00  0.00     0.123 C 
HETATM    4  C7  UNL     1      -2.682  20.541  18.978  1.00  0.00     0.221 C 
HETATM    5  O1  UNL     1      -3.776  21.209  18.887  1.00  0.00    -0.273 OA
HETATM    6  N2  UNL     1      -2.568  19.984  20.298  1.00  0.00    -0.349 N 
HETATM    7  C15 UNL     1      -2.075  18.724  20.739  1.00  0.00     0.156 C 
HETATM    8  C16 UNL     1      -1.652  17.770  19.643  1.00  0.00     0.153 C 
HETATM    9  C17 UNL     1      -1.322  16.462  20.360  1.00  0.00     0.153 C 
HETATM   10  N5  UNL     1      -0.896  15.410  19.510  1.00  0.00    -0.358 N 
ATOM     11  H5  UNL     1      -0.171  14.835  19.940  1.00  0.00     0.162 HD
HETATM   12  C18 UNL     1      -1.235  14.961  18.206  1.00  0.00     0.235 C 
HETATM   13  O2  UNL     1      -1.172  13.740  17.964  1.00  0.00    -0.272 OA
HETATM   14  C19 UNL     1      -1.665  15.836  17.085  1.00  0.00     0.225 C 
HETATM   15  N6  UNL     1      -2.695  16.771  17.495  1.00  0.00    -0.351 N 
ATOM     16  H6  UNL     1      -3.422  16.981  16.811  1.00  0.00     0.163 HD
HETATM   17  C20 UNL     1      -2.794  17.427  18.758  1.00  0.00     0.239 C 
HETATM   18  O3  UNL     1      -3.976  17.736  19.140  1.00  0.00    -0.272 OA
HETATM   19  C21 UNL     1      -0.449  18.249  18.914  1.00  0.00     0.241 C 
HETATM   20  O4  UNL     1       0.504  17.388  18.930  1.00  0.00    -0.272 OA
ENDROOT
BRANCH   6  21
HETATM   21  C8  UNL     1      -3.034  20.907  21.273  1.00  0.00     0.140 C 
BRANCH  21  22
HETATM   22  C9  UNL     1      -2.142  21.257  22.419  1.00  0.00     0.114 C 
BRANCH  22  23
HETATM   23  N3  UNL     1      -0.859  21.735  22.119  1.00  0.00    -0.294 NA
HETATM   24  C10 UNL     1      -0.660  23.134  22.495  1.00  0.00     0.116 C 
BRANCH  23  25
HETATM   25  C11 UNL     1       0.307  21.036  22.433  1.00  0.00     0.076 C 
BRANCH  25  26
HETATM   26  C12 UNL     1       1.203  20.531  21.384  1.00  0.00     0.094 C 
BRANCH  26  27
HETATM   27  N4  UNL     1       1.697  19.216  21.442  1.00  0.00    -0.398 N 
ATOM     28  H4  UNL     1       1.155  18.453  21.847  1.00  0.00     0.158 HD
BRANCH  27  29
HETATM   29  C13 UNL     1       3.014  19.011  20.896  1.00  0.00     0.114 C 
HETATM   30  C14 UNL     1       3.924  20.080  21.462  1.00  0.00     0.026 C 
ENDBRANCH  27  29
ENDBRANCH  26  27
ENDBRANCH  25  26
ENDBRANCH  23  25
ENDBRANCH  22  23
ENDBRANCH  21  22
ENDBRANCH   6  21
BRANCH   1  31
HETATM   31  C4  UNL     1       1.366  19.169  17.714  1.00  0.00     0.126 C 
BRANCH  31  32
HETATM   32  C3  UNL     1       2.053  20.489  17.443  1.00  0.00     0.020 C 
BRANCH  32  33
HETATM   33  C2  UNL     1       2.842  20.331  16.163  1.00  0.00    -0.003 C 
HETATM   34  C1  UNL     1       4.331  20.360  16.450  1.00  0.00     0.005 C 
ENDBRANCH  32  33
ENDBRANCH  31  32
ENDBRANCH   1  31
TORSDOF 10
ENDMDL
MODEL 2
REMARK VINA RESULT: -5.635715424      1.475      2.232
REMARK  10 active torsions:
REMARK  status: ('A' for Active; 'I' for Inactive)
REMARK    1  A    between atoms: C2_2  and  C3_3 
REMARK    2  A    between atoms: C3_3  and  C4_4 
REMARK    3  A    between atoms: C4_4  and  N1_5 
REMARK    4  A    between atoms: N2_10  and  C8_11 
REMARK    5  A    between atoms: C8_11  and  C9_12 
REMARK    6  A    between atoms: C9_12  and  N3_13 
REMARK    7  A    between atoms: N3_13  and  C11_15 
REMARK    8  A    between atoms: C11_15  and  C12_16 
REMARK    9  A    between atoms: C12_16  and  N4_17 
REMARK   10  A    between atoms: N4_17  and  C13_19 
ROOT
HETATM    1  N1  UNL     1       0.286  18.908  18.838  1.00  0.00    -0.350 N 
HETATM    2  C5  UNL     1       0.016  20.228  18.334  1.00  0.00     0.135 C 
HETATM    3  C6  UNL     1      -1.425  20.303  17.899  1.00  0.00     0.123 C 
HETATM    4  C7  UNL     1      -2.385  20.319  19.019  1.00  0.00     0.221 C 
HETATM    5  O1  UNL     1      -3.370  21.075  18.689  1.00  0.00    -0.273 OA
HETATM    6  N2  UNL     1      -2.606  19.792  20.339  1.00  0.00    -0.349 N 
HETATM    7  C15 UNL     1      -2.335  18.507  20.887  1.00  0.00     0.156 C 
HETATM    8  C16 UNL     1      -1.776  17.489  19.918  1.00  0.00     0.153 C 
HETATM    9  C17 UNL     1      -1.726  16.179  20.702  1.00  0.00     0.153 C 
HETATM   10  N5  UNL     1      -1.226  15.069  19.973  1.00  0.00    -0.358 N 
ATOM     11  H5  UNL     1      -0.664  14.447  20.555  1.00  0.00     0.162 HD
HETATM   12  C18 UNL     1      -1.318  14.614  18.632  1.00  0.00     0.235 C 
HETATM   13  O2  UNL     1      -1.316  13.386  18.421  1.00  0.00    -0.272 OA
HETATM   14  C19 UNL     1      -1.419  15.490  17.436  1.00  0.00     0.225 C 
HETATM   15  N6  UNL     1      -2.423  16.522  17.606  1.00  0.00    -0.351 N 
ATOM     16  H6  UNL     1      -2.965  16.774  16.779  1.00  0.00     0.163 HD
HETATM   17  C20 UNL     1      -2.729  17.221  18.811  1.00  0.00     0.239 C 
HETATM   18  O3  UNL     1      -3.933  17.642  18.928  1.00  0.00    -0.272 OA
HETATM   19  C21 UNL     1      -0.407  17.841  19.460  1.00  0.00     0.241 C 
HETATM   20  O4  UNL     1       0.439  16.902  19.688  1.00  0.00    -0.272 OA
ENDROOT
BRANCH   6  21
HETATM   21  C8  UNL     1      -3.183  20.780  21.181  1.00  0.00     0.140 C 
BRANCH  21  22
HETATM   22  C9  UNL     1      -2.352  21.375  22.270  1.00  0.00     0.114 C 
BRANCH  22  23
HETATM   23  N3  UNL     1      -0.970  21.140  22.232  1.00  0.00    -0.294 NA
HETATM   24  C10 UNL     1      -0.197  22.306  21.807  1.00  0.00     0.116 C 
BRANCH  23  25
HETATM   25  C11 UNL     1      -0.274  20.519  23.270  1.00  0.00     0.076 C 
BRANCH  25  26
HETATM   26  C12 UNL     1       0.440  19.252  23.062  1.00  0.00     0.094 C 
BRANCH  26  27
HETATM   27  N4  UNL     1      -0.102  18.044  23.533  1.00  0.00    -0.398 N 
ATOM     28  H4  UNL     1      -0.457  17.327  22.899  1.00  0.00     0.158 HD
BRANCH  27  29
HETATM   29  C13 UNL     1      -0.126  17.877  24.963  1.00  0.00     0.114 C 
HETATM   30  C14 UNL     1      -1.261  16.936  25.302  1.00  0.00     0.026 C 
ENDBRANCH  27  29
ENDBRANCH  26  27
ENDBRANCH  25  26
ENDBRANCH  23  25
ENDBRANCH  22  23
ENDBRANCH  21  22
ENDBRANCH   6  21
BRANCH   1  31
HETATM   31  C4  UNL     1       1.698  18.566  18.669  1.00  0.00     0.126 C 
BRANCH  31  32
HETATM   32  C3  UNL     1       2.586  19.594  19.333  1.00  0.00     0.020 C 
BRANCH  32  33
HETATM   33  C2  UNL     1       3.158  18.956  20.580  1.00  0.00    -0.003 C 
HETATM   34  C1  UNL     1       3.963  19.968  21.372  1.00  0.00     0.005 C 
ENDBRANCH  32  33
ENDBRANCH  31  32
ENDBRANCH   1  31
TORSDOF 10
ENDMDL
MODEL 3
REMARK VINA RESULT: -5.561724966      2.451      5.100
REMARK  10 active torsions:
REMARK  status: ('A' for Active; 'I' for Inactive)
REMARK    1  A    between atoms: C2_2  and  C3_3 
REMARK    2  A    between atoms: C3_3  and  C4_4 
REMARK    3  A    between atoms: C4_4  and  N1_5 
REMARK    4  A    between atoms: N2_10  and  C8_11 
REMARK    5  A    between atoms: C8_11  and  C9_12 
REMARK    6  A    between atoms: C9_12  and  N3_13 
REMARK    7  A    between atoms: N3_13  and  C11_15 
REMARK    8  A    between atoms: C11_15  and  C12_16 
REMARK    9  A    between atoms: C12_16  and  N4_17 
REMARK   10  A    between atoms: N4_17  and  C13_19 
ROOT
HETATM    1  N1  UNL     1      -1.834  20.514  20.548  1.00  0.00    -0.350 N 
HETATM    2  C5  UNL     1      -1.962  20.966  21.908  1.00  0.00     0.135 C 
HETATM    3  C6  UNL     1      -1.268  19.987  22.818  1.00  0.00     0.123 C 
HETATM    4  C7  UNL     1       0.204  20.034  22.732  1.00  0.00     0.221 C 
HETATM    5  O1  UNL     1       0.680  19.808  23.904  1.00  0.00    -0.273 OA
HETATM    6  N2  UNL     1       1.286  20.243  21.808  1.00  0.00    -0.349 N 
HETATM    7  C15 UNL     1       1.446  19.838  20.453  1.00  0.00     0.156 C 
HETATM    8  C16 UNL     1       0.327  18.990  19.890  1.00  0.00     0.153 C 
HETATM    9  C17 UNL     1       0.809  18.565  18.503  1.00  0.00     0.153 C 
HETATM   10  N5  UNL     1      -0.099  17.748  17.783  1.00  0.00    -0.358 N 
ATOM     11  H5  UNL     1      -0.095  17.954  16.784  1.00  0.00     0.162 HD
HETATM   12  C18 UNL     1      -1.012  16.712  18.115  1.00  0.00     0.235 C 
HETATM   13  O2  UNL     1      -1.207  15.804  17.284  1.00  0.00    -0.272 OA
HETATM   14  C19 UNL     1      -1.769  16.615  19.390  1.00  0.00     0.225 C 
HETATM   15  N6  UNL     1      -0.913  16.814  20.543  1.00  0.00    -0.351 N 
ATOM     16  H6  UNL     1      -1.118  16.251  21.369  1.00  0.00     0.163 HD
HETATM   17  C20 UNL     1       0.189  17.715  20.639  1.00  0.00     0.239 C 
HETATM   18  O3  UNL     1       1.125  17.376  21.444  1.00  0.00    -0.272 OA
HETATM   19  C21 UNL     1      -0.943  19.750  19.758  1.00  0.00     0.241 C 
HETATM   20  O4  UNL     1      -1.401  19.727  18.558  1.00  0.00    -0.272 OA
ENDROOT
BRANCH   6  21
HETATM   21  C8  UNL     1       2.326  20.995  22.417  1.00  0.00     0.140 C 
BRANCH  21  22
HETATM   22  C9  UNL     1       3.746  20.635  22.121  1.00  0.00     0.114 C 
BRANCH  22  23
HETATM   23  N3  UNL     1       4.528  21.582  21.445  1.00  0.00    -0.294 NA
HETATM   24  C10 UNL     1       5.775  21.903  22.137  1.00  0.00     0.116 C 
BRANCH  23  25
HETATM   25  C11 UNL     1       4.802  21.509  20.079  1.00  0.00     0.076 C 
BRANCH  25  26
HETATM   26  C12 UNL     1       5.619  22.528  19.406  1.00  0.00     0.094 C 
BRANCH  26  27
HETATM   27  N4  UNL     1       6.412  22.187  18.298  1.00  0.00    -0.398 N 
ATOM     28  H4  UNL     1       7.431  22.146  18.354  1.00  0.00     0.158 HD
BRANCH  27  29
HETATM   29  C13 UNL     1       5.704  21.896  17.078  1.00  0.00     0.114 C 
HETATM   30  C14 UNL     1       6.588  21.013  16.226  1.00  0.00     0.026 C 
ENDBRANCH  27  29
ENDBRANCH  26  27
ENDBRANCH  25  26
ENDBRANCH  23  25
ENDBRANCH  22  23
ENDBRANCH  21  22
ENDBRANCH   6  21
BRANCH   1  31
HETATM   31  C4  UNL     1      -2.951  20.994  19.734  1.00  0.00     0.126 C 
BRANCH  31  32
HETATM   32  C3  UNL     1      -4.272  20.729  20.421  1.00  0.00     0.020 C 
BRANCH  32  33
HETATM   33  C2  UNL     1      -5.227  20.204  19.373  1.00  0.00    -0.003 C 
HETATM   34  C1  UNL     1      -4.785  18.837  18.889  1.00  0.00     0.005 C 
ENDBRANCH  32  33
ENDBRANCH  31  32
ENDBRANCH   1  31
TORSDOF 10
ENDMDL
MODEL 4
REMARK VINA RESULT: -5.547052104      1.348      1.686
REMARK  10 active torsions:
REMARK  status: ('A' for Active; 'I' for Inactive)
REMARK    1  A    between atoms: C2_2  and  C3_3 
REMARK    2  A    between atoms: C3_3  and  C4_4 
REMARK    3  A    between atoms: C4_4  and  N1_5 
REMARK    4  A    between atoms: N2_10  and  C8_11 
REMARK    5  A    between atoms: C8_11  and  C9_12 
REMARK    6  A    between atoms: C9_12  and  N3_13 
REMARK    7  A    between atoms: N3_13  and  C11_15 
REMARK    8  A    between atoms: C11_15  and  C12_16 
REMARK    9  A    between atoms: C12_16  and  N4_17 
REMARK   10  A    between atoms: N4_17  and  C13_19 
ROOT
HETATM    1  N1  UNL     1      -0.026  19.292  18.333  1.00  0.00    -0.350 N 
HETATM    2  C5  UNL     1      -0.483  20.515  17.728  1.00  0.00     0.135 C 
HETATM    3  C6  UNL     1      -1.949  20.385  17.407  1.00  0.00     0.123 C 
HETATM    4  C7  UNL     1      -2.824  20.413  18.594  1.00  0.00     0.221 C 
HETATM    5  O1  UNL     1      -3.911  21.018  18.275  1.00  0.00    -0.273 OA
HETATM    6  N2  UNL     1      -2.889  20.006  19.972  1.00  0.00    -0.349 N 
HETATM    7  C15 UNL     1      -2.431  18.823  20.617  1.00  0.00     0.156 C 
HETATM    8  C16 UNL     1      -1.826  17.777  19.707  1.00  0.00     0.153 C 
HETATM    9  C17 UNL     1      -1.568  16.568  20.606  1.00  0.00     0.153 C 
HETATM   10  N5  UNL     1      -0.994  15.451  19.949  1.00  0.00    -0.358 N 
ATOM     11  H5  UNL     1      -0.324  14.958  20.540  1.00  0.00     0.162 HD
HETATM   12  C18 UNL     1      -1.126  14.851  18.670  1.00  0.00     0.235 C 
HETATM   13  O2  UNL     1      -0.995  13.614  18.578  1.00  0.00    -0.272 OA
HETATM   14  C19 UNL     1      -1.412  15.581  17.408  1.00  0.00     0.225 C 
HETATM   15  N6  UNL     1      -2.515  16.509  17.559  1.00  0.00    -0.351 N 
ATOM     16  H6  UNL     1      -3.140  16.612  16.759  1.00  0.00     0.163 HD
HETATM   17  C20 UNL     1      -2.816  17.291  18.712  1.00  0.00     0.239 C 
HETATM   18  O3  UNL     1      -4.050  17.588  18.886  1.00  0.00    -0.272 OA
HETATM   19  C21 UNL     1      -0.543  18.227  19.108  1.00  0.00     0.241 C 
HETATM   20  O4  UNL     1       0.421  17.415  19.355  1.00  0.00    -0.272 OA
ENDROOT
BRANCH   6  21
HETATM   21  C8  UNL     1      -3.518  21.007  20.760  1.00  0.00     0.140 C 
BRANCH  21  22
HETATM   22  C9  UNL     1      -2.688  22.123  21.306  1.00  0.00     0.114 C 
BRANCH  22  23
HETATM   23  N3  UNL     1      -1.879  21.846  22.417  1.00  0.00    -0.294 NA
HETATM   24  C10 UNL     1      -1.076  22.989  22.848  1.00  0.00     0.116 C 
BRANCH  23  25
HETATM   25  C11 UNL     1      -2.350  21.198  23.560  1.00  0.00     0.076 C 
BRANCH  25  26
HETATM   26  C12 UNL     1      -1.490  20.293  24.337  1.00  0.00     0.094 C 
BRANCH  26  27
HETATM   27  N4  UNL     1      -1.559  18.903  24.142  1.00  0.00    -0.398 N 
ATOM     28  H4  UNL     1      -2.447  18.400  24.147  1.00  0.00     0.158 HD
BRANCH  27  29
HETATM   29  C13 UNL     1      -0.303  18.231  23.933  1.00  0.00     0.114 C 
HETATM   30  C14 UNL     1       0.443  18.968  22.842  1.00  0.00     0.026 C 
ENDBRANCH  27  29
ENDBRANCH  26  27
ENDBRANCH  25  26
ENDBRANCH  23  25
ENDBRANCH  22  23
ENDBRANCH  21  22
ENDBRANCH   6  21
BRANCH   1  31
HETATM   31  C4  UNL     1       1.402  19.091  18.082  1.00  0.00     0.126 C 
BRANCH  31  32
HETATM   32  C3  UNL     1       1.919  20.091  17.073  1.00  0.00     0.020 C 
BRANCH  32  33
HETATM   33  C2  UNL     1       3.310  20.494  17.509  1.00  0.00    -0.003 C 
HETATM   34  C1  UNL     1       4.264  20.471  16.331  1.00  0.00     0.005 C 
ENDBRANCH  32  33
ENDBRANCH  31  32
ENDBRANCH   1  31
TORSDOF 10
ENDMDL
MODEL 5
REMARK VINA RESULT: -5.542634009      2.557      4.594
REMARK  10 active torsions:
REMARK  status: ('A' for Active; 'I' for Inactive)
REMARK    1  A    between atoms: C2_2  and  C3_3 
REMARK    2  A    between atoms: C3_3  and  C4_4 
REMARK    3  A    between atoms: C4_4  and  N1_5 
REMARK    4  A    between atoms: N2_10  and  C8_11 
REMARK    5  A    between atoms: C8_11  and  C9_12 
REMARK    6  A    between atoms: C9_12  and  N3_13 
REMARK    7  A    between atoms: N3_13  and  C11_15 
REMARK    8  A    between atoms: C11_15  and  C12_16 
REMARK    9  A    between atoms: C12_16  and  N4_17 
REMARK   10  A    between atoms: N4_17  and  C13_19 
ROOT
HETATM    1  N1  UNL     1      -0.150  19.707  18.298  1.00  0.00    -0.350 N 
HETATM    2  C5  UNL     1      -0.647  20.656  17.336  1.00  0.00     0.135 C 
HETATM    3  C6  UNL     1      -2.041  20.256  16.928  1.00  0.00     0.123 C 
HETATM    4  C7  UNL     1      -3.056  20.484  17.974  1.00  0.00     0.221 C 
HETATM    5  O1  UNL     1      -4.150  20.837  17.399  1.00  0.00    -0.273 OA
HETATM    6  N2  UNL     1      -3.253  20.453  19.398  1.00  0.00    -0.349 N 
HETATM    7  C15 UNL     1      -2.764  19.553  20.387  1.00  0.00     0.156 C 
HETATM    8  C16 UNL     1      -1.949  18.391  19.865  1.00  0.00     0.153 C 
HETATM    9  C17 UNL     1      -1.687  17.508  21.085  1.00  0.00     0.153 C 
HETATM   10  N5  UNL     1      -0.928  16.341  20.821  1.00  0.00    -0.358 N 
ATOM     11  H5  UNL     1      -0.291  16.114  21.586  1.00  0.00     0.162 HD
HETATM   12  C18 UNL     1      -0.838  15.411  19.752  1.00  0.00     0.235 C 
HETATM   13  O2  UNL     1      -0.574  14.222  20.021  1.00  0.00    -0.272 OA
HETATM   14  C19 UNL     1      -1.034  15.736  18.316  1.00  0.00     0.225 C 
HETATM   15  N6  UNL     1      -2.235  16.520  18.099  1.00  0.00    -0.351 N 
ATOM     16  H6  UNL     1      -2.761  16.325  17.248  1.00  0.00     0.163 HD
HETATM   17  C20 UNL     1      -2.754  17.534  18.956  1.00  0.00     0.239 C 
HETATM   18  O3  UNL     1      -4.023  17.704  18.924  1.00  0.00    -0.272 OA
HETATM   19  C21 UNL     1      -0.652  18.828  19.286  1.00  0.00     0.241 C 
HETATM   20  O4  UNL     1       0.348  18.243  19.839  1.00  0.00    -0.272 OA
ENDROOT
BRANCH   6  21
HETATM   21  C8  UNL     1      -4.072  21.537  19.814  1.00  0.00     0.140 C 
BRANCH  21  22
HETATM   22  C9  UNL     1      -5.233  21.260  20.713  1.00  0.00     0.114 C 
BRANCH  22  23
HETATM   23  N3  UNL     1      -6.509  21.607  20.248  1.00  0.00    -0.294 NA
HETATM   24  C10 UNL     1      -6.490  22.664  19.239  1.00  0.00     0.116 C 
BRANCH  23  25
HETATM   25  C11 UNL     1      -7.462  20.663  19.863  1.00  0.00     0.076 C 
BRANCH  25  26
HETATM   26  C12 UNL     1      -7.070  19.352  19.328  1.00  0.00     0.094 C 
BRANCH  26  27
HETATM   27  N4  UNL     1      -6.609  19.232  18.006  1.00  0.00    -0.398 N 
ATOM     28  H4  UNL     1      -5.641  18.992  17.791  1.00  0.00     0.158 HD
BRANCH  27  29
HETATM   29  C13 UNL     1      -7.584  19.466  16.973  1.00  0.00     0.114 C 
HETATM   30  C14 UNL     1      -8.706  18.468  17.157  1.00  0.00     0.026 C 
ENDBRANCH  27  29
ENDBRANCH  26  27
ENDBRANCH  25  26
ENDBRANCH  23  25
ENDBRANCH  22  23
ENDBRANCH  21  22
ENDBRANCH   6  21
BRANCH   1  31
HETATM   31  C4  UNL     1       1.311  19.634  18.247  1.00  0.00     0.126 C 
BRANCH  31  32
HETATM   32  C3  UNL     1       1.846  20.355  17.030  1.00  0.00     0.020 C 
BRANCH  32  33
HETATM   33  C2  UNL     1       3.262  20.781  17.347  1.00  0.00    -0.003 C 
HETATM   34  C1  UNL     1       4.199  20.383  16.224  1.00  0.00     0.005 C 
ENDBRANCH  32  33
ENDBRANCH  31  32
ENDBRANCH   1  31
TORSDOF 10
ENDMDL
