MODEL 1
REMARK VINA RESULT: -6.877956264      0.000      0.000
REMARK  10 active torsions:
REMARK  status: ('A' for Active; 'I' for Inactive)
REMARK       I    between atoms: C1_2  and  N3_4 
REMARK    1  A    between atoms: N3_4  and  C2_5 
REMARK    2  A    between atoms: C2_5  and  C3_6 
REMARK    3  A    between atoms: C3_6  and  C4_7 
REMARK    4  A    between atoms: C4_7  and  C5_8 
REMARK    5  A    between atoms: C5_8  and  N4_9 
REMARK    6  A    between atoms: C5_8  and  C6_13 
REMARK       I    between atoms: C6_13  and  N5_15 
REMARK    7  A    between atoms: N5_15  and  C7_17 
REMARK    8  A    between atoms: C7_17  and  C8_18 
REMARK    9  A    between atoms: C7_17  and  C19_33 
REMARK       I    between atoms: C8_18  and  N6_20 
REMARK   10  A    between atoms: C12_24  and  C13_25 
REMARK       I    between atoms: C13_25  and  N7_27 
ROOT
HETATM    1  C7  UNL     1       1.321  19.852  20.244  1.00  0.00     0.181 C 
ENDROOT
BRANCH   1   2
HETATM    2  N5  UNL     1       0.604  18.761  19.534  1.00  0.00    -0.346 N 
HETATM    3  C6  UNL     1       0.436  17.489  20.136  1.00  0.00     0.249 C 
HETATM    4  O1  UNL     1       0.912  17.315  21.286  1.00  0.00    -0.271 OA
ATOM      5  H5  UNL     1       0.227  18.930  18.601  1.00  0.00     0.163 HD
BRANCH   3   6
HETATM    6  C5  UNL     1      -0.291  16.418  19.391  1.00  0.00     0.275 C 
BRANCH   6   7
HETATM    7  C4  UNL     1      -1.764  16.585  19.635  1.00  0.00     0.049 C 
BRANCH   7   8
HETATM    8  C3  UNL     1      -2.621  16.713  18.436  1.00  0.00     0.062 C 
BRANCH   8   9
HETATM    9  C2  UNL     1      -2.026  16.266  17.126  1.00  0.00     0.158 C 
BRANCH   9  10
HETATM   10  N3  UNL     1      -1.809  14.941  17.090  1.00  0.00    -0.393 NA
HETATM   11  C1  UNL     1      -1.626  13.773  17.136  1.00  0.00     0.274 C 
HETATM   12  N1  UNL     1      -1.649  13.012  18.359  1.00  0.00    -0.052 NA
HETATM   13  N2  UNL     1      -1.359  13.014  15.931  1.00  0.00    -0.052 NA
ENDBRANCH   9  10
ENDBRANCH   8   9
ENDBRANCH   7   8
ENDBRANCH   6   7
BRANCH   6  14
HETATM   14  N4  UNL     1       0.208  15.135  19.767  1.00  0.00    -0.066 N 
ATOM     15  H43 UNL     1      -0.387  14.712  20.478  1.00  0.00     0.275 HD
ATOM     16  H42 UNL     1       0.077  14.462  19.012  1.00  0.00     0.275 HD
ATOM     17  H41 UNL     1       1.181  15.149  20.073  1.00  0.00     0.275 HD
ENDBRANCH   6  14
ENDBRANCH   3   6
ENDBRANCH   1   2
BRANCH   1  18
HETATM   18  C8  UNL     1       1.992  20.697  19.261  1.00  0.00     0.243 C 
HETATM   19  O2  UNL     1       1.385  20.989  18.200  1.00  0.00    -0.271 OA
HETATM   20  N6  UNL     1       3.291  21.192  19.456  1.00  0.00    -0.350 N 
HETATM   21  C9  UNL     1       3.923  22.068  18.448  1.00  0.00     0.126 C 
HETATM   22  C18 UNL     1       4.107  20.887  20.597  1.00  0.00     0.139 C 
HETATM   23  C10 UNL     1       5.417  22.016  18.708  1.00  0.00     0.021 C 
HETATM   24  C11 UNL     1       5.718  22.647  20.076  1.00  0.00     0.017 C 
HETATM   25  C12 UNL     1       4.694  22.209  21.100  1.00  0.00     0.096 C 
BRANCH  25  26
HETATM   26  C13 UNL     1       5.321  21.983  22.422  1.00  0.00     0.225 C 
HETATM   27  O3  UNL     1       6.441  21.418  22.480  1.00  0.00    -0.273 OA
HETATM   28  N7  UNL     1       4.702  22.382  23.619  1.00  0.00    -0.352 N 
HETATM   29  C14 UNL     1       3.420  23.025  23.739  1.00  0.00     0.126 C 
HETATM   30  C17 UNL     1       5.234  22.228  24.948  1.00  0.00     0.126 C 
HETATM   31  C15 UNL     1       2.841  22.386  24.998  1.00  0.00     0.021 C 
HETATM   32  C16 UNL     1       4.036  21.964  25.811  1.00  0.00     0.021 C 
ENDBRANCH  25  26
ENDBRANCH   1  18
BRANCH   1  33
HETATM   33  C19 UNL     1       0.233  20.585  20.998  1.00  0.00     0.018 A 
HETATM   34  C20 UNL     1       0.231  20.825  22.434  1.00  0.00     0.007 A 
HETATM   35  C21 UNL     1       0.630  21.945  21.493  1.00  0.00     0.007 A 
ENDBRANCH   1  33
TORSDOF 10
ENDMDL
MODEL 2
REMARK VINA RESULT: -6.640818786      2.030      9.013
REMARK  10 active torsions:
REMARK  status: ('A' for Active; 'I' for Inactive)
REMARK       I    between atoms: C1_2  and  N3_4 
REMARK    1  A    between atoms: N3_4  and  C2_5 
REMARK    2  A    between atoms: C2_5  and  C3_6 
REMARK    3  A    between atoms: C3_6  and  C4_7 
REMARK    4  A    between atoms: C4_7  and  C5_8 
REMARK    5  A    between atoms: C5_8  and  N4_9 
REMARK    6  A    between atoms: C5_8  and  C6_13 
REMARK       I    between atoms: C6_13  and  N5_15 
REMARK    7  A    between atoms: N5_15  and  C7_17 
REMARK    8  A    between atoms: C7_17  and  C8_18 
REMARK    9  A    between atoms: C7_17  and  C19_33 
REMARK       I    between atoms: C8_18  and  N6_20 
REMARK   10  A    between atoms: C12_24  and  C13_25 
REMARK       I    between atoms: C13_25  and  N7_27 
ROOT
HETATM    1  C7  UNL     1       2.014  20.353  18.563  1.00  0.00     0.181 C 
ENDROOT
BRANCH   1   2
HETATM    2  N5  UNL     1       2.866  20.917  19.643  1.00  0.00    -0.346 N 
HETATM    3  C6  UNL     1       3.390  20.085  20.664  1.00  0.00     0.249 C 
HETATM    4  O1  UNL     1       3.112  18.860  20.626  1.00  0.00    -0.271 OA
ATOM      5  H5  UNL     1       3.076  21.915  19.650  1.00  0.00     0.163 HD
BRANCH   3   6
HETATM    6  C5  UNL     1       4.241  20.688  21.732  1.00  0.00     0.275 C 
BRANCH   6   7
HETATM    7  C4  UNL     1       3.356  21.475  22.658  1.00  0.00     0.049 C 
BRANCH   7   8
HETATM    8  C3  UNL     1       3.286  21.006  24.059  1.00  0.00     0.062 C 
BRANCH   8   9
HETATM    9  C2  UNL     1       4.008  21.836  25.089  1.00  0.00     0.158 C 
BRANCH   9  10
HETATM   10  N3  UNL     1       5.340  21.817  24.916  1.00  0.00    -0.393 NA
HETATM   11  C1  UNL     1       6.502  21.825  24.691  1.00  0.00     0.274 C 
HETATM   12  N1  UNL     1       7.063  22.222  23.425  1.00  0.00    -0.052 NA
HETATM   13  N2  UNL     1       7.459  21.426  25.704  1.00  0.00    -0.052 NA
ENDBRANCH   9  10
ENDBRANCH   8   9
ENDBRANCH   7   8
ENDBRANCH   6   7
BRANCH   6  14
HETATM   14  N4  UNL     1       5.286  21.464  21.146  1.00  0.00    -0.066 N 
ATOM     15  H43 UNL     1       4.914  22.323  20.743  1.00  0.00     0.275 HD
ATOM     16  H42 UNL     1       5.888  21.861  21.867  1.00  0.00     0.275 HD
ATOM     17  H41 UNL     1       5.837  20.952  20.457  1.00  0.00     0.275 HD
ENDBRANCH   6  14
ENDBRANCH   3   6
ENDBRANCH   1   2
BRANCH   1  18
HETATM   18  C8  UNL     1       0.629  20.747  18.796  1.00  0.00     0.243 C 
HETATM   19  O2  UNL     1       0.294  21.938  18.576  1.00  0.00    -0.271 OA
HETATM   20  N6  UNL     1      -0.341  19.845  19.260  1.00  0.00    -0.350 N 
HETATM   21  C9  UNL     1      -1.741  20.278  19.457  1.00  0.00     0.126 C 
HETATM   22  C18 UNL     1      -0.073  18.477  19.599  1.00  0.00     0.139 C 
HETATM   23  C10 UNL     1      -2.379  19.265  20.389  1.00  0.00     0.021 C 
HETATM   24  C11 UNL     1      -2.445  17.900  19.689  1.00  0.00     0.017 C 
HETATM   25  C12 UNL     1      -1.160  17.625  18.937  1.00  0.00     0.096 C 
BRANCH  25  26
HETATM   26  C13 UNL     1      -0.777  16.199  19.035  1.00  0.00     0.225 C 
HETATM   27  O3  UNL     1       0.105  15.856  19.860  1.00  0.00    -0.273 OA
HETATM   28  N7  UNL     1      -1.372  15.210  18.232  1.00  0.00    -0.352 N 
HETATM   29  C14 UNL     1      -2.382  15.424  17.230  1.00  0.00     0.126 C 
HETATM   30  C17 UNL     1      -1.087  13.799  18.264  1.00  0.00     0.126 C 
HETATM   31  C15 UNL     1      -1.980  14.444  16.132  1.00  0.00     0.021 C 
HETATM   32  C16 UNL     1      -1.224  13.350  16.839  1.00  0.00     0.021 C 
ENDBRANCH  25  26
ENDBRANCH   1  18
BRANCH   1  33
HETATM   33  C19 UNL     1       2.584  20.946  17.292  1.00  0.00     0.018 A 
HETATM   34  C20 UNL     1       3.758  20.446  16.592  1.00  0.00     0.007 A 
HETATM   35  C21 UNL     1       2.378  20.102  16.068  1.00  0.00     0.007 A 
ENDBRANCH   1  33
TORSDOF 10
ENDMDL
MODEL 3
REMARK VINA RESULT: -6.586817542      2.230      9.543
REMARK  10 active torsions:
REMARK  status: ('A' for Active; 'I' for Inactive)
REMARK       I    between atoms: C1_2  and  N3_4 
REMARK    1  A    between atoms: N3_4  and  C2_5 
REMARK    2  A    between atoms: C2_5  and  C3_6 
REMARK    3  A    between atoms: C3_6  and  C4_7 
REMARK    4  A    between atoms: C4_7  and  C5_8 
REMARK    5  A    between atoms: C5_8  and  N4_9 
REMARK    6  A    between atoms: C5_8  and  C6_13 
REMARK       I    between atoms: C6_13  and  N5_15 
REMARK    7  A    between atoms: N5_15  and  C7_17 
REMARK    8  A    between atoms: C7_17  and  C8_18 
REMARK    9  A    between atoms: C7_17  and  C19_33 
REMARK       I    between atoms: C8_18  and  N6_20 
REMARK   10  A    between atoms: C12_24  and  C13_25 
REMARK       I    between atoms: C13_25  and  N7_27 
ROOT
HETATM    1  C7  UNL     1       2.194  19.991  18.312  1.00  0.00     0.181 C 
ENDROOT
BRANCH   1   2
HETATM    2  N5  UNL     1       3.204  20.958  18.816  1.00  0.00    -0.346 N 
HETATM    3  C6  UNL     1       3.842  20.757  20.065  1.00  0.00     0.249 C 
HETATM    4  O1  UNL     1       3.527  19.739  20.731  1.00  0.00    -0.271 OA
ATOM      5  H5  UNL     1       3.442  21.776  18.255  1.00  0.00     0.163 HD
BRANCH   3   6
HETATM    6  C5  UNL     1       4.852  21.751  20.537  1.00  0.00     0.275 C 
BRANCH   6   7
HETATM    7  C4  UNL     1       5.095  21.523  22.003  1.00  0.00     0.049 C 
BRANCH   7   8
HETATM    8  C3  UNL     1       6.388  21.999  22.539  1.00  0.00     0.062 C 
BRANCH   8   9
HETATM    9  C2  UNL     1       6.398  23.366  23.173  1.00  0.00     0.158 C 
BRANCH   9  10
HETATM   10  N3  UNL     1       6.842  24.314  22.332  1.00  0.00    -0.393 NA
HETATM   11  C1  UNL     1       7.172  25.137  21.547  1.00  0.00     0.274 C 
HETATM   12  N1  UNL     1       6.416  25.451  20.361  1.00  0.00    -0.052 NA
HETATM   13  N2  UNL     1       8.390  25.898  21.734  1.00  0.00    -0.052 NA
ENDBRANCH   9  10
ENDBRANCH   8   9
ENDBRANCH   7   8
ENDBRANCH   6   7
BRANCH   6  14
HETATM   14  N4  UNL     1       4.418  23.075  20.230  1.00  0.00    -0.066 N 
ATOM     15  H43 UNL     1       3.682  23.371  20.871  1.00  0.00     0.275 HD
ATOM     16  H42 UNL     1       5.138  23.756  20.471  1.00  0.00     0.275 HD
ATOM     17  H41 UNL     1       4.119  23.192  19.262  1.00  0.00     0.275 HD
ENDBRANCH   6  14
ENDBRANCH   3   6
ENDBRANCH   1   2
BRANCH   1  18
HETATM   18  C8  UNL     1       0.865  20.442  18.712  1.00  0.00     0.243 C 
HETATM   19  O2  UNL     1       0.567  21.654  18.561  1.00  0.00    -0.271 OA
HETATM   20  N6  UNL     1      -0.090  19.573  19.263  1.00  0.00    -0.350 N 
HETATM   21  C9  UNL     1      -1.434  20.065  19.629  1.00  0.00     0.126 C 
HETATM   22  C18 UNL     1       0.147  18.184  19.535  1.00  0.00     0.139 C 
HETATM   23  C10 UNL     1      -2.012  19.055  20.603  1.00  0.00     0.021 C 
HETATM   24  C11 UNL     1      -2.225  17.716  19.883  1.00  0.00     0.017 C 
HETATM   25  C12 UNL     1      -1.049  17.403  18.982  1.00  0.00     0.096 C 
BRANCH  25  26
HETATM   26  C13 UNL     1      -0.729  15.959  19.000  1.00  0.00     0.225 C 
HETATM   27  O3  UNL     1       0.128  15.532  19.813  1.00  0.00    -0.273 OA
HETATM   28  N7  UNL     1      -1.356  15.044  18.136  1.00  0.00    -0.352 N 
HETATM   29  C14 UNL     1      -2.344  15.360  17.139  1.00  0.00     0.126 C 
HETATM   30  C17 UNL     1      -1.132  13.623  18.089  1.00  0.00     0.126 C 
HETATM   31  C15 UNL     1      -1.971  14.427  15.990  1.00  0.00     0.021 C 
HETATM   32  C16 UNL     1      -1.271  13.263  16.640  1.00  0.00     0.021 C 
ENDBRANCH  25  26
ENDBRANCH   1  18
BRANCH   1  33
HETATM   33  C19 UNL     1       2.386  19.999  16.811  1.00  0.00     0.018 A 
HETATM   34  C20 UNL     1       2.549  21.196  15.998  1.00  0.00     0.007 A 
HETATM   35  C21 UNL     1       3.769  20.373  16.365  1.00  0.00     0.007 A 
ENDBRANCH   1  33
TORSDOF 10
ENDMDL
MODEL 4
REMARK VINA RESULT: -6.520727760      2.377      9.272
REMARK  10 active torsions:
REMARK  status: ('A' for Active; 'I' for Inactive)
REMARK       I    between atoms: C1_2  and  N3_4 
REMARK    1  A    between atoms: N3_4  and  C2_5 
REMARK    2  A    between atoms: C2_5  and  C3_6 
REMARK    3  A    between atoms: C3_6  and  C4_7 
REMARK    4  A    between atoms: C4_7  and  C5_8 
REMARK    5  A    between atoms: C5_8  and  N4_9 
REMARK    6  A    between atoms: C5_8  and  C6_13 
REMARK       I    between atoms: C6_13  and  N5_15 
REMARK    7  A    between atoms: N5_15  and  C7_17 
REMARK    8  A    between atoms: C7_17  and  C8_18 
REMARK    9  A    between atoms: C7_17  and  C19_33 
REMARK       I    between atoms: C8_18  and  N6_20 
REMARK   10  A    between atoms: C12_24  and  C13_25 
REMARK       I    between atoms: C13_25  and  N7_27 
ROOT
HETATM    1  C7  UNL     1       1.773  20.034  17.741  1.00  0.00     0.181 C 
ENDROOT
BRANCH   1   2
HETATM    2  N5  UNL     1       2.668  20.871  18.584  1.00  0.00    -0.346 N 
HETATM    3  C6  UNL     1       3.176  20.381  19.812  1.00  0.00     0.249 C 
HETATM    4  O1  UNL     1       2.847  19.221  20.165  1.00  0.00    -0.271 OA
ATOM      5  H5  UNL     1       2.919  21.809  18.273  1.00  0.00     0.163 HD
BRANCH   3   6
HETATM    6  C5  UNL     1       4.072  21.252  20.630  1.00  0.00     0.275 C 
BRANCH   6   7
HETATM    7  C4  UNL     1       5.145  21.806  19.735  1.00  0.00     0.049 C 
BRANCH   7   8
HETATM    8  C3  UNL     1       5.301  23.276  19.724  1.00  0.00     0.062 C 
BRANCH   8   9
HETATM    9  C2  UNL     1       5.004  24.000  21.011  1.00  0.00     0.158 C 
BRANCH   9  10
HETATM   10  N3  UNL     1       5.818  23.619  22.010  1.00  0.00    -0.393 NA
HETATM   11  C1  UNL     1       6.541  23.357  22.909  1.00  0.00     0.274 C 
HETATM   12  N1  UNL     1       7.105  24.348  23.790  1.00  0.00    -0.052 NA
HETATM   13  N2  UNL     1       6.916  21.985  23.188  1.00  0.00    -0.052 NA
ENDBRANCH   9  10
ENDBRANCH   8   9
ENDBRANCH   7   8
ENDBRANCH   6   7
BRANCH   6  14
HETATM   14  N4  UNL     1       4.581  20.521  21.745  1.00  0.00    -0.066 N 
ATOM     15  H43 UNL     1       5.600  20.547  21.759  1.00  0.00     0.275 HD
ATOM     16  H42 UNL     1       4.386  21.012  22.618  1.00  0.00     0.275 HD
ATOM     17  H41 UNL     1       4.245  19.559  21.790  1.00  0.00     0.275 HD
ENDBRANCH   6  14
ENDBRANCH   3   6
ENDBRANCH   1   2
BRANCH   1  18
HETATM   18  C8  UNL     1       0.388  20.412  18.000  1.00  0.00     0.243 C 
HETATM   19  O2  UNL     1       0.014  21.576  17.707  1.00  0.00    -0.271 OA
HETATM   20  N6  UNL     1      -0.541  19.525  18.567  1.00  0.00    -0.350 N 
HETATM   21  C9  UNL     1      -1.942  19.939  18.786  1.00  0.00     0.126 C 
HETATM   22  C18 UNL     1      -0.225  18.192  18.993  1.00  0.00     0.139 C 
HETATM   23  C10 UNL     1      -2.518  18.983  19.814  1.00  0.00     0.021 C 
HETATM   24  C11 UNL     1      -2.575  17.568  19.218  1.00  0.00     0.017 C 
HETATM   25  C12 UNL     1      -1.313  17.268  18.438  1.00  0.00     0.096 C 
BRANCH  25  26
HETATM   26  C13 UNL     1      -0.890  15.862  18.624  1.00  0.00     0.225 C 
HETATM   27  O3  UNL     1      -0.069  15.585  19.532  1.00  0.00    -0.273 OA
HETATM   28  N7  UNL     1      -1.381  14.822  17.816  1.00  0.00    -0.352 N 
HETATM   29  C14 UNL     1      -2.311  14.960  16.726  1.00  0.00     0.126 C 
HETATM   30  C17 UNL     1      -1.051  13.425  17.928  1.00  0.00     0.126 C 
HETATM   31  C15 UNL     1      -1.784  13.956  15.705  1.00  0.00     0.021 C 
HETATM   32  C16 UNL     1      -1.052  12.919  16.516  1.00  0.00     0.021 C 
ENDBRANCH  25  26
ENDBRANCH   1  18
BRANCH   1  33
HETATM   33  C19 UNL     1       2.206  20.337  16.323  1.00  0.00     0.018 A 
HETATM   34  C20 UNL     1       2.867  21.561  15.896  1.00  0.00     0.007 A 
HETATM   35  C21 UNL     1       3.691  20.306  16.108  1.00  0.00     0.007 A 
ENDBRANCH   1  33
TORSDOF 10
ENDMDL
MODEL 5
REMARK VINA RESULT: -6.513077488      2.176      8.085
REMARK  10 active torsions:
REMARK  status: ('A' for Active; 'I' for Inactive)
REMARK       I    between atoms: C1_2  and  N3_4 
REMARK    1  A    between atoms: N3_4  and  C2_5 
REMARK    2  A    between atoms: C2_5  and  C3_6 
REMARK    3  A    between atoms: C3_6  and  C4_7 
REMARK    4  A    between atoms: C4_7  and  C5_8 
REMARK    5  A    between atoms: C5_8  and  N4_9 
REMARK    6  A    between atoms: C5_8  and  C6_13 
REMARK       I    between atoms: C6_13  and  N5_15 
REMARK    7  A    between atoms: N5_15  and  C7_17 
REMARK    8  A    between atoms: C7_17  and  C8_18 
REMARK    9  A    between atoms: C7_17  and  C19_33 
REMARK       I    between atoms: C8_18  and  N6_20 
REMARK   10  A    between atoms: C12_24  and  C13_25 
REMARK       I    between atoms: C13_25  and  N7_27 
ROOT
HETATM    1  C7  UNL     1       1.846  19.986  18.165  1.00  0.00     0.181 C 
ENDROOT
BRANCH   1   2
HETATM    2  N5  UNL     1       2.746  20.697  19.112  1.00  0.00    -0.346 N 
HETATM    3  C6  UNL     1       3.307  20.023  20.225  1.00  0.00     0.249 C 
HETATM    4  O1  UNL     1       3.022  18.809  20.384  1.00  0.00    -0.271 OA
ATOM      5  H5  UNL     1       2.961  21.682  18.959  1.00  0.00     0.163 HD
BRANCH   3   6
HETATM    6  C5  UNL     1       4.206  20.771  21.154  1.00  0.00     0.275 C 
BRANCH   6   7
HETATM    7  C4  UNL     1       3.360  21.659  22.022  1.00  0.00     0.049 C 
BRANCH   7   8
HETATM    8  C3  UNL     1       2.453  20.982  22.973  1.00  0.00     0.062 C 
BRANCH   8   9
HETATM    9  C2  UNL     1       0.974  21.129  22.722  1.00  0.00     0.158 C 
BRANCH   9  10
HETATM   10  N3  UNL     1       0.293  20.011  23.023  1.00  0.00    -0.393 NA
HETATM   11  C1  UNL     1      -0.260  18.987  23.240  1.00  0.00     0.274 C 
HETATM   12  N1  UNL     1       0.132  17.732  22.651  1.00  0.00    -0.052 NA
HETATM   13  N2  UNL     1      -1.397  18.932  24.137  1.00  0.00    -0.052 NA
ENDBRANCH   9  10
ENDBRANCH   8   9
ENDBRANCH   7   8
ENDBRANCH   6   7
BRANCH   6  14
HETATM   14  N4  UNL     1       5.200  21.477  20.412  1.00  0.00    -0.066 N 
ATOM     15  H43 UNL     1       5.966  20.855  20.153  1.00  0.00     0.275 HD
ATOM     16  H42 UNL     1       4.853  21.716  19.483  1.00  0.00     0.275 HD
ATOM     17  H41 UNL     1       5.554  22.305  20.890  1.00  0.00     0.275 HD
ENDBRANCH   6  14
ENDBRANCH   3   6
ENDBRANCH   1   2
BRANCH   1  18
HETATM   18  C8  UNL     1       0.465  20.356  18.454  1.00  0.00     0.243 C 
HETATM   19  O2  UNL     1       0.104  21.544  18.258  1.00  0.00    -0.271 OA
HETATM   20  N6  UNL     1      -0.473  19.436  18.946  1.00  0.00    -0.350 N 
HETATM   21  C9  UNL     1      -1.870  19.845  19.199  1.00  0.00     0.126 C 
HETATM   22  C18 UNL     1      -0.172  18.069  19.262  1.00  0.00     0.139 C 
HETATM   23  C10 UNL     1      -2.457  18.815  20.145  1.00  0.00     0.021 C 
HETATM   24  C11 UNL     1      -2.529  17.455  19.436  1.00  0.00     0.017 C 
HETATM   25  C12 UNL     1      -1.270  17.206  18.634  1.00  0.00     0.096 C 
BRANCH  25  26
HETATM   26  C13 UNL     1      -0.862  15.785  18.704  1.00  0.00     0.225 C 
HETATM   27  O3  UNL     1      -0.014  15.433  19.561  1.00  0.00    -0.273 OA
HETATM   28  N7  UNL     1      -1.396  14.812  17.841  1.00  0.00    -0.352 N 
HETATM   29  C14 UNL     1      -2.360  15.039  16.798  1.00  0.00     0.126 C 
HETATM   30  C17 UNL     1      -1.083  13.406  17.842  1.00  0.00     0.126 C 
HETATM   31  C15 UNL     1      -1.883  14.104  15.690  1.00  0.00     0.021 C 
HETATM   32  C16 UNL     1      -1.140  13.003  16.398  1.00  0.00     0.021 C 
ENDBRANCH  25  26
ENDBRANCH   1  18
BRANCH   1  33
HETATM   33  C19 UNL     1       2.302  20.450  16.799  1.00  0.00     0.018 A 
HETATM   34  C20 UNL     1       3.050  21.673  16.540  1.00  0.00     0.007 A 
HETATM   35  C21 UNL     1       3.781  20.345  16.570  1.00  0.00     0.007 A 
ENDBRANCH   1  33
TORSDOF 10
ENDMDL
