MODEL 1
REMARK VINA RESULT: -6.674910296      0.000      0.000
REMARK  11 active torsions:
REMARK  status: ('A' for Active; 'I' for Inactive)
REMARK    1  A    between atoms: N1_2  and  C2_4 
REMARK       I    between atoms: N1_2  and  C13_24 
REMARK    2  A    between atoms: C2_4  and  C3_5 
REMARK    3  A    between atoms: C3_5  and  N2_6 
REMARK       I    between atoms: N2_6  and  C4_8 
REMARK    4  A    between atoms: C4_8  and  C5_10 
REMARK       I    between atoms: N3_13  and  C8_14 
REMARK    5  A    between atoms: C8_14  and  C9_16 
REMARK    6  A    between atoms: C9_16  and  O4_17 
REMARK    7  A    between atoms: C9_16  and  C10_19 
REMARK    8  A    between atoms: C10_19  and  O5_20 
REMARK    9  A    between atoms: C13_24  and  C14_26 
REMARK   10  A    between atoms: C14_26  and  C15_27 
REMARK   11  A    between atoms: C15_27  and  S1_28 
ROOT
HETATM    1  N2  UNL     1      -2.293  20.008  20.404  1.00  0.00    -0.335 N 
ATOM      2  H2  UNL     1      -2.432  21.018  20.381  1.00  0.00     0.168 HD
HETATM    3  C4  UNL     1      -3.207  19.326  19.589  1.00  0.00     0.225 C 
HETATM    4  O2  UNL     1      -3.247  18.099  19.476  1.00  0.00    -0.273 OA
ENDROOT
BRANCH   1   5
HETATM    5  C3  UNL     1      -1.241  19.639  21.235  1.00  0.00     0.125 C 
BRANCH   5   6
HETATM    6  C2  UNL     1       0.171  19.586  20.862  1.00  0.00     0.301 C 
BRANCH   6   7
HETATM    7  N1  UNL     1       0.652  18.899  19.720  1.00  0.00     0.100 N 
HETATM    8  C1  UNL     1       2.109  18.974  19.576  1.00  0.00     0.374 C 
HETATM    9  O1  UNL     1      -0.009  19.172  18.591  1.00  0.00    -0.052 OA
HETATM   10  C13 UNL     1       0.407  17.451  19.924  1.00  0.00     0.383 C 
HETATM   11  O6  UNL     1       0.774  17.010  20.976  1.00  0.00    -0.255 OA
BRANCH  10  12
HETATM   12  C14 UNL     1      -0.239  16.608  18.913  1.00  0.00     0.131 C 
BRANCH  12  13
HETATM   13  C15 UNL     1      -0.233  15.184  19.407  1.00  0.00     0.073 C 
BRANCH  13  14
HETATM   14  S1  UNL     1      -1.390  14.154  18.594  1.00  0.00    -0.219 SA
HETATM   15  C16 UNL     1      -0.565  13.165  17.337  1.00  0.00     0.063 C 
HETATM   16  C17 UNL     1      -1.496  13.373  16.162  1.00  0.00     0.010 C 
HETATM   17  C18 UNL     1      -1.928  14.810  16.186  1.00  0.00     0.010 C 
HETATM   18  C19 UNL     1      -2.528  15.050  17.571  1.00  0.00     0.063 C 
ENDBRANCH  13  14
ENDBRANCH  12  13
ENDBRANCH  10  12
ENDBRANCH   6   7
ENDBRANCH   5   6
ENDBRANCH   1   5
BRANCH   3  19
HETATM   19  C5  UNL     1      -4.232  20.129  18.779  1.00  0.00     0.081 C 
HETATM   20  C6  UNL     1      -5.466  20.187  19.611  1.00  0.00     0.034 C 
HETATM   21  C7  UNL     1      -6.750  20.325  18.868  1.00  0.00     0.127 C 
HETATM   22  N3  UNL     1      -6.750  19.833  17.528  1.00  0.00    -0.350 N 
HETATM   23  C8  UNL     1      -7.834  19.149  16.920  1.00  0.00     0.250 C 
HETATM   24  C11 UNL     1      -5.533  20.064  16.738  1.00  0.00     0.127 C 
HETATM   25  O3  UNL     1      -7.710  18.744  15.713  1.00  0.00    -0.270 OA
HETATM   26  C12 UNL     1      -4.409  19.382  17.488  1.00  0.00     0.034 C 
BRANCH  23  27
HETATM   27  C9  UNL     1      -9.089  18.899  17.647  1.00  0.00     0.233 C 
BRANCH  27  28
HETATM   28  O4  UNL     1      -9.647  17.685  17.165  1.00  0.00    -0.384 OA
ATOM     29  H4  UNL     1     -10.583  17.704  17.325  1.00  0.00     0.210 HD
ENDBRANCH  27  28
BRANCH  27  30
HETATM   30  C10 UNL     1     -10.162  19.937  17.350  1.00  0.00     0.205 C 
BRANCH  30  31
HETATM   31  O5  UNL     1     -11.105  19.451  16.467  1.00  0.00    -0.398 OA
ATOM     32  H5  UNL     1     -11.803  18.993  16.920  1.00  0.00     0.209 HD
ENDBRANCH  30  31
ENDBRANCH  27  30
ENDBRANCH  23  27
ENDBRANCH   3  19
TORSDOF 11
ENDMDL
MODEL 2
REMARK VINA RESULT: -6.641945097      5.302      8.202
REMARK  11 active torsions:
REMARK  status: ('A' for Active; 'I' for Inactive)
REMARK    1  A    between atoms: N1_2  and  C2_4 
REMARK       I    between atoms: N1_2  and  C13_24 
REMARK    2  A    between atoms: C2_4  and  C3_5 
REMARK    3  A    between atoms: C3_5  and  N2_6 
REMARK       I    between atoms: N2_6  and  C4_8 
REMARK    4  A    between atoms: C4_8  and  C5_10 
REMARK       I    between atoms: N3_13  and  C8_14 
REMARK    5  A    between atoms: C8_14  and  C9_16 
REMARK    6  A    between atoms: C9_16  and  O4_17 
REMARK    7  A    between atoms: C9_16  and  C10_19 
REMARK    8  A    between atoms: C10_19  and  O5_20 
REMARK    9  A    between atoms: C13_24  and  C14_26 
REMARK   10  A    between atoms: C14_26  and  C15_27 
REMARK   11  A    between atoms: C15_27  and  S1_28 
ROOT
HETATM    1  N2  UNL     1       2.284  20.510  20.026  1.00  0.00    -0.335 N 
ATOM      2  H2  UNL     1       1.911  20.415  19.081  1.00  0.00     0.168 HD
HETATM    3  C4  UNL     1       1.378  20.069  21.001  1.00  0.00     0.225 C 
HETATM    4  O2  UNL     1       1.598  20.109  22.213  1.00  0.00    -0.273 OA
ENDROOT
BRANCH   1   5
HETATM    5  C3  UNL     1       3.566  21.045  20.037  1.00  0.00     0.125 C 
BRANCH   5   6
HETATM    6  C2  UNL     1       4.283  21.583  18.883  1.00  0.00     0.301 C 
BRANCH   6   7
HETATM    7  N1  UNL     1       3.813  21.473  17.551  1.00  0.00     0.100 N 
HETATM    8  C1  UNL     1       3.014  22.627  17.126  1.00  0.00     0.374 C 
HETATM    9  O1  UNL     1       3.248  20.297  17.258  1.00  0.00    -0.052 OA
HETATM   10  C13 UNL     1       4.989  21.526  16.649  1.00  0.00     0.383 C 
HETATM   11  O6  UNL     1       5.750  22.431  16.848  1.00  0.00    -0.255 OA
BRANCH  10  12
HETATM   12  C14 UNL     1       5.213  20.545  15.583  1.00  0.00     0.131 C 
BRANCH  12  13
HETATM   13  C15 UNL     1       4.835  21.177  14.268  1.00  0.00     0.073 C 
BRANCH  13  14
HETATM   14  S1  UNL     1       6.206  21.747  13.343  1.00  0.00    -0.219 SA
HETATM   15  C16 UNL     1       6.178  21.040  11.690  1.00  0.00     0.063 C 
HETATM   16  C17 UNL     1       7.611  20.573  11.561  1.00  0.00     0.010 C 
HETATM   17  C18 UNL     1       8.015  20.004  12.890  1.00  0.00     0.010 C 
HETATM   18  C19 UNL     1       7.755  21.104  13.918  1.00  0.00     0.063 C 
ENDBRANCH  13  14
ENDBRANCH  12  13
ENDBRANCH  10  12
ENDBRANCH   6   7
ENDBRANCH   5   6
ENDBRANCH   1   5
BRANCH   3  19
HETATM   19  C5  UNL     1       0.024  19.498  20.563  1.00  0.00     0.081 C 
HETATM   20  C6  UNL     1      -0.202  18.282  21.392  1.00  0.00     0.034 C 
HETATM   21  C7  UNL     1      -1.057  17.224  20.782  1.00  0.00     0.127 C 
HETATM   22  N3  UNL     1      -1.095  17.199  19.356  1.00  0.00    -0.350 N 
HETATM   23  C8  UNL     1      -1.120  16.018  18.570  1.00  0.00     0.250 C 
HETATM   24  C11 UNL     1      -1.109  18.499  18.671  1.00  0.00     0.127 C 
HETATM   25  O3  UNL     1      -1.141  16.125  17.296  1.00  0.00    -0.270 OA
HETATM   26  C12 UNL     1       0.157  19.212  19.095  1.00  0.00     0.034 C 
BRANCH  23  27
HETATM   27  C9  UNL     1      -1.125  14.683  19.190  1.00  0.00     0.233 C 
BRANCH  27  28
HETATM   28  O4  UNL     1       0.210  14.355  19.548  1.00  0.00    -0.384 OA
ATOM     29  H4  UNL     1       0.213  14.066  20.453  1.00  0.00     0.210 HD
ENDBRANCH  27  28
BRANCH  27  30
HETATM   30  C10 UNL     1      -1.525  13.581  18.220  1.00  0.00     0.205 C 
BRANCH  30  31
HETATM   31  O5  UNL     1      -0.462  13.191  17.431  1.00  0.00    -0.398 OA
ATOM     32  H5  UNL     1      -0.629  12.357  17.009  1.00  0.00     0.209 HD
ENDBRANCH  30  31
ENDBRANCH  27  30
ENDBRANCH  23  27
ENDBRANCH   3  19
TORSDOF 11
ENDMDL
MODEL 3
REMARK VINA RESULT: -6.559736269      3.283      8.287
REMARK  11 active torsions:
REMARK  status: ('A' for Active; 'I' for Inactive)
REMARK    1  A    between atoms: N1_2  and  C2_4 
REMARK       I    between atoms: N1_2  and  C13_24 
REMARK    2  A    between atoms: C2_4  and  C3_5 
REMARK    3  A    between atoms: C3_5  and  N2_6 
REMARK       I    between atoms: N2_6  and  C4_8 
REMARK    4  A    between atoms: C4_8  and  C5_10 
REMARK       I    between atoms: N3_13  and  C8_14 
REMARK    5  A    between atoms: C8_14  and  C9_16 
REMARK    6  A    between atoms: C9_16  and  O4_17 
REMARK    7  A    between atoms: C9_16  and  C10_19 
REMARK    8  A    between atoms: C10_19  and  O5_20 
REMARK    9  A    between atoms: C13_24  and  C14_26 
REMARK   10  A    between atoms: C14_26  and  C15_27 
REMARK   11  A    between atoms: C15_27  and  S1_28 
ROOT
HETATM    1  N2  UNL     1      -4.118  19.603  19.068  1.00  0.00    -0.335 N 
ATOM      2  H2  UNL     1      -4.270  18.766  18.506  1.00  0.00     0.168 HD
HETATM    3  C4  UNL     1      -2.759  19.922  19.191  1.00  0.00     0.225 C 
HETATM    4  O2  UNL     1      -2.332  20.877  19.843  1.00  0.00    -0.273 OA
ENDROOT
BRANCH   1   5
HETATM    5  C3  UNL     1      -5.309  20.154  19.526  1.00  0.00     0.125 C 
BRANCH   5   6
HETATM    6  C2  UNL     1      -6.655  19.733  19.142  1.00  0.00     0.301 C 
BRANCH   6   7
HETATM    7  N1  UNL     1      -7.796  19.926  19.959  1.00  0.00     0.100 N 
HETATM    8  C1  UNL     1      -7.505  20.679  21.183  1.00  0.00     0.374 C 
HETATM    9  O1  UNL     1      -8.518  18.821  20.173  1.00  0.00    -0.052 OA
HETATM   10  C13 UNL     1      -8.732  20.816  19.229  1.00  0.00     0.383 C 
HETATM   11  O6  UNL     1      -8.247  21.818  18.785  1.00  0.00    -0.255 OA
BRANCH  10  12
HETATM   12  C14 UNL     1     -10.153  20.500  19.060  1.00  0.00     0.131 C 
BRANCH  12  13
HETATM   13  C15 UNL     1     -10.628  21.123  17.772  1.00  0.00     0.073 C 
BRANCH  13  14
HETATM   14  S1  UNL     1     -10.360  20.118  16.365  1.00  0.00    -0.219 SA
HETATM   15  C16 UNL     1      -9.621  18.552  16.852  1.00  0.00     0.063 C 
HETATM   16  C17 UNL     1      -8.494  18.450  15.848  1.00  0.00     0.010 C 
HETATM   17  C18 UNL     1      -7.916  19.826  15.686  1.00  0.00     0.010 C 
HETATM   18  C19 UNL     1      -9.084  20.733  15.298  1.00  0.00     0.063 C 
ENDBRANCH  13  14
ENDBRANCH  12  13
ENDBRANCH  10  12
ENDBRANCH   6   7
ENDBRANCH   5   6
ENDBRANCH   1   5
BRANCH   3  19
HETATM   19  C5  UNL     1      -1.717  19.047  18.483  1.00  0.00     0.081 C 
HETATM   20  C6  UNL     1      -2.475  18.179  17.541  1.00  0.00     0.034 C 
HETATM   21  C7  UNL     1      -1.851  16.865  17.217  1.00  0.00     0.127 C 
HETATM   22  N3  UNL     1      -0.961  16.338  18.201  1.00  0.00    -0.350 N 
HETATM   23  C8  UNL     1      -0.865  14.966  18.549  1.00  0.00     0.250 C 
HETATM   24  C11 UNL     1      -0.091  17.301  18.889  1.00  0.00     0.127 C 
HETATM   25  O3  UNL     1      -0.036  14.617  19.458  1.00  0.00    -0.270 OA
HETATM   26  C12 UNL     1      -1.012  18.289  19.571  1.00  0.00     0.034 C 
BRANCH  23  27
HETATM   27  C9  UNL     1      -1.694  13.946  17.887  1.00  0.00     0.233 C 
BRANCH  27  28
HETATM   28  O4  UNL     1      -1.808  12.831  18.761  1.00  0.00    -0.384 OA
ATOM     29  H4  UNL     1      -2.694  12.494  18.698  1.00  0.00     0.210 HD
ENDBRANCH  27  28
BRANCH  27  30
HETATM   30  C10 UNL     1      -1.040  13.367  16.641  1.00  0.00     0.205 C 
BRANCH  30  31
HETATM   31  O5  UNL     1      -1.971  12.789  15.802  1.00  0.00    -0.398 OA
ATOM     32  H5  UNL     1      -1.582  12.105  15.270  1.00  0.00     0.209 HD
ENDBRANCH  30  31
ENDBRANCH  27  30
ENDBRANCH  23  27
ENDBRANCH   3  19
TORSDOF 11
ENDMDL
MODEL 4
REMARK VINA RESULT: -6.528122392      4.699      7.326
REMARK  11 active torsions:
REMARK  status: ('A' for Active; 'I' for Inactive)
REMARK    1  A    between atoms: N1_2  and  C2_4 
REMARK       I    between atoms: N1_2  and  C13_24 
REMARK    2  A    between atoms: C2_4  and  C3_5 
REMARK    3  A    between atoms: C3_5  and  N2_6 
REMARK       I    between atoms: N2_6  and  C4_8 
REMARK    4  A    between atoms: C4_8  and  C5_10 
REMARK       I    between atoms: N3_13  and  C8_14 
REMARK    5  A    between atoms: C8_14  and  C9_16 
REMARK    6  A    between atoms: C9_16  and  O4_17 
REMARK    7  A    between atoms: C9_16  and  C10_19 
REMARK    8  A    between atoms: C10_19  and  O5_20 
REMARK    9  A    between atoms: C13_24  and  C14_26 
REMARK   10  A    between atoms: C14_26  and  C15_27 
REMARK   11  A    between atoms: C15_27  and  S1_28 
ROOT
HETATM    1  N2  UNL     1       0.672  18.816  20.446  1.00  0.00    -0.335 N 
ATOM      2  H2  UNL     1       0.781  17.842  20.164  1.00  0.00     0.168 HD
HETATM    3  C4  UNL     1      -0.667  19.232  20.413  1.00  0.00     0.225 C 
HETATM    4  O2  UNL     1      -1.040  20.374  20.688  1.00  0.00    -0.273 OA
ENDROOT
BRANCH   1   5
HETATM    5  C3  UNL     1       1.885  19.411  20.770  1.00  0.00     0.125 C 
BRANCH   5   6
HETATM    6  C2  UNL     1       2.681  20.271  19.898  1.00  0.00     0.301 C 
BRANCH   6   7
HETATM    7  N1  UNL     1       2.265  20.671  18.604  1.00  0.00     0.100 N 
HETATM    8  C1  UNL     1       1.565  21.960  18.598  1.00  0.00     0.374 C 
HETATM    9  O1  UNL     1       1.635  19.720  17.906  1.00  0.00    -0.052 OA
HETATM   10  C13 UNL     1       3.481  20.943  17.799  1.00  0.00     0.383 C 
HETATM   11  O6  UNL     1       4.291  21.658  18.317  1.00  0.00    -0.255 OA
BRANCH  10  12
HETATM   12  C14 UNL     1       3.684  20.381  16.460  1.00  0.00     0.131 C 
BRANCH  12  13
HETATM   13  C15 UNL     1       3.701  21.515  15.467  1.00  0.00     0.073 C 
BRANCH  13  14
HETATM   14  S1  UNL     1       5.300  21.905  14.874  1.00  0.00    -0.219 SA
HETATM   15  C16 UNL     1       5.494  21.325  13.183  1.00  0.00     0.063 C 
HETATM   16  C17 UNL     1       6.836  20.631  13.277  1.00  0.00     0.010 C 
HETATM   17  C18 UNL     1       6.874  19.915  14.596  1.00  0.00     0.010 C 
HETATM   18  C19 UNL     1       6.586  20.972  15.661  1.00  0.00     0.063 C 
ENDBRANCH  13  14
ENDBRANCH  12  13
ENDBRANCH  10  12
ENDBRANCH   6   7
ENDBRANCH   5   6
ENDBRANCH   1   5
BRANCH   3  19
HETATM   19  C5  UNL     1      -1.754  18.227  20.012  1.00  0.00     0.081 C 
HETATM   20  C6  UNL     1      -1.328  16.912  20.567  1.00  0.00     0.034 C 
HETATM   21  C7  UNL     1      -1.811  15.707  19.835  1.00  0.00     0.127 C 
HETATM   22  N3  UNL     1      -2.114  15.896  18.454  1.00  0.00    -0.350 N 
HETATM   23  C8  UNL     1      -1.836  14.954  17.431  1.00  0.00     0.250 C 
HETATM   24  C11 UNL     1      -2.760  17.163  18.085  1.00  0.00     0.127 C 
HETATM   25  O3  UNL     1      -2.143  15.244  16.224  1.00  0.00    -0.270 OA
HETATM   26  C12 UNL     1      -1.810  18.261  18.513  1.00  0.00     0.034 C 
BRANCH  23  27
HETATM   27  C9  UNL     1      -1.205  13.658  17.731  1.00  0.00     0.233 C 
BRANCH  27  28
HETATM   28  O4  UNL     1       0.043  13.906  18.363  1.00  0.00    -0.384 OA
ATOM     29  H4  UNL     1       0.622  14.312  17.729  1.00  0.00     0.210 HD
ENDBRANCH  27  28
BRANCH  27  30
HETATM   30  C10 UNL     1      -0.831  12.877  16.479  1.00  0.00     0.205 C 
BRANCH  30  31
HETATM   31  O5  UNL     1      -1.945  12.555  15.732  1.00  0.00    -0.398 OA
ATOM     32  H5  UNL     1      -1.816  12.753  14.811  1.00  0.00     0.209 HD
ENDBRANCH  30  31
ENDBRANCH  27  30
ENDBRANCH  23  27
ENDBRANCH   3  19
TORSDOF 11
ENDMDL
MODEL 5
REMARK VINA RESULT: -6.450513977      5.474      8.208
REMARK  11 active torsions:
REMARK  status: ('A' for Active; 'I' for Inactive)
REMARK    1  A    between atoms: N1_2  and  C2_4 
REMARK       I    between atoms: N1_2  and  C13_24 
REMARK    2  A    between atoms: C2_4  and  C3_5 
REMARK    3  A    between atoms: C3_5  and  N2_6 
REMARK       I    between atoms: N2_6  and  C4_8 
REMARK    4  A    between atoms: C4_8  and  C5_10 
REMARK       I    between atoms: N3_13  and  C8_14 
REMARK    5  A    between atoms: C8_14  and  C9_16 
REMARK    6  A    between atoms: C9_16  and  O4_17 
REMARK    7  A    between atoms: C9_16  and  C10_19 
REMARK    8  A    between atoms: C10_19  and  O5_20 
REMARK    9  A    between atoms: C13_24  and  C14_26 
REMARK   10  A    between atoms: C14_26  and  C15_27 
REMARK   11  A    between atoms: C15_27  and  S1_28 
ROOT
HETATM    1  N2  UNL     1       2.996  20.822  19.295  1.00  0.00    -0.335 N 
ATOM      2  H2  UNL     1       2.244  21.309  18.807  1.00  0.00     0.168 HD
HETATM    3  C4  UNL     1       2.544  19.672  19.956  1.00  0.00     0.225 C 
HETATM    4  O2  UNL     1       3.267  18.937  20.631  1.00  0.00    -0.273 OA
ENDROOT
BRANCH   1   5
HETATM    5  C3  UNL     1       4.222  21.460  19.145  1.00  0.00     0.125 C 
BRANCH   5   6
HETATM    6  C2  UNL     1       4.830  21.865  17.880  1.00  0.00     0.301 C 
BRANCH   6   7
HETATM    7  N1  UNL     1       4.211  21.678  16.619  1.00  0.00     0.100 N 
HETATM    8  C1  UNL     1       3.287  22.761  16.267  1.00  0.00     0.374 C 
HETATM    9  O1  UNL     1       3.697  20.458  16.430  1.00  0.00    -0.052 OA
HETATM   10  C13 UNL     1       5.262  21.777  15.577  1.00  0.00     0.383 C 
HETATM   11  O6  UNL     1       5.976  22.736  15.657  1.00  0.00    -0.255 OA
BRANCH  10  12
HETATM   12  C14 UNL     1       5.422  20.776  14.518  1.00  0.00     0.131 C 
BRANCH  12  13
HETATM   13  C15 UNL     1       5.599  21.496  13.206  1.00  0.00     0.073 C 
BRANCH  13  14
HETATM   14  S1  UNL     1       4.110  22.139  12.551  1.00  0.00    -0.219 SA
HETATM   15  C16 UNL     1       2.723  21.094  13.020  1.00  0.00     0.063 C 
HETATM   16  C17 UNL     1       2.024  20.943  11.687  1.00  0.00     0.010 C 
HETATM   17  C18 UNL     1       3.089  20.790  10.640  1.00  0.00     0.010 C 
HETATM   18  C19 UNL     1       4.005  22.004  10.787  1.00  0.00     0.063 C 
ENDBRANCH  13  14
ENDBRANCH  12  13
ENDBRANCH  10  12
ENDBRANCH   6   7
ENDBRANCH   5   6
ENDBRANCH   1   5
BRANCH   3  19
HETATM   19  C5  UNL     1       1.065  19.279  19.850  1.00  0.00     0.081 C 
HETATM   20  C6  UNL     1       0.866  18.149  20.799  1.00  0.00     0.034 C 
HETATM   21  C7  UNL     1      -0.230  17.197  20.461  1.00  0.00     0.127 C 
HETATM   22  N3  UNL     1      -0.575  17.110  19.079  1.00  0.00    -0.350 N 
HETATM   23  C8  UNL     1      -0.922  15.909  18.408  1.00  0.00     0.250 C 
HETATM   24  C11 UNL     1      -0.567  18.365  18.315  1.00  0.00     0.127 C 
HETATM   25  O3  UNL     1      -1.201  15.957  17.161  1.00  0.00    -0.270 OA
HETATM   26  C12 UNL     1       0.841  18.909  18.413  1.00  0.00     0.034 C 
BRANCH  23  27
HETATM   27  C9  UNL     1      -0.966  14.619  19.116  1.00  0.00     0.233 C 
BRANCH  27  28
HETATM   28  O4  UNL     1       0.366  14.240  19.433  1.00  0.00    -0.384 OA
ATOM     29  H4  UNL     1       0.928  14.499  18.712  1.00  0.00     0.210 HD
ENDBRANCH  27  28
BRANCH  27  30
HETATM   30  C10 UNL     1      -1.472  13.481  18.241  1.00  0.00     0.205 C 
BRANCH  30  31
HETATM   31  O5  UNL     1      -0.526  13.099  17.312  1.00  0.00    -0.398 OA
ATOM     32  H5  UNL     1      -0.416  12.155  17.295  1.00  0.00     0.209 HD
ENDBRANCH  30  31
ENDBRANCH  27  30
ENDBRANCH  23  27
ENDBRANCH   3  19
TORSDOF 11
ENDMDL
