MODEL 1
REMARK VINA RESULT: -8.353389086      0.000      0.000
REMARK  11 active torsions:
REMARK  status: ('A' for Active; 'I' for Inactive)
REMARK    1  A    between atoms: C4_4  and  O1_5 
REMARK    2  A    between atoms: O1_5  and  C5_6 
REMARK       I    between atoms: C5_6  and  N1_8 
REMARK    3  A    between atoms: N1_8  and  N2_10 
REMARK    4  A    between atoms: N2_10  and  O3_11 
REMARK    5  A    between atoms: N2_10  and  C6_13 
REMARK    6  A    between atoms: C6_13  and  C7_14 
REMARK    7  A    between atoms: C7_14  and  O4_15 
REMARK    8  A    between atoms: C7_14  and  C8_17 
REMARK    9  A    between atoms: C10_21  and  C11_22 
REMARK   10  A    between atoms: C11_22  and  O5_23 
REMARK   11  A    between atoms: N3_25  and  O6_27 
ROOT
HETATM    1  O1  UNL     1      74.157  44.936  49.652  1.00  0.00    -0.297 OA
ENDROOT
BRANCH   1   2
HETATM    2  C4  UNL     1      74.106  43.789  50.475  1.00  0.00     0.139 C 
HETATM    3  C3  UNL     1      74.760  44.030  51.813  1.00  0.00     0.064 C 
HETATM    4  C2  UNL     1      75.038  42.781  52.579  1.00  0.00     0.121 C 
HETATM    5  C1  UNL     1      73.819  42.420  53.426  1.00  0.00     0.040 C 
HETATM    6  O7  UNL     1      75.407  41.697  51.886  1.00  0.00    -0.373 OA
HETATM    7  C10 UNL     1      75.164  41.543  50.577  1.00  0.00     0.200 C 
HETATM    8  C9  UNL     1      74.844  42.709  49.740  1.00  0.00     0.073 C 
BRANCH   7   9
HETATM    9  C11 UNL     1      74.189  40.397  50.366  1.00  0.00     0.165 C 
HETATM   10  N3  UNL     1      72.940  40.564  50.615  1.00  0.00    -0.249 N 
ATOM     11  H3  UNL     1      72.606  41.466  50.953  1.00  0.00     0.196 HD
BRANCH   9  12
HETATM   12  O5  UNL     1      74.607  39.159  49.907  1.00  0.00    -0.346 OA
ATOM     13  H5  UNL     1      74.448  38.363  50.401  1.00  0.00     0.219 HD
ENDBRANCH   9  12
BRANCH  10  14
HETATM   14  O6  UNL     1      72.058  39.545  50.430  1.00  0.00    -0.288 OA
ATOM     15  H6  UNL     1      71.692  39.084  51.175  1.00  0.00     0.244 HD
ENDBRANCH  10  14
ENDBRANCH   7   9
ENDBRANCH   1   2
BRANCH   1  16
HETATM   16  C5  UNL     1      73.239  45.943  49.588  1.00  0.00     0.377 C 
HETATM   17  O2  UNL     1      72.098  45.709  50.053  1.00  0.00    -0.237 OA
HETATM   18  N1  UNL     1      73.499  47.223  49.037  1.00  0.00    -0.241 N 
ATOM     19  H1  UNL     1      74.421  47.417  48.648  1.00  0.00     0.188 HD
BRANCH  18  20
HETATM   20  N2  UNL     1      72.553  48.196  49.014  1.00  0.00    -0.101 NA
BRANCH  20  21
HETATM   21  O3  UNL     1      71.439  47.876  49.733  1.00  0.00    -0.293 OA
ATOM     22  H3  UNL     1      70.636  48.185  49.331  1.00  0.00     0.239 HD
ENDBRANCH  20  21
BRANCH  20  23
HETATM   23  C6  UNL     1      72.928  49.528  49.304  1.00  0.00     0.183 C 
BRANCH  23  24
HETATM   24  C7  UNL     1      71.904  50.543  48.948  1.00  0.00     0.200 C 
BRANCH  24  25
HETATM   25  O4  UNL     1      70.754  50.502  49.703  1.00  0.00    -0.389 OA
ATOM     26  H4  UNL     1      69.948  50.621  49.215  1.00  0.00     0.210 HD
ENDBRANCH  24  25
BRANCH  24  27
HETATM   27  C8  UNL     1      72.527  51.922  49.154  1.00  0.00     0.382 C 
HETATM   28  F1  UNL     1      72.886  52.475  47.950  1.00  0.00    -0.212 F 
HETATM   29  F2  UNL     1      71.708  52.738  49.888  1.00  0.00    -0.212 F 
ENDBRANCH  24  27
ENDBRANCH  23  24
ENDBRANCH  20  23
ENDBRANCH  18  20
ENDBRANCH   1  16
TORSDOF 11
ENDMDL
MODEL 2
REMARK VINA RESULT: -8.255045570      1.612      1.749
REMARK  11 active torsions:
REMARK  status: ('A' for Active; 'I' for Inactive)
REMARK    1  A    between atoms: C4_4  and  O1_5 
REMARK    2  A    between atoms: O1_5  and  C5_6 
REMARK       I    between atoms: C5_6  and  N1_8 
REMARK    3  A    between atoms: N1_8  and  N2_10 
REMARK    4  A    between atoms: N2_10  and  O3_11 
REMARK    5  A    between atoms: N2_10  and  C6_13 
REMARK    6  A    between atoms: C6_13  and  C7_14 
REMARK    7  A    between atoms: C7_14  and  O4_15 
REMARK    8  A    between atoms: C7_14  and  C8_17 
REMARK    9  A    between atoms: C10_21  and  C11_22 
REMARK   10  A    between atoms: C11_22  and  O5_23 
REMARK   11  A    between atoms: N3_25  and  O6_27 
ROOT
HETATM    1  O1  UNL     1      74.078  44.882  50.184  1.00  0.00    -0.297 OA
ENDROOT
BRANCH   1   2
HETATM    2  C4  UNL     1      74.080  43.651  50.878  1.00  0.00     0.139 C 
HETATM    3  C3  UNL     1      74.826  43.747  52.186  1.00  0.00     0.064 C 
HETATM    4  C2  UNL     1      75.152  42.423  52.789  1.00  0.00     0.121 C 
HETATM    5  C1  UNL     1      73.993  41.965  53.674  1.00  0.00     0.040 C 
HETATM    6  O7  UNL     1      75.469  41.422  51.958  1.00  0.00    -0.373 OA
HETATM    7  C10 UNL     1      75.135  41.412  50.659  1.00  0.00     0.200 C 
HETATM    8  C9  UNL     1      74.761  42.662  49.980  1.00  0.00     0.073 C 
BRANCH   7   9
HETATM    9  C11 UNL     1      74.144  40.292  50.392  1.00  0.00     0.165 C 
HETATM   10  N3  UNL     1      72.892  40.477  50.614  1.00  0.00    -0.249 N 
ATOM     11  H3  UNL     1      72.568  41.376  50.969  1.00  0.00     0.196 HD
BRANCH   9  12
HETATM   12  O5  UNL     1      74.551  39.059  49.910  1.00  0.00    -0.346 OA
ATOM     13  H5  UNL     1      74.744  38.921  48.990  1.00  0.00     0.219 HD
ENDBRANCH   9  12
BRANCH  10  14
HETATM   14  O6  UNL     1      71.997  39.481  50.378  1.00  0.00    -0.288 OA
ATOM     15  H6  UNL     1      71.743  38.887  51.074  1.00  0.00     0.244 HD
ENDBRANCH  10  14
ENDBRANCH   7   9
ENDBRANCH   1   2
BRANCH   1  16
HETATM   16  C5  UNL     1      73.132  45.863  50.254  1.00  0.00     0.377 C 
HETATM   17  O2  UNL     1      72.653  46.118  51.384  1.00  0.00    -0.237 OA
HETATM   18  N1  UNL     1      72.670  46.603  49.138  1.00  0.00    -0.241 N 
ATOM     19  H1  UNL     1      73.048  46.394  48.214  1.00  0.00     0.188 HD
BRANCH  18  20
HETATM   20  N2  UNL     1      71.738  47.582  49.265  1.00  0.00    -0.101 NA
BRANCH  20  21
HETATM   21  O3  UNL     1      70.627  47.176  49.944  1.00  0.00    -0.293 OA
ATOM     22  H3  UNL     1      70.318  46.320  49.672  1.00  0.00     0.239 HD
ENDBRANCH  20  21
BRANCH  20  23
HETATM   23  C6  UNL     1      72.136  48.853  49.741  1.00  0.00     0.183 C 
BRANCH  23  24
HETATM   24  C7  UNL     1      73.207  49.497  48.939  1.00  0.00     0.200 C 
BRANCH  24  25
HETATM   25  O4  UNL     1      73.201  50.873  48.954  1.00  0.00    -0.389 OA
ATOM     26  H4  UNL     1      73.292  51.285  48.103  1.00  0.00     0.210 HD
ENDBRANCH  24  25
BRANCH  24  27
HETATM   27  C8  UNL     1      74.549  49.049  49.513  1.00  0.00     0.382 C 
HETATM   28  F1  UNL     1      75.440  48.778  48.505  1.00  0.00    -0.212 F 
HETATM   29  F2  UNL     1      75.034  49.953  50.420  1.00  0.00    -0.212 F 
ENDBRANCH  24  27
ENDBRANCH  23  24
ENDBRANCH  20  23
ENDBRANCH  18  20
ENDBRANCH   1  16
TORSDOF 11
ENDMDL
MODEL 3
REMARK VINA RESULT: -8.197170484      2.184      2.805
REMARK  11 active torsions:
REMARK  status: ('A' for Active; 'I' for Inactive)
REMARK    1  A    between atoms: C4_4  and  O1_5 
REMARK    2  A    between atoms: O1_5  and  C5_6 
REMARK       I    between atoms: C5_6  and  N1_8 
REMARK    3  A    between atoms: N1_8  and  N2_10 
REMARK    4  A    between atoms: N2_10  and  O3_11 
REMARK    5  A    between atoms: N2_10  and  C6_13 
REMARK    6  A    between atoms: C6_13  and  C7_14 
REMARK    7  A    between atoms: C7_14  and  O4_15 
REMARK    8  A    between atoms: C7_14  and  C8_17 
REMARK    9  A    between atoms: C10_21  and  C11_22 
REMARK   10  A    between atoms: C11_22  and  O5_23 
REMARK   11  A    between atoms: N3_25  and  O6_27 
ROOT
HETATM    1  O1  UNL     1      71.561  44.255  51.863  1.00  0.00    -0.297 OA
ENDROOT
BRANCH   1   2
HETATM    2  C4  UNL     1      72.604  43.306  51.768  1.00  0.00     0.139 C 
HETATM    3  C3  UNL     1      73.476  43.307  52.998  1.00  0.00     0.064 C 
HETATM    4  C2  UNL     1      74.768  42.586  52.819  1.00  0.00     0.121 C 
HETATM    5  C1  UNL     1      74.580  41.108  53.155  1.00  0.00     0.040 C 
HETATM    6  O7  UNL     1      75.368  42.673  51.625  1.00  0.00    -0.373 OA
HETATM    7  C10 UNL     1      74.721  43.012  50.500  1.00  0.00     0.200 C 
HETATM    8  C9  UNL     1      73.420  43.694  50.571  1.00  0.00     0.073 C 
BRANCH   7   9
HETATM    9  C11 UNL     1      74.702  41.833  49.543  1.00  0.00     0.165 C 
HETATM   10  N3  UNL     1      74.259  40.693  49.937  1.00  0.00    -0.249 N 
ATOM     11  H3  UNL     1      73.920  40.584  50.893  1.00  0.00     0.196 HD
BRANCH   9  12
HETATM   12  O5  UNL     1      75.154  41.946  48.238  1.00  0.00    -0.346 OA
ATOM     13  H5  UNL     1      75.879  41.424  47.914  1.00  0.00     0.219 HD
ENDBRANCH   9  12
BRANCH  10  14
HETATM   14  O6  UNL     1      74.237  39.631  49.088  1.00  0.00    -0.288 OA
ATOM     15  H6  UNL     1      74.812  38.889  49.232  1.00  0.00     0.244 HD
ENDBRANCH  10  14
ENDBRANCH   7   9
ENDBRANCH   1   2
BRANCH   1  16
HETATM   16  C5  UNL     1      71.246  45.223  50.954  1.00  0.00     0.377 C 
HETATM   17  O2  UNL     1      70.140  45.125  50.372  1.00  0.00    -0.237 OA
HETATM   18  N1  UNL     1      72.084  46.321  50.639  1.00  0.00    -0.241 N 
ATOM     19  H1  UNL     1      72.990  46.403  51.100  1.00  0.00     0.188 HD
BRANCH  18  20
HETATM   20  N2  UNL     1      71.714  47.268  49.738  1.00  0.00    -0.101 NA
BRANCH  20  21
HETATM   21  O3  UNL     1      70.546  47.890  50.067  1.00  0.00    -0.293 OA
ATOM     22  H3  UNL     1      70.567  48.827  49.909  1.00  0.00     0.239 HD
ENDBRANCH  20  21
BRANCH  20  23
HETATM   23  C6  UNL     1      72.660  48.236  49.329  1.00  0.00     0.183 C 
BRANCH  23  24
HETATM   24  C7  UNL     1      74.020  48.036  49.889  1.00  0.00     0.200 C 
BRANCH  24  25
HETATM   25  O4  UNL     1      74.624  46.848  49.546  1.00  0.00    -0.389 OA
ATOM     26  H4  UNL     1      74.871  46.296  50.278  1.00  0.00     0.210 HD
ENDBRANCH  24  25
BRANCH  24  27
HETATM   27  C8  UNL     1      74.909  49.160  49.363  1.00  0.00     0.382 C 
HETATM   28  F1  UNL     1      75.424  49.896  50.400  1.00  0.00    -0.212 F 
HETATM   29  F2  UNL     1      75.878  48.681  48.521  1.00  0.00    -0.212 F 
ENDBRANCH  24  27
ENDBRANCH  23  24
ENDBRANCH  20  23
ENDBRANCH  18  20
ENDBRANCH   1  16
TORSDOF 11
ENDMDL
MODEL 4
REMARK VINA RESULT: -8.161603802      1.174      1.332
REMARK  11 active torsions:
REMARK  status: ('A' for Active; 'I' for Inactive)
REMARK    1  A    between atoms: C4_4  and  O1_5 
REMARK    2  A    between atoms: O1_5  and  C5_6 
REMARK       I    between atoms: C5_6  and  N1_8 
REMARK    3  A    between atoms: N1_8  and  N2_10 
REMARK    4  A    between atoms: N2_10  and  O3_11 
REMARK    5  A    between atoms: N2_10  and  C6_13 
REMARK    6  A    between atoms: C6_13  and  C7_14 
REMARK    7  A    between atoms: C7_14  and  O4_15 
REMARK    8  A    between atoms: C7_14  and  C8_17 
REMARK    9  A    between atoms: C10_21  and  C11_22 
REMARK   10  A    between atoms: C11_22  and  O5_23 
REMARK   11  A    between atoms: N3_25  and  O6_27 
ROOT
HETATM    1  O1  UNL     1      74.562  44.572  49.790  1.00  0.00    -0.297 OA
ENDROOT
BRANCH   1   2
HETATM    2  C4  UNL     1      74.347  43.461  50.636  1.00  0.00     0.139 C 
HETATM    3  C3  UNL     1      74.972  43.662  51.994  1.00  0.00     0.064 C 
HETATM    4  C2  UNL     1      75.074  42.411  52.798  1.00  0.00     0.121 C 
HETATM    5  C1  UNL     1      73.790  42.215  53.602  1.00  0.00     0.040 C 
HETATM    6  O7  UNL     1      75.342  41.273  52.147  1.00  0.00    -0.373 OA
HETATM    7  C10 UNL     1      75.133  41.112  50.832  1.00  0.00     0.200 C 
HETATM    8  C9  UNL     1      74.982  42.285  49.957  1.00  0.00     0.073 C 
BRANCH   7   9
HETATM    9  C11 UNL     1      74.041  40.081  50.607  1.00  0.00     0.165 C 
HETATM   10  N3  UNL     1      72.807  40.435  50.640  1.00  0.00    -0.249 N 
ATOM     11  H3  UNL     1      72.564  41.410  50.817  1.00  0.00     0.196 HD
BRANCH   9  12
HETATM   12  O5  UNL     1      74.335  38.749  50.363  1.00  0.00    -0.346 OA
ATOM     13  H5  UNL     1      74.879  38.242  50.954  1.00  0.00     0.219 HD
ENDBRANCH   9  12
BRANCH  10  14
HETATM   14  O6  UNL     1      71.822  39.520  50.439  1.00  0.00    -0.288 OA
ATOM     15  H6  UNL     1      71.665  39.162  49.573  1.00  0.00     0.244 HD
ENDBRANCH  10  14
ENDBRANCH   7   9
ENDBRANCH   1   2
BRANCH   1  16
HETATM   16  C5  UNL     1      73.935  45.783  49.847  1.00  0.00     0.377 C 
HETATM   17  O2  UNL     1      74.309  46.580  50.739  1.00  0.00    -0.237 OA
HETATM   18  N1  UNL     1      72.902  46.185  48.965  1.00  0.00    -0.241 N 
ATOM     19  H1  UNL     1      72.585  45.538  48.244  1.00  0.00     0.188 HD
BRANCH  18  20
HETATM   20  N2  UNL     1      72.322  47.410  49.056  1.00  0.00    -0.101 NA
BRANCH  20  21
HETATM   21  O3  UNL     1      71.805  47.666  50.291  1.00  0.00    -0.293 OA
ATOM     22  H3  UNL     1      71.227  48.421  50.303  1.00  0.00     0.239 HD
ENDBRANCH  20  21
BRANCH  20  23
HETATM   23  C6  UNL     1      73.036  48.544  48.604  1.00  0.00     0.183 C 
BRANCH  23  24
HETATM   24  C7  UNL     1      73.099  49.656  49.586  1.00  0.00     0.200 C 
BRANCH  24  25
HETATM   25  O4  UNL     1      74.364  50.125  49.857  1.00  0.00    -0.389 OA
ATOM     26  H4  UNL     1      75.037  49.459  49.912  1.00  0.00     0.210 HD
ENDBRANCH  24  25
BRANCH  24  27
HETATM   27  C8  UNL     1      72.300  50.825  49.015  1.00  0.00     0.382 C 
HETATM   28  F1  UNL     1      70.957  50.649  49.239  1.00  0.00    -0.212 F 
HETATM   29  F2  UNL     1      72.762  52.026  49.484  1.00  0.00    -0.212 F 
ENDBRANCH  24  27
ENDBRANCH  23  24
ENDBRANCH  20  23
ENDBRANCH  18  20
ENDBRANCH   1  16
TORSDOF 11
ENDMDL
MODEL 5
REMARK VINA RESULT: -8.031365893      2.465      2.992
REMARK  11 active torsions:
REMARK  status: ('A' for Active; 'I' for Inactive)
REMARK    1  A    between atoms: C4_4  and  O1_5 
REMARK    2  A    between atoms: O1_5  and  C5_6 
REMARK       I    between atoms: C5_6  and  N1_8 
REMARK    3  A    between atoms: N1_8  and  N2_10 
REMARK    4  A    between atoms: N2_10  and  O3_11 
REMARK    5  A    between atoms: N2_10  and  C6_13 
REMARK    6  A    between atoms: C6_13  and  C7_14 
REMARK    7  A    between atoms: C7_14  and  O4_15 
REMARK    8  A    between atoms: C7_14  and  C8_17 
REMARK    9  A    between atoms: C10_21  and  C11_22 
REMARK   10  A    between atoms: C11_22  and  O5_23 
REMARK   11  A    between atoms: N3_25  and  O6_27 
ROOT
HETATM    1  O1  UNL     1      72.428  44.064  53.103  1.00  0.00    -0.297 OA
ENDROOT
BRANCH   1   2
HETATM    2  C4  UNL     1      73.165  42.949  52.645  1.00  0.00     0.139 C 
HETATM    3  C3  UNL     1      73.783  42.179  53.785  1.00  0.00     0.064 C 
HETATM    4  C2  UNL     1      74.834  41.213  53.357  1.00  0.00     0.121 C 
HETATM    5  C1  UNL     1      74.188  39.870  53.020  1.00  0.00     0.040 C 
HETATM    6  O7  UNL     1      75.626  41.567  52.338  1.00  0.00    -0.373 OA
HETATM    7  C10 UNL     1      75.297  42.514  51.446  1.00  0.00     0.200 C 
HETATM    8  C9  UNL     1      74.245  43.493  51.759  1.00  0.00     0.073 C 
BRANCH   7   9
HETATM    9  C11 UNL     1      75.111  41.886  50.076  1.00  0.00     0.165 C 
HETATM   10  N3  UNL     1      74.676  42.597  49.098  1.00  0.00    -0.249 N 
ATOM     11  H3  UNL     1      74.456  43.581  49.246  1.00  0.00     0.196 HD
BRANCH   9  12
HETATM   12  O5  UNL     1      75.401  40.552  49.839  1.00  0.00    -0.346 OA
ATOM     13  H5  UNL     1      74.895  39.853  50.237  1.00  0.00     0.219 HD
ENDBRANCH   9  12
BRANCH  10  14
HETATM   14  O6  UNL     1      74.506  42.045  47.867  1.00  0.00    -0.288 OA
ATOM     15  H6  UNL     1      75.259  41.814  47.335  1.00  0.00     0.244 HD
ENDBRANCH  10  14
ENDBRANCH   7   9
ENDBRANCH   1   2
BRANCH   1  16
HETATM   16  C5  UNL     1      71.456  44.742  52.426  1.00  0.00     0.377 C 
HETATM   17  O2  UNL     1      70.294  44.273  52.469  1.00  0.00    -0.237 OA
HETATM   18  N1  UNL     1      71.683  45.931  51.690  1.00  0.00    -0.241 N 
ATOM     19  H1  UNL     1      72.627  46.312  51.641  1.00  0.00     0.188 HD
BRANCH  18  20
HETATM   20  N2  UNL     1      70.676  46.576  51.047  1.00  0.00    -0.101 NA
BRANCH  20  21
HETATM   21  O3  UNL     1      69.716  47.047  51.894  1.00  0.00    -0.293 OA
ATOM     22  H3  UNL     1      68.867  46.644  51.754  1.00  0.00     0.239 HD
ENDBRANCH  20  21
BRANCH  20  23
HETATM   23  C6  UNL     1      70.994  47.578  50.101  1.00  0.00     0.183 C 
BRANCH  23  24
HETATM   24  C7  UNL     1      72.428  47.625  49.719  1.00  0.00     0.200 C 
BRANCH  24  25
HETATM   25  O4  UNL     1      72.787  46.778  48.695  1.00  0.00    -0.389 OA
ATOM     26  H4  UNL     1      73.301  47.177  48.004  1.00  0.00     0.210 HD
ENDBRANCH  24  25
BRANCH  24  27
HETATM   27  C8  UNL     1      72.739  49.046  49.256  1.00  0.00     0.382 C 
HETATM   28  F1  UNL     1      71.642  49.856  49.409  1.00  0.00    -0.212 F 
HETATM   29  F2  UNL     1      73.855  49.542  49.875  1.00  0.00    -0.212 F 
ENDBRANCH  24  27
ENDBRANCH  23  24
ENDBRANCH  20  23
ENDBRANCH  18  20
ENDBRANCH   1  16
TORSDOF 11
ENDMDL
