MODEL 1
REMARK VINA RESULT: -8.349271819      0.000      0.000
REMARK  11 active torsions:
REMARK  status: ('A' for Active; 'I' for Inactive)
REMARK    1  A    between atoms: N1_2  and  C2_3 
REMARK    2  A    between atoms: N1_2  and  C8_9 
REMARK    3  A    between atoms: C2_3  and  C3_4 
REMARK    4  A    between atoms: C8_9  and  O1_10 
REMARK    5  A    between atoms: C8_9  and  C9_12 
REMARK    6  A    between atoms: C9_12  and  C10_13 
REMARK    7  A    between atoms: N3_18  and  C14_19 
REMARK    8  A    between atoms: C14_19  and  C15_20 
REMARK    9  A    between atoms: C15_20  and  C16_21 
REMARK   10  A    between atoms: C16_21  and  O2_22 
REMARK   11  A    between atoms: N4_24  and  O3_26 
ROOT
HETATM    1  C10 UNL     1      50.775  50.655  20.686  1.00  0.00     0.143 C 
HETATM    2  C11 UNL     1      51.693  49.567  20.264  1.00  0.00     0.060 C 
HETATM    3  N2  UNL     1      52.423  48.734  19.928  1.00  0.00    -0.197 NA
ENDROOT
BRANCH   1   4
HETATM    4  C9  UNL     1      50.244  51.443  19.536  1.00  0.00     0.054 C 
HETATM    5  C12 UNL     1      49.072  52.259  20.169  1.00  0.00     0.040 C 
HETATM    6  C13 UNL     1      49.218  53.628  19.599  1.00  0.00     0.123 C 
HETATM    7  N3  UNL     1      50.583  53.807  19.283  1.00  0.00    -0.392 N 
HETATM    8  C17 UNL     1      51.197  52.521  19.158  1.00  0.00     0.140 C 
BRANCH   4   9
HETATM    9  C8  UNL     1      49.754  50.724  18.374  1.00  0.00     0.124 C 
BRANCH   9  10
HETATM   10  N1  UNL     1      48.701  49.901  18.057  1.00  0.00    -0.369 N 
HETATM   11  C1  UNL     1      47.693  50.529  17.106  1.00  0.00     0.151 C 
BRANCH  10  12
HETATM   12  C2  UNL     1      48.430  48.577  18.472  1.00  0.00     0.128 C 
BRANCH  12  13
HETATM   13  C3  UNL     1      47.353  47.793  17.842  1.00  0.00     0.004 C 
HETATM   14  C4  UNL     1      47.668  46.424  17.376  1.00  0.00     0.006 C 
HETATM   15  C5  UNL     1      46.306  45.792  17.187  1.00  0.00     0.000 C 
HETATM   16  C6  UNL     1      45.384  46.534  18.134  1.00  0.00     0.000 C 
HETATM   17  C7  UNL     1      46.286  47.477  18.918  1.00  0.00     0.006 C 
ENDBRANCH  12  13
ENDBRANCH  10  12
ENDBRANCH   9  10
BRANCH   9  18
HETATM   18  O1  UNL     1      50.564  50.925  17.319  1.00  0.00    -0.349 OA
ATOM     19  H1  UNL     1      51.475  50.780  17.543  1.00  0.00     0.219 HD
ENDBRANCH   9  18
ENDBRANCH   4   9
BRANCH   7  20
HETATM   20  C14 UNL     1      51.316  54.806  19.955  1.00  0.00     0.066 C 
BRANCH  20  21
HETATM   21  C15 UNL     1      50.523  55.877  20.647  1.00  0.00     0.130 C 
BRANCH  21  22
HETATM   22  C16 UNL     1      51.324  56.326  21.815  1.00  0.00     0.140 C 
HETATM   23  N4  UNL     1      52.049  57.381  21.732  1.00  0.00    -0.251 N 
ATOM     24  H4  UNL     1      52.070  57.908  20.859  1.00  0.00     0.196 HD
BRANCH  22  25
HETATM   25  O2  UNL     1      51.307  55.619  23.018  1.00  0.00    -0.348 OA
ATOM     26  H2  UNL     1      51.161  54.680  23.036  1.00  0.00     0.219 HD
ENDBRANCH  22  25
BRANCH  23  27
HETATM   27  O3  UNL     1      52.790  57.808  22.793  1.00  0.00    -0.288 OA
ATOM     28  H3  UNL     1      53.732  57.683  22.815  1.00  0.00     0.244 HD
ENDBRANCH  23  27
ENDBRANCH  21  22
ENDBRANCH  20  21
ENDBRANCH   7  20
ENDBRANCH   1   4
TORSDOF 11
ENDMDL
MODEL 2
REMARK VINA RESULT: -8.294883080      1.177      1.614
REMARK  11 active torsions:
REMARK  status: ('A' for Active; 'I' for Inactive)
REMARK    1  A    between atoms: N1_2  and  C2_3 
REMARK    2  A    between atoms: N1_2  and  C8_9 
REMARK    3  A    between atoms: C2_3  and  C3_4 
REMARK    4  A    between atoms: C8_9  and  O1_10 
REMARK    5  A    between atoms: C8_9  and  C9_12 
REMARK    6  A    between atoms: C9_12  and  C10_13 
REMARK    7  A    between atoms: N3_18  and  C14_19 
REMARK    8  A    between atoms: C14_19  and  C15_20 
REMARK    9  A    between atoms: C15_20  and  C16_21 
REMARK   10  A    between atoms: C16_21  and  O2_22 
REMARK   11  A    between atoms: N4_24  and  O3_26 
ROOT
HETATM    1  C10 UNL     1      50.315  50.221  19.992  1.00  0.00     0.143 C 
HETATM    2  C11 UNL     1      51.558  49.408  19.993  1.00  0.00     0.060 C 
HETATM    3  N2  UNL     1      52.538  48.791  20.000  1.00  0.00    -0.197 NA
ENDROOT
BRANCH   1   4
HETATM    4  C9  UNL     1      50.345  51.324  18.988  1.00  0.00     0.054 C 
HETATM    5  C12 UNL     1      48.882  51.871  19.010  1.00  0.00     0.040 C 
HETATM    6  C13 UNL     1      49.036  53.353  18.993  1.00  0.00     0.123 C 
HETATM    7  N3  UNL     1      50.286  53.651  19.577  1.00  0.00    -0.392 N 
HETATM    8  C17 UNL     1      51.113  52.486  19.512  1.00  0.00     0.140 C 
BRANCH   4   9
HETATM    9  C8  UNL     1      50.717  51.004  17.622  1.00  0.00     0.124 C 
BRANCH   9  10
HETATM   10  N1  UNL     1      50.222  50.254  16.583  1.00  0.00    -0.369 N 
HETATM   11  C1  UNL     1      51.233  49.990  15.477  1.00  0.00     0.151 C 
BRANCH  10  12
HETATM   12  C2  UNL     1      48.936  49.693  16.403  1.00  0.00     0.128 C 
BRANCH  12  13
HETATM   13  C3  UNL     1      48.486  48.555  17.223  1.00  0.00     0.004 C 
HETATM   14  C4  UNL     1      47.224  48.698  17.982  1.00  0.00     0.006 C 
HETATM   15  C5  UNL     1      46.865  47.274  18.346  1.00  0.00     0.000 C 
HETATM   16  C6  UNL     1      47.510  46.413  17.278  1.00  0.00     0.000 C 
HETATM   17  C7  UNL     1      48.106  47.391  16.276  1.00  0.00     0.006 C 
ENDBRANCH  12  13
ENDBRANCH  10  12
ENDBRANCH   9  10
BRANCH   9  18
HETATM   18  O1  UNL     1      51.867  51.616  17.290  1.00  0.00    -0.349 OA
ATOM     19  H1  UNL     1      52.208  52.137  18.008  1.00  0.00     0.219 HD
ENDBRANCH   9  18
ENDBRANCH   4   9
BRANCH   7  20
HETATM   20  C14 UNL     1      50.322  54.398  20.772  1.00  0.00     0.066 C 
BRANCH  20  21
HETATM   21  C15 UNL     1      50.501  55.883  20.637  1.00  0.00     0.130 C 
BRANCH  21  22
HETATM   22  C16 UNL     1      51.317  56.331  21.795  1.00  0.00     0.140 C 
HETATM   23  N4  UNL     1      51.991  57.420  21.726  1.00  0.00    -0.251 N 
ATOM     24  H4  UNL     1      51.961  57.975  20.870  1.00  0.00     0.196 HD
BRANCH  22  25
HETATM   25  O2  UNL     1      51.370  55.585  22.974  1.00  0.00    -0.348 OA
ATOM     26  H2  UNL     1      50.688  55.655  23.632  1.00  0.00     0.219 HD
ENDBRANCH  22  25
BRANCH  23  27
HETATM   27  O3  UNL     1      52.745  57.847  22.778  1.00  0.00    -0.288 OA
ATOM     28  H3  UNL     1      53.536  58.355  22.639  1.00  0.00     0.244 HD
ENDBRANCH  23  27
ENDBRANCH  21  22
ENDBRANCH  20  21
ENDBRANCH   7  20
ENDBRANCH   1   4
TORSDOF 11
ENDMDL
MODEL 3
REMARK VINA RESULT: -8.234949465      1.125      1.361
REMARK  11 active torsions:
REMARK  status: ('A' for Active; 'I' for Inactive)
REMARK    1  A    between atoms: N1_2  and  C2_3 
REMARK    2  A    between atoms: N1_2  and  C8_9 
REMARK    3  A    between atoms: C2_3  and  C3_4 
REMARK    4  A    between atoms: C8_9  and  O1_10 
REMARK    5  A    between atoms: C8_9  and  C9_12 
REMARK    6  A    between atoms: C9_12  and  C10_13 
REMARK    7  A    between atoms: N3_18  and  C14_19 
REMARK    8  A    between atoms: C14_19  and  C15_20 
REMARK    9  A    between atoms: C15_20  and  C16_21 
REMARK   10  A    between atoms: C16_21  and  O2_22 
REMARK   11  A    between atoms: N4_24  and  O3_26 
ROOT
HETATM    1  C10 UNL     1      49.869  51.306  20.669  1.00  0.00     0.143 C 
HETATM    2  C11 UNL     1      51.092  50.473  20.548  1.00  0.00     0.060 C 
HETATM    3  N2  UNL     1      52.058  49.841  20.452  1.00  0.00    -0.197 NA
ENDROOT
BRANCH   1   4
HETATM    4  C9  UNL     1      49.583  52.097  19.437  1.00  0.00     0.054 C 
HETATM    5  C12 UNL     1      48.511  53.129  19.913  1.00  0.00     0.040 C 
HETATM    6  C13 UNL     1      48.934  54.418  19.297  1.00  0.00     0.123 C 
HETATM    7  N3  UNL     1      50.332  54.355  19.110  1.00  0.00    -0.392 N 
HETATM    8  C17 UNL     1      50.732  52.981  19.106  1.00  0.00     0.140 C 
BRANCH   4   9
HETATM    9  C8  UNL     1      49.087  51.396  18.267  1.00  0.00     0.124 C 
BRANCH   9  10
HETATM   10  N1  UNL     1      49.323  50.208  17.617  1.00  0.00    -0.369 N 
HETATM   11  C1  UNL     1      50.394  50.296  16.541  1.00  0.00     0.151 C 
BRANCH  10  12
HETATM   12  C2  UNL     1      48.732  48.938  17.810  1.00  0.00     0.128 C 
BRANCH  12  13
HETATM   13  C3  UNL     1      47.284  48.806  18.047  1.00  0.00     0.004 C 
HETATM   14  C4  UNL     1      46.375  48.897  16.884  1.00  0.00     0.006 C 
HETATM   15  C5  UNL     1      45.076  48.320  17.402  1.00  0.00     0.000 C 
HETATM   16  C6  UNL     1      45.474  47.375  18.518  1.00  0.00     0.000 C 
HETATM   17  C7  UNL     1      46.995  47.356  18.507  1.00  0.00     0.006 C 
ENDBRANCH  12  13
ENDBRANCH  10  12
ENDBRANCH   9  10
BRANCH   9  18
HETATM   18  O1  UNL     1      48.131  52.117  17.654  1.00  0.00    -0.349 OA
ATOM     19  H1  UNL     1      47.283  51.695  17.710  1.00  0.00     0.219 HD
ENDBRANCH   9  18
ENDBRANCH   4   9
BRANCH   7  20
HETATM   20  C14 UNL     1      51.157  55.262  19.804  1.00  0.00     0.066 C 
BRANCH  20  21
HETATM   21  C15 UNL     1      50.467  56.316  20.621  1.00  0.00     0.130 C 
BRANCH  21  22
HETATM   22  C16 UNL     1      51.333  56.592  21.797  1.00  0.00     0.140 C 
HETATM   23  N4  UNL     1      52.018  57.675  21.852  1.00  0.00    -0.251 N 
ATOM     24  H4  UNL     1      51.964  58.344  21.084  1.00  0.00     0.196 HD
BRANCH  22  25
HETATM   25  O2  UNL     1      51.420  55.690  22.858  1.00  0.00    -0.348 OA
ATOM     26  H2  UNL     1      52.037  55.823  23.569  1.00  0.00     0.219 HD
ENDBRANCH  22  25
BRANCH  23  27
HETATM   27  O3  UNL     1      52.818  57.946  22.922  1.00  0.00    -0.288 OA
ATOM     28  H3  UNL     1      52.447  58.195  23.760  1.00  0.00     0.244 HD
ENDBRANCH  23  27
ENDBRANCH  21  22
ENDBRANCH  20  21
ENDBRANCH   7  20
ENDBRANCH   1   4
TORSDOF 11
ENDMDL
MODEL 4
REMARK VINA RESULT: -8.162431720      0.865      1.134
REMARK  11 active torsions:
REMARK  status: ('A' for Active; 'I' for Inactive)
REMARK    1  A    between atoms: N1_2  and  C2_3 
REMARK    2  A    between atoms: N1_2  and  C8_9 
REMARK    3  A    between atoms: C2_3  and  C3_4 
REMARK    4  A    between atoms: C8_9  and  O1_10 
REMARK    5  A    between atoms: C8_9  and  C9_12 
REMARK    6  A    between atoms: C9_12  and  C10_13 
REMARK    7  A    between atoms: N3_18  and  C14_19 
REMARK    8  A    between atoms: C14_19  and  C15_20 
REMARK    9  A    between atoms: C15_20  and  C16_21 
REMARK   10  A    between atoms: C16_21  and  O2_22 
REMARK   11  A    between atoms: N4_24  and  O3_26 
ROOT
HETATM    1  C10 UNL     1      50.704  50.560  20.507  1.00  0.00     0.143 C 
HETATM    2  C11 UNL     1      51.717  49.510  20.228  1.00  0.00     0.060 C 
HETATM    3  N2  UNL     1      52.520  48.707  20.006  1.00  0.00    -0.197 NA
ENDROOT
BRANCH   1   4
HETATM    4  C9  UNL     1      50.345  51.354  19.296  1.00  0.00     0.054 C 
HETATM    5  C12 UNL     1      49.067  52.134  19.743  1.00  0.00     0.040 C 
HETATM    6  C13 UNL     1      49.268  53.514  19.221  1.00  0.00     0.123 C 
HETATM    7  N3  UNL     1      50.661  53.729  19.129  1.00  0.00    -0.392 N 
HETATM    8  C17 UNL     1      51.319  52.459  19.089  1.00  0.00     0.140 C 
BRANCH   4   9
HETATM    9  C8  UNL     1      50.065  50.643  18.063  1.00  0.00     0.124 C 
BRANCH   9  10
HETATM   10  N1  UNL     1      49.244  49.626  17.639  1.00  0.00    -0.369 N 
HETATM   11  C1  UNL     1      49.265  49.404  16.134  1.00  0.00     0.151 C 
BRANCH  10  12
HETATM   12  C2  UNL     1      48.406  48.767  18.387  1.00  0.00     0.128 C 
BRANCH  12  13
HETATM   13  C3  UNL     1      47.146  48.258  17.820  1.00  0.00     0.004 C 
HETATM   14  C4  UNL     1      46.192  47.588  18.731  1.00  0.00     0.006 C 
HETATM   15  C5  UNL     1      44.898  47.578  17.946  1.00  0.00     0.000 C 
HETATM   16  C6  UNL     1      44.996  48.757  16.998  1.00  0.00     0.000 C 
HETATM   17  C7  UNL     1      46.290  49.467  17.369  1.00  0.00     0.006 C 
ENDBRANCH  12  13
ENDBRANCH  10  12
ENDBRANCH   9  10
BRANCH   9  18
HETATM   18  O1  UNL     1      50.827  51.117  17.061  1.00  0.00    -0.349 OA
ATOM     19  H1  UNL     1      50.307  51.336  16.297  1.00  0.00     0.219 HD
ENDBRANCH   9  18
ENDBRANCH   4   9
BRANCH   7  20
HETATM   20  C14 UNL     1      51.252  54.733  19.922  1.00  0.00     0.066 C 
BRANCH  20  21
HETATM   21  C15 UNL     1      50.336  55.516  20.817  1.00  0.00     0.130 C 
BRANCH  21  22
HETATM   22  C16 UNL     1      51.166  56.062  21.921  1.00  0.00     0.140 C 
HETATM   23  N4  UNL     1      51.896  57.100  21.726  1.00  0.00    -0.251 N 
ATOM     24  H4  UNL     1      51.899  57.545  20.808  1.00  0.00     0.196 HD
BRANCH  22  25
HETATM   25  O2  UNL     1      51.174  55.467  23.183  1.00  0.00    -0.348 OA
ATOM     26  H2  UNL     1      51.237  55.990  23.974  1.00  0.00     0.219 HD
ENDBRANCH  22  25
BRANCH  23  27
HETATM   27  O3  UNL     1      52.665  57.615  22.726  1.00  0.00    -0.288 OA
ATOM     28  H3  UNL     1      53.613  57.554  22.697  1.00  0.00     0.244 HD
ENDBRANCH  23  27
ENDBRANCH  21  22
ENDBRANCH  20  21
ENDBRANCH   7  20
ENDBRANCH   1   4
TORSDOF 11
ENDMDL
MODEL 5
REMARK VINA RESULT: -8.145159540      1.285      1.768
REMARK  11 active torsions:
REMARK  status: ('A' for Active; 'I' for Inactive)
REMARK    1  A    between atoms: N1_2  and  C2_3 
REMARK    2  A    between atoms: N1_2  and  C8_9 
REMARK    3  A    between atoms: C2_3  and  C3_4 
REMARK    4  A    between atoms: C8_9  and  O1_10 
REMARK    5  A    between atoms: C8_9  and  C9_12 
REMARK    6  A    between atoms: C9_12  and  C10_13 
REMARK    7  A    between atoms: N3_18  and  C14_19 
REMARK    8  A    between atoms: C14_19  and  C15_20 
REMARK    9  A    between atoms: C15_20  and  C16_21 
REMARK   10  A    between atoms: C16_21  and  O2_22 
REMARK   11  A    between atoms: N4_24  and  O3_26 
ROOT
HETATM    1  C10 UNL     1      50.334  51.384  20.671  1.00  0.00     0.143 C 
HETATM    2  C11 UNL     1      51.331  50.292  20.539  1.00  0.00     0.060 C 
HETATM    3  N2  UNL     1      52.124  49.454  20.435  1.00  0.00    -0.197 NA
ENDROOT
BRANCH   1   4
HETATM    4  C9  UNL     1      50.241  52.234  19.449  1.00  0.00     0.054 C 
HETATM    5  C12 UNL     1      48.718  52.568  19.358  1.00  0.00     0.040 C 
HETATM    6  C13 UNL     1      48.673  54.017  19.013  1.00  0.00     0.123 C 
HETATM    7  N3  UNL     1      49.857  54.603  19.509  1.00  0.00    -0.392 N 
HETATM    8  C17 UNL     1      50.834  53.575  19.699  1.00  0.00     0.140 C 
BRANCH   4   9
HETATM    9  C8  UNL     1      50.685  51.675  18.185  1.00  0.00     0.124 C 
BRANCH   9  10
HETATM   10  N1  UNL     1      50.181  50.862  17.200  1.00  0.00    -0.369 N 
HETATM   11  C1  UNL     1      51.241  50.279  16.277  1.00  0.00     0.151 C 
BRANCH  10  12
HETATM   12  C2  UNL     1      48.843  50.486  16.931  1.00  0.00     0.128 C 
BRANCH  12  13
HETATM   13  C3  UNL     1      48.326  49.175  17.359  1.00  0.00     0.004 C 
HETATM   14  C4  UNL     1      48.607  48.732  18.742  1.00  0.00     0.006 C 
HETATM   15  C5  UNL     1      47.620  47.607  18.962  1.00  0.00     0.000 C 
HETATM   16  C6  UNL     1      46.462  47.901  18.028  1.00  0.00     0.000 C 
HETATM   17  C7  UNL     1      46.780  49.252  17.404  1.00  0.00     0.006 C 
ENDBRANCH  12  13
ENDBRANCH  10  12
ENDBRANCH   9  10
BRANCH   9  18
HETATM   18  O1  UNL     1      51.942  52.068  17.911  1.00  0.00    -0.349 OA
ATOM     19  H1  UNL     1      52.298  52.613  18.602  1.00  0.00     0.219 HD
ENDBRANCH   9  18
ENDBRANCH   4   9
BRANCH   7  20
HETATM   20  C14 UNL     1      49.764  55.592  20.510  1.00  0.00     0.066 C 
BRANCH  20  21
HETATM   21  C15 UNL     1      50.426  55.291  21.823  1.00  0.00     0.130 C 
BRANCH  21  22
HETATM   22  C16 UNL     1      51.309  56.443  22.141  1.00  0.00     0.140 C 
HETATM   23  N4  UNL     1      50.937  57.637  21.856  1.00  0.00    -0.251 N 
ATOM     24  H4  UNL     1      50.032  57.789  21.412  1.00  0.00     0.196 HD
BRANCH  22  25
HETATM   25  O2  UNL     1      52.550  56.256  22.750  1.00  0.00    -0.348 OA
ATOM     26  H2  UNL     1      53.360  56.392  22.272  1.00  0.00     0.219 HD
ENDBRANCH  22  25
BRANCH  23  27
HETATM   27  O3  UNL     1      51.734  58.706  22.140  1.00  0.00    -0.288 OA
ATOM     28  H3  UNL     1      51.359  59.552  22.358  1.00  0.00     0.244 HD
ENDBRANCH  23  27
ENDBRANCH  21  22
ENDBRANCH  20  21
ENDBRANCH   7  20
ENDBRANCH   1   4
TORSDOF 11
ENDMDL
