MODEL 1
REMARK VINA RESULT: -8.336110216      0.000      0.000
REMARK  10 active torsions:
REMARK  status: ('A' for Active; 'I' for Inactive)
REMARK    1  A    between atoms: C2_2  and  C3_3 
REMARK    2  A    between atoms: C5_5  and  C6_6 
REMARK    3  A    between atoms: C6_6  and  C7_7 
REMARK    4  A    between atoms: C7_7  and  C8_8 
REMARK    5  A    between atoms: C11_11  and  O1_12 
REMARK    6  A    between atoms: C13_15  and  O2_16 
REMARK    7  A    between atoms: C14_18  and  O3_19 
REMARK    8  A    between atoms: O3_19  and  C15_20 
REMARK    9  A    between atoms: C16_21  and  C17_22 
REMARK   10  A    between atoms: C17_22  and  C18_24 
ROOT
HETATM    1  C8  UNL     1      48.996  49.613  19.428  1.00  0.00     0.034 C 
HETATM    2  C9  UNL     1      50.085  49.405  20.435  1.00  0.00     0.018 C 
HETATM    3  C10 UNL     1      49.681  48.214  21.321  1.00  0.00     0.013 C 
HETATM    4  C11 UNL     1      51.411  49.062  19.871  1.00  0.00     0.124 C 
HETATM    5  C12 UNL     1      51.617  49.564  18.464  1.00  0.00     0.066 C 
HETATM    6  C13 UNL     1      50.836  50.783  18.138  1.00  0.00     0.150 C 
HETATM    7  C14 UNL     1      49.380  50.540  18.298  1.00  0.00     0.161 C 
ENDROOT
BRANCH   7   8
HETATM    8  O3  UNL     1      48.692  51.729  18.418  1.00  0.00    -0.355 OA
BRANCH   8   9
HETATM    9  C15 UNL     1      48.900  52.967  18.830  1.00  0.00     0.139 C 
HETATM   10  C16 UNL     1      49.026  53.281  20.132  1.00  0.00     0.082 C 
BRANCH  10  11
HETATM   11  C17 UNL     1      49.256  54.631  20.600  1.00  0.00     0.218 C 
HETATM   12  O4  UNL     1      48.304  55.456  20.557  1.00  0.00    -0.284 OA
BRANCH  11  13
HETATM   13  C18 UNL     1      50.544  55.042  21.107  1.00  0.00     0.195 C 
HETATM   14  C19 UNL     1      51.518  55.765  20.238  1.00  0.00     0.100 C 
HETATM   15  O5  UNL     1      50.861  54.798  22.282  1.00  0.00    -0.289 OA
ENDBRANCH  11  13
ENDBRANCH  10  11
ENDBRANCH   8   9
ENDBRANCH   7   8
BRANCH   1  16
HETATM   16  C7  UNL     1      48.498  48.290  18.989  1.00  0.00     0.092 C 
BRANCH  16  17
HETATM   17  C6  UNL     1      47.334  47.839  18.852  1.00  0.00    -0.155 C 
BRANCH  17  18
HETATM   18  C5  UNL     1      46.056  47.343  18.702  1.00  0.00     0.057 C 
HETATM   19  C3  UNL     1      45.199  47.894  17.787  1.00  0.00    -0.056 C 
HETATM   20  C4  UNL     1      43.840  47.377  17.640  1.00  0.00     0.049 C 
BRANCH  19  21
HETATM   21  C2  UNL     1      45.669  49.008  16.982  1.00  0.00    -0.003 C 
HETATM   22  C1  UNL     1      45.907  48.756  15.658  1.00  0.00     0.012 C 
ENDBRANCH  19  21
ENDBRANCH  17  18
ENDBRANCH  16  17
ENDBRANCH   1  16
BRANCH   6  23
HETATM   23  O2  UNL     1      51.079  51.058  16.760  1.00  0.00    -0.393 OA
ATOM     24  H2  UNL     1      51.689  51.787  16.736  1.00  0.00     0.210 HD
ENDBRANCH   6  23
BRANCH   4  25
HETATM   25  O1  UNL     1      52.394  49.619  20.680  1.00  0.00    -0.395 OA
ATOM     26  H1  UNL     1      53.188  49.104  20.592  1.00  0.00     0.210 HD
ENDBRANCH   4  25
TORSDOF 10
ENDMDL
MODEL 2
REMARK VINA RESULT: -8.318689739      0.918      1.485
REMARK  10 active torsions:
REMARK  status: ('A' for Active; 'I' for Inactive)
REMARK    1  A    between atoms: C2_2  and  C3_3 
REMARK    2  A    between atoms: C5_5  and  C6_6 
REMARK    3  A    between atoms: C6_6  and  C7_7 
REMARK    4  A    between atoms: C7_7  and  C8_8 
REMARK    5  A    between atoms: C11_11  and  O1_12 
REMARK    6  A    between atoms: C13_15  and  O2_16 
REMARK    7  A    between atoms: C14_18  and  O3_19 
REMARK    8  A    between atoms: O3_19  and  C15_20 
REMARK    9  A    between atoms: C16_21  and  C17_22 
REMARK   10  A    between atoms: C17_22  and  C18_24 
ROOT
HETATM    1  C8  UNL     1      48.969  49.630  19.415  1.00  0.00     0.034 C 
HETATM    2  C9  UNL     1      50.082  49.445  20.399  1.00  0.00     0.018 C 
HETATM    3  C10 UNL     1      49.718  48.252  21.300  1.00  0.00     0.013 C 
HETATM    4  C11 UNL     1      51.402  49.123  19.810  1.00  0.00     0.124 C 
HETATM    5  C12 UNL     1      51.570  49.620  18.396  1.00  0.00     0.066 C 
HETATM    6  C13 UNL     1      50.761  50.824  18.081  1.00  0.00     0.150 C 
HETATM    7  C14 UNL     1      49.313  50.557  18.273  1.00  0.00     0.161 C 
ENDROOT
BRANCH   7   8
HETATM    8  O3  UNL     1      48.607  51.735  18.401  1.00  0.00    -0.355 OA
BRANCH   8   9
HETATM    9  C15 UNL     1      48.829  53.008  18.673  1.00  0.00     0.139 C 
HETATM   10  C16 UNL     1      48.612  53.532  19.892  1.00  0.00     0.082 C 
BRANCH  10  11
HETATM   11  C17 UNL     1      48.853  54.924  20.208  1.00  0.00     0.218 C 
HETATM   12  O4  UNL     1      50.044  55.320  20.321  1.00  0.00    -0.284 OA
BRANCH  11  13
HETATM   13  C18 UNL     1      47.763  55.853  20.393  1.00  0.00     0.195 C 
HETATM   14  C19 UNL     1      47.911  57.045  21.280  1.00  0.00     0.100 C 
HETATM   15  O5  UNL     1      46.681  55.672  19.814  1.00  0.00    -0.289 OA
ENDBRANCH  11  13
ENDBRANCH  10  11
ENDBRANCH   8   9
ENDBRANCH   7   8
BRANCH   1  16
HETATM   16  C7  UNL     1      48.485  48.296  18.993  1.00  0.00     0.092 C 
BRANCH  16  17
HETATM   17  C6  UNL     1      47.326  47.828  18.871  1.00  0.00    -0.155 C 
BRANCH  17  18
HETATM   18  C5  UNL     1      46.053  47.313  18.738  1.00  0.00     0.057 C 
HETATM   19  C3  UNL     1      45.181  47.842  17.825  1.00  0.00    -0.056 C 
HETATM   20  C4  UNL     1      43.828  47.304  17.695  1.00  0.00     0.049 C 
BRANCH  19  21
HETATM   21  C2  UNL     1      45.629  48.953  17.003  1.00  0.00    -0.003 C 
HETATM   22  C1  UNL     1      45.869  48.687  15.683  1.00  0.00     0.012 C 
ENDBRANCH  19  21
ENDBRANCH  17  18
ENDBRANCH  16  17
ENDBRANCH   1  16
BRANCH   6  23
HETATM   23  O2  UNL     1      50.970  51.096  16.696  1.00  0.00    -0.393 OA
ATOM     24  H2  UNL     1      50.406  50.499  16.218  1.00  0.00     0.210 HD
ENDBRANCH   6  23
BRANCH   4  25
HETATM   25  O1  UNL     1      52.392  49.701  20.595  1.00  0.00    -0.395 OA
ATOM     26  H1  UNL     1      52.109  49.685  21.502  1.00  0.00     0.210 HD
ENDBRANCH   4  25
TORSDOF 10
ENDMDL
MODEL 3
REMARK VINA RESULT: -8.281798083      0.991      1.724
REMARK  10 active torsions:
REMARK  status: ('A' for Active; 'I' for Inactive)
REMARK    1  A    between atoms: C2_2  and  C3_3 
REMARK    2  A    between atoms: C5_5  and  C6_6 
REMARK    3  A    between atoms: C6_6  and  C7_7 
REMARK    4  A    between atoms: C7_7  and  C8_8 
REMARK    5  A    between atoms: C11_11  and  O1_12 
REMARK    6  A    between atoms: C13_15  and  O2_16 
REMARK    7  A    between atoms: C14_18  and  O3_19 
REMARK    8  A    between atoms: O3_19  and  C15_20 
REMARK    9  A    between atoms: C16_21  and  C17_22 
REMARK   10  A    between atoms: C17_22  and  C18_24 
ROOT
HETATM    1  C8  UNL     1      49.142  49.935  19.473  1.00  0.00     0.034 C 
HETATM    2  C9  UNL     1      50.156  49.465  20.469  1.00  0.00     0.018 C 
HETATM    3  C10 UNL     1      49.562  48.251  21.205  1.00  0.00     0.013 C 
HETATM    4  C11 UNL     1      51.441  49.004  19.896  1.00  0.00     0.124 C 
HETATM    5  C12 UNL     1      51.764  49.626  18.560  1.00  0.00     0.066 C 
HETATM    6  C13 UNL     1      51.169  50.971  18.362  1.00  0.00     0.150 C 
HETATM    7  C14 UNL     1      49.689  50.919  18.465  1.00  0.00     0.161 C 
ENDROOT
BRANCH   7   8
HETATM    8  O3  UNL     1      49.167  52.172  18.708  1.00  0.00    -0.355 OA
BRANCH   8   9
HETATM    9  C15 UNL     1      49.487  53.281  19.351  1.00  0.00     0.139 C 
HETATM   10  C16 UNL     1      49.739  53.300  20.671  1.00  0.00     0.082 C 
BRANCH  10  11
HETATM   11  C17 UNL     1      50.094  54.506  21.390  1.00  0.00     0.218 C 
HETATM   12  O4  UNL     1      50.741  54.398  22.466  1.00  0.00    -0.284 OA
BRANCH  11  13
HETATM   13  C18 UNL     1      49.723  55.811  20.899  1.00  0.00     0.195 C 
HETATM   14  C19 UNL     1      48.325  56.318  21.042  1.00  0.00     0.100 C 
HETATM   15  O5  UNL     1      50.565  56.537  20.348  1.00  0.00    -0.289 OA
ENDBRANCH  11  13
ENDBRANCH  10  11
ENDBRANCH   8   9
ENDBRANCH   7   8
BRANCH   1  16
HETATM   16  C7  UNL     1      48.483  48.752  18.875  1.00  0.00     0.092 C 
BRANCH  16  17
HETATM   17  C6  UNL     1      47.446  48.638  18.176  1.00  0.00    -0.155 C 
BRANCH  17  18
HETATM   18  C5  UNL     1      46.307  48.513  17.408  1.00  0.00     0.057 C 
HETATM   19  C3  UNL     1      45.287  47.691  17.807  1.00  0.00    -0.056 C 
HETATM   20  C4  UNL     1      44.086  47.549  16.985  1.00  0.00     0.049 C 
BRANCH  19  21
HETATM   21  C2  UNL     1      45.435  46.957  19.051  1.00  0.00    -0.003 C 
HETATM   22  C1  UNL     1      44.360  46.218  19.464  1.00  0.00     0.012 C 
ENDBRANCH  19  21
ENDBRANCH  17  18
ENDBRANCH  16  17
ENDBRANCH   1  16
BRANCH   6  23
HETATM   23  O2  UNL     1      51.495  51.362  17.029  1.00  0.00    -0.393 OA
ATOM     24  H2  UNL     1      51.043  50.755  16.455  1.00  0.00     0.210 HD
ENDBRANCH   6  23
BRANCH   4  25
HETATM   25  O1  UNL     1      52.463  49.324  20.782  1.00  0.00    -0.395 OA
ATOM     26  H1  UNL     1      52.256  48.952  21.632  1.00  0.00     0.210 HD
ENDBRANCH   4  25
TORSDOF 10
ENDMDL
MODEL 4
REMARK VINA RESULT: -8.153059772      1.189      1.964
REMARK  10 active torsions:
REMARK  status: ('A' for Active; 'I' for Inactive)
REMARK    1  A    between atoms: C2_2  and  C3_3 
REMARK    2  A    between atoms: C5_5  and  C6_6 
REMARK    3  A    between atoms: C6_6  and  C7_7 
REMARK    4  A    between atoms: C7_7  and  C8_8 
REMARK    5  A    between atoms: C11_11  and  O1_12 
REMARK    6  A    between atoms: C13_15  and  O2_16 
REMARK    7  A    between atoms: C14_18  and  O3_19 
REMARK    8  A    between atoms: O3_19  and  C15_20 
REMARK    9  A    between atoms: C16_21  and  C17_22 
REMARK   10  A    between atoms: C17_22  and  C18_24 
ROOT
HETATM    1  C8  UNL     1      49.103  49.894  19.463  1.00  0.00     0.034 C 
HETATM    2  C9  UNL     1      50.135  49.445  20.450  1.00  0.00     0.018 C 
HETATM    3  C10 UNL     1      49.575  48.215  21.187  1.00  0.00     0.013 C 
HETATM    4  C11 UNL     1      51.426  49.016  19.865  1.00  0.00     0.124 C 
HETATM    5  C12 UNL     1      51.723  49.648  18.529  1.00  0.00     0.066 C 
HETATM    6  C13 UNL     1      51.097  50.979  18.339  1.00  0.00     0.150 C 
HETATM    7  C14 UNL     1      49.619  50.893  18.454  1.00  0.00     0.161 C 
ENDROOT
BRANCH   7   8
HETATM    8  O3  UNL     1      49.069  52.132  18.704  1.00  0.00    -0.355 OA
BRANCH   8   9
HETATM    9  C15 UNL     1      49.416  53.290  19.239  1.00  0.00     0.139 C 
HETATM   10  C16 UNL     1      48.515  54.140  19.761  1.00  0.00     0.082 C 
BRANCH  10  11
HETATM   11  C17 UNL     1      48.878  55.410  20.354  1.00  0.00     0.218 C 
HETATM   12  O4  UNL     1      50.100  55.672  20.517  1.00  0.00    -0.284 OA
BRANCH  11  13
HETATM   13  C18 UNL     1      47.875  56.367  20.755  1.00  0.00     0.195 C 
HETATM   14  C19 UNL     1      48.183  57.429  21.759  1.00  0.00     0.100 C 
HETATM   15  O5  UNL     1      46.735  56.322  20.267  1.00  0.00    -0.289 OA
ENDBRANCH  11  13
ENDBRANCH  10  11
ENDBRANCH   8   9
ENDBRANCH   7   8
BRANCH   1  16
HETATM   16  C7  UNL     1      48.466  48.697  18.867  1.00  0.00     0.092 C 
BRANCH  16  17
HETATM   17  C6  UNL     1      47.445  48.565  18.148  1.00  0.00    -0.155 C 
BRANCH  17  18
HETATM   18  C5  UNL     1      46.323  48.419  17.359  1.00  0.00     0.057 C 
HETATM   19  C3  UNL     1      45.291  47.614  17.761  1.00  0.00    -0.056 C 
HETATM   20  C4  UNL     1      44.109  47.449  16.917  1.00  0.00     0.049 C 
BRANCH  19  21
HETATM   21  C2  UNL     1      45.408  46.921  19.032  1.00  0.00    -0.003 C 
HETATM   22  C1  UNL     1      44.318  46.206  19.448  1.00  0.00     0.012 C 
ENDBRANCH  19  21
ENDBRANCH  17  18
ENDBRANCH  16  17
ENDBRANCH   1  16
BRANCH   6  23
HETATM   23  O2  UNL     1      51.403  51.381  17.005  1.00  0.00    -0.393 OA
ATOM     24  H2  UNL     1      52.244  51.821  17.045  1.00  0.00     0.210 HD
ENDBRANCH   6  23
BRANCH   4  25
HETATM   25  O1  UNL     1      52.447  49.357  20.745  1.00  0.00    -0.395 OA
ATOM     26  H1  UNL     1      52.155  50.085  21.281  1.00  0.00     0.210 HD
ENDBRANCH   4  25
TORSDOF 10
ENDMDL
MODEL 5
REMARK VINA RESULT: -8.141404856      1.055      1.214
REMARK  10 active torsions:
REMARK  status: ('A' for Active; 'I' for Inactive)
REMARK    1  A    between atoms: C2_2  and  C3_3 
REMARK    2  A    between atoms: C5_5  and  C6_6 
REMARK    3  A    between atoms: C6_6  and  C7_7 
REMARK    4  A    between atoms: C7_7  and  C8_8 
REMARK    5  A    between atoms: C11_11  and  O1_12 
REMARK    6  A    between atoms: C13_15  and  O2_16 
REMARK    7  A    between atoms: C14_18  and  O3_19 
REMARK    8  A    between atoms: O3_19  and  C15_20 
REMARK    9  A    between atoms: C16_21  and  C17_22 
REMARK   10  A    between atoms: C17_22  and  C18_24 
ROOT
HETATM    1  C8  UNL     1      49.062  49.685  19.389  1.00  0.00     0.034 C 
HETATM    2  C9  UNL     1      50.091  49.397  20.438  1.00  0.00     0.018 C 
HETATM    3  C10 UNL     1      49.609  48.178  21.244  1.00  0.00     0.013 C 
HETATM    4  C11 UNL     1      51.435  49.041  19.926  1.00  0.00     0.124 C 
HETATM    5  C12 UNL     1      51.727  49.601  18.556  1.00  0.00     0.066 C 
HETATM    6  C13 UNL     1      50.998  50.856  18.251  1.00  0.00     0.150 C 
HETATM    7  C14 UNL     1      49.529  50.651  18.326  1.00  0.00     0.161 C 
ENDROOT
BRANCH   7   8
HETATM    8  O3  UNL     1      48.869  51.853  18.468  1.00  0.00    -0.355 OA
BRANCH   8   9
HETATM    9  C15 UNL     1      49.106  53.078  18.903  1.00  0.00     0.139 C 
HETATM   10  C16 UNL     1      49.073  53.396  20.210  1.00  0.00     0.082 C 
BRANCH  10  11
HETATM   11  C17 UNL     1      49.332  54.732  20.704  1.00  0.00     0.218 C 
HETATM   12  O4  UNL     1      48.400  55.579  20.670  1.00  0.00    -0.284 OA
BRANCH  11  13
HETATM   13  C18 UNL     1      50.626  55.102  21.226  1.00  0.00     0.195 C 
HETATM   14  C19 UNL     1      51.618  55.830  20.380  1.00  0.00     0.100 C 
HETATM   15  O5  UNL     1      50.934  54.821  22.395  1.00  0.00    -0.289 OA
ENDBRANCH  11  13
ENDBRANCH  10  11
ENDBRANCH   8   9
ENDBRANCH   7   8
BRANCH   1  16
HETATM   16  C7  UNL     1      48.550  48.399  18.863  1.00  0.00     0.092 C 
BRANCH  16  17
HETATM   17  C6  UNL     1      48.034  48.094  17.759  1.00  0.00    -0.155 C 
BRANCH  17  18
HETATM   18  C5  UNL     1      47.468  47.757  16.548  1.00  0.00     0.057 C 
HETATM   19  C3  UNL     1      46.558  48.588  15.951  1.00  0.00    -0.056 C 
HETATM   20  C4  UNL     1      45.948  48.223  14.674  1.00  0.00     0.049 C 
BRANCH  19  21
HETATM   21  C2  UNL     1      46.207  49.827  16.623  1.00  0.00    -0.003 C 
HETATM   22  C1  UNL     1      46.537  50.991  15.984  1.00  0.00     0.012 C 
ENDBRANCH  19  21
ENDBRANCH  17  18
ENDBRANCH  16  17
ENDBRANCH   1  16
BRANCH   6  23
HETATM   23  O2  UNL     1      51.319  51.188  16.900  1.00  0.00    -0.393 OA
ATOM     24  H2  UNL     1      52.157  50.782  16.718  1.00  0.00     0.210 HD
ENDBRANCH   6  23
BRANCH   4  25
HETATM   25  O1  UNL     1      52.390  49.529  20.809  1.00  0.00    -0.395 OA
ATOM     26  H1  UNL     1      52.509  48.897  21.508  1.00  0.00     0.210 HD
ENDBRANCH   4  25
TORSDOF 10
ENDMDL
