MODEL 1
REMARK VINA RESULT: -8.648268819      0.000      0.000
REMARK  12 active torsions:
REMARK  status: ('A' for Active; 'I' for Inactive)
REMARK    1  A    between atoms: C2_3  and  O1_4 
REMARK    2  A    between atoms: O1_4  and  C3_5 
REMARK    3  A    between atoms: C3_5  and  C4_6 
REMARK    4  A    between atoms: C4_6  and  C5_7 
REMARK    5  A    between atoms: C5_7  and  O2_10 
REMARK    6  A    between atoms: C8_12  and  S1_13 
REMARK    7  A    between atoms: S1_13  and  C9_14 
REMARK    8  A    between atoms: C10_17  and  N3_18 
REMARK    9  A    between atoms: N4_21  and  N5_22 
REMARK   10  A    between atoms: C12_27  and  C13_28 
REMARK   11  A    between atoms: C13_28  and  C14_29 
REMARK   12  A    between atoms: N7_34  and  N8_35 
ROOT
HETATM    1  C9  UNL     1     -39.472  73.166 100.470  1.00  0.00     0.104 A 
HETATM    2  N2  UNL     1     -39.707  71.848 100.677  1.00  0.00    -0.183 N 
ATOM      3  H2  UNL     1     -40.639  71.464 100.519  1.00  0.00     0.185 HD
HETATM    4  C10 UNL     1     -38.712  71.049 101.090  1.00  0.00     0.700 A 
HETATM    5  N4  UNL     1     -37.470  71.518 101.309  1.00  0.00    -0.054 N 
HETATM    6  C11 UNL     1     -37.175  72.813 101.120  1.00  0.00     0.291 A 
HETATM    7  O3  UNL     1     -36.008  73.257 101.329  1.00  0.00    -0.265 OA
HETATM    8  C12 UNL     1     -38.208  73.659 100.687  1.00  0.00     0.054 A 
ENDROOT
BRANCH   1   9
HETATM    9  S1  UNL     1     -40.843  74.228  99.967  1.00  0.00    -0.049 SA
BRANCH   9  10
HETATM   10  C8  UNL     1     -42.388  73.354 100.091  1.00  0.00     0.132 A 
HETATM   11  C2  UNL     1     -43.380  73.735 100.998  1.00  0.00     0.183 A 
HETATM   12  N1  UNL     1     -44.383  72.885 100.816  1.00  0.00    -0.282 N 
HETATM   13  C1  UNL     1     -45.666  72.836 101.501  1.00  0.00     0.163 C 
HETATM   14  C19 UNL     1     -44.046  72.001  99.838  1.00  0.00     0.329 A 
HETATM   15  N9  UNL     1     -42.814  72.295  99.393  1.00  0.00    -0.299 N 
HETATM   16  O6  UNL     1     -44.786  71.068  99.433  1.00  0.00    -0.246 OA
ATOM     17  H9  UNL     1     -42.300  71.803  98.662  1.00  0.00     0.171 HD
BRANCH  11  18
HETATM   18  O1  UNL     1     -43.332  74.776 101.895  1.00  0.00    -0.333 OA
BRANCH  18  19
HETATM   19  C3  UNL     1     -43.876  76.037 101.671  1.00  0.00     0.180 C 
BRANCH  19  20
HETATM   20  C4  UNL     1     -43.047  77.135 102.258  1.00  0.00     0.063 C 
BRANCH  20  21
HETATM   21  C5  UNL     1     -43.906  78.093 103.061  1.00  0.00     0.052 C 
HETATM   22  C6  UNL     1     -45.358  77.794 102.886  1.00  0.00     0.045 C 
HETATM   23  C7  UNL     1     -43.530  77.903 104.515  1.00  0.00     0.045 C 
BRANCH  21  24
HETATM   24  O2  UNL     1     -43.563  79.374 102.627  1.00  0.00    -0.391 OA
ATOM     25  H2  UNL     1     -44.382  79.810 102.422  1.00  0.00     0.210 HD
ENDBRANCH  21  24
ENDBRANCH  20  21
ENDBRANCH  19  20
ENDBRANCH  18  19
ENDBRANCH  11  18
ENDBRANCH   9  10
ENDBRANCH   1   9
BRANCH   8  26
HETATM   26  C13 UNL     1     -37.897  75.084 100.443  1.00  0.00     0.126 C 
BRANCH  26  27
HETATM   27  C14 UNL     1     -37.191  75.305  99.180  1.00  0.00     0.112 A 
HETATM   28  N6  UNL     1     -35.999  74.746  98.847  1.00  0.00    -0.321 N 
HETATM   29  C15 UNL     1     -35.645  75.129  97.624  1.00  0.00     0.198 A 
ATOM     30  H6  UNL     1     -35.455  74.125  99.445  1.00  0.00     0.169 HD
HETATM   31  C16 UNL     1     -36.639  75.956  97.164  1.00  0.00     0.217 A 
HETATM   32  O5  UNL     1     -34.562  74.888  96.776  1.00  0.00    -0.330 OA
HETATM   33  N7  UNL     1     -37.582  76.046  98.148  1.00  0.00    -0.224 N 
HETATM   34  O4  UNL     1     -36.520  76.500  95.905  1.00  0.00    -0.329 OA
HETATM   35  C17 UNL     1     -35.419  76.346  95.044  1.00  0.00     0.204 C 
HETATM   36  C18 UNL     1     -34.195  75.832  95.772  1.00  0.00     0.204 C 
BRANCH  33  37
HETATM   37  N8  UNL     1     -38.744  76.788  98.027  1.00  0.00    -0.335 N 
ATOM     38  H82 UNL     1     -38.765  77.807  98.044  1.00  0.00     0.177 HD
ATOM     39  H81 UNL     1     -39.695  76.444  97.897  1.00  0.00     0.177 HD
ENDBRANCH  33  37
ENDBRANCH  26  27
ENDBRANCH   8  26
BRANCH   4  40
HETATM   40  N3  UNL     1     -38.914  69.780 101.293  1.00  0.00    -0.233 N 
ATOM     41  H32 UNL     1     -39.882  69.470 101.384  1.00  0.00     0.174 HD
ATOM     42  H31 UNL     1     -38.132  69.129 101.360  1.00  0.00     0.174 HD
ENDBRANCH   4  40
BRANCH   5  43
HETATM   43  N5  UNL     1     -36.469  70.633 101.742  1.00  0.00    -0.321 N 
ATOM     44  H52 UNL     1     -36.661  69.991 102.511  1.00  0.00     0.178 HD
ATOM     45  H51 UNL     1     -35.560  70.644 101.279  1.00  0.00     0.178 HD
ENDBRANCH   5  43
TORSDOF 12
ENDMDL
MODEL 2
REMARK VINA RESULT: -8.278949413      2.489      3.544
REMARK  12 active torsions:
REMARK  status: ('A' for Active; 'I' for Inactive)
REMARK    1  A    between atoms: C2_3  and  O1_4 
REMARK    2  A    between atoms: O1_4  and  C3_5 
REMARK    3  A    between atoms: C3_5  and  C4_6 
REMARK    4  A    between atoms: C4_6  and  C5_7 
REMARK    5  A    between atoms: C5_7  and  O2_10 
REMARK    6  A    between atoms: C8_12  and  S1_13 
REMARK    7  A    between atoms: S1_13  and  C9_14 
REMARK    8  A    between atoms: C10_17  and  N3_18 
REMARK    9  A    between atoms: N4_21  and  N5_22 
REMARK   10  A    between atoms: C12_27  and  C13_28 
REMARK   11  A    between atoms: C13_28  and  C14_29 
REMARK   12  A    between atoms: N7_34  and  N8_35 
ROOT
HETATM    1  C9  UNL     1     -38.253  71.990 100.188  1.00  0.00     0.104 A 
HETATM    2  N2  UNL     1     -38.653  72.204 101.464  1.00  0.00    -0.183 N 
ATOM      3  H2  UNL     1     -39.646  72.183 101.700  1.00  0.00     0.185 HD
HETATM    4  C10 UNL     1     -37.741  72.444 102.418  1.00  0.00     0.700 A 
HETATM    5  N4  UNL     1     -36.423  72.479 102.148  1.00  0.00    -0.054 N 
HETATM    6  C11 UNL     1     -35.966  72.273 100.903  1.00  0.00     0.291 A 
HETATM    7  O3  UNL     1     -34.727  72.310 100.645  1.00  0.00    -0.265 OA
HETATM    8  C12 UNL     1     -36.910  72.020  99.896  1.00  0.00     0.054 A 
ENDROOT
BRANCH   1   9
HETATM    9  S1  UNL     1     -39.505  71.724  98.914  1.00  0.00    -0.049 SA
BRANCH   9  10
HETATM   10  C8  UNL     1     -41.139  71.887  99.601  1.00  0.00     0.132 A 
HETATM   11  C2  UNL     1     -41.500  72.980 100.393  1.00  0.00     0.183 A 
HETATM   12  N1  UNL     1     -42.771  72.785 100.721  1.00  0.00    -0.282 N 
HETATM   13  C1  UNL     1     -43.638  73.627 101.532  1.00  0.00     0.163 C 
HETATM   14  C19 UNL     1     -43.201  71.619 100.166  1.00  0.00     0.329 A 
HETATM   15  N9  UNL     1     -42.191  71.069  99.476  1.00  0.00    -0.299 N 
HETATM   16  O6  UNL     1     -44.363  71.153 100.293  1.00  0.00    -0.246 OA
ATOM     17  H9  UNL     1     -42.219  70.193  98.954  1.00  0.00     0.171 HD
BRANCH  11  18
HETATM   18  O1  UNL     1     -40.707  74.042 100.757  1.00  0.00    -0.333 OA
BRANCH  18  19
HETATM   19  C3  UNL     1     -40.618  75.239 100.054  1.00  0.00     0.180 C 
BRANCH  19  20
HETATM   20  C4  UNL     1     -39.347  75.357  99.275  1.00  0.00     0.063 C 
BRANCH  20  21
HETATM   21  C5  UNL     1     -38.339  76.222 100.009  1.00  0.00     0.052 C 
HETATM   22  C6  UNL     1     -38.020  77.457  99.232  1.00  0.00     0.045 C 
HETATM   23  C7  UNL     1     -38.977  76.614 101.325  1.00  0.00     0.045 C 
BRANCH  21  24
HETATM   24  O2  UNL     1     -37.222  75.415 100.223  1.00  0.00    -0.391 OA
ATOM     25  H2  UNL     1     -36.838  75.265  99.367  1.00  0.00     0.210 HD
ENDBRANCH  21  24
ENDBRANCH  20  21
ENDBRANCH  19  20
ENDBRANCH  18  19
ENDBRANCH  11  18
ENDBRANCH   9  10
ENDBRANCH   1   9
BRANCH   8  26
HETATM   26  C13 UNL     1     -36.426  71.759  98.523  1.00  0.00     0.126 C 
BRANCH  26  27
HETATM   27  C14 UNL     1     -36.013  72.977  97.825  1.00  0.00     0.112 A 
HETATM   28  N6  UNL     1     -36.852  73.963  97.415  1.00  0.00    -0.321 N 
HETATM   29  C15 UNL     1     -36.158  74.938  96.837  1.00  0.00     0.198 A 
ATOM     30  H6  UNL     1     -37.865  73.957  97.534  1.00  0.00     0.169 HD
HETATM   31  C16 UNL     1     -34.838  74.564  96.879  1.00  0.00     0.217 A 
HETATM   32  O5  UNL     1     -36.463  76.165  96.245  1.00  0.00    -0.330 OA
HETATM   33  N7  UNL     1     -34.779  73.346  97.496  1.00  0.00    -0.224 N 
HETATM   34  O4  UNL     1     -33.892  75.406  96.340  1.00  0.00    -0.329 OA
HETATM   35  C17 UNL     1     -34.155  76.614  95.670  1.00  0.00     0.204 C 
HETATM   36  C18 UNL     1     -35.606  76.732  95.254  1.00  0.00     0.204 C 
BRANCH  33  37
HETATM   37  N8  UNL     1     -33.598  72.665  97.729  1.00  0.00    -0.335 N 
ATOM     38  H82 UNL     1     -32.813  72.661  97.078  1.00  0.00     0.177 HD
ATOM     39  H81 UNL     1     -33.347  72.109  98.546  1.00  0.00     0.177 HD
ENDBRANCH  33  37
ENDBRANCH  26  27
ENDBRANCH   8  26
BRANCH   4  40
HETATM   40  N3  UNL     1     -38.102  72.651 103.651  1.00  0.00    -0.233 N 
ATOM     41  H32 UNL     1     -37.380  72.959 104.304  1.00  0.00     0.174 HD
ATOM     42  H31 UNL     1     -39.068  72.506 103.945  1.00  0.00     0.174 HD
ENDBRANCH   4  40
BRANCH   5  43
HETATM   43  N5  UNL     1     -35.516  72.736 103.188  1.00  0.00    -0.321 N 
ATOM     44  H52 UNL     1     -35.465  72.099 103.983  1.00  0.00     0.178 HD
ATOM     45  H51 UNL     1     -34.917  73.560 103.134  1.00  0.00     0.178 HD
ENDBRANCH   5  43
TORSDOF 12
ENDMDL
MODEL 3
REMARK VINA RESULT: -8.157322968      2.959      7.192
REMARK  12 active torsions:
REMARK  status: ('A' for Active; 'I' for Inactive)
REMARK    1  A    between atoms: C2_3  and  O1_4 
REMARK    2  A    between atoms: O1_4  and  C3_5 
REMARK    3  A    between atoms: C3_5  and  C4_6 
REMARK    4  A    between atoms: C4_6  and  C5_7 
REMARK    5  A    between atoms: C5_7  and  O2_10 
REMARK    6  A    between atoms: C8_12  and  S1_13 
REMARK    7  A    between atoms: S1_13  and  C9_14 
REMARK    8  A    between atoms: C10_17  and  N3_18 
REMARK    9  A    between atoms: N4_21  and  N5_22 
REMARK   10  A    between atoms: C12_27  and  C13_28 
REMARK   11  A    between atoms: C13_28  and  C14_29 
REMARK   12  A    between atoms: N7_34  and  N8_35 
ROOT
HETATM    1  C9  UNL     1     -39.186  72.707  99.730  1.00  0.00     0.104 A 
HETATM    2  N2  UNL     1     -40.402  72.139  99.545  1.00  0.00    -0.183 N 
ATOM      3  H2  UNL     1     -40.473  71.152  99.295  1.00  0.00     0.185 HD
HETATM    4  C10 UNL     1     -41.512  72.877  99.691  1.00  0.00     0.700 A 
HETATM    5  N4  UNL     1     -41.460  74.181 100.020  1.00  0.00    -0.054 N 
HETATM    6  C11 UNL     1     -40.286  74.799 100.217  1.00  0.00     0.291 A 
HETATM    7  O3  UNL     1     -40.234  76.026 100.522  1.00  0.00    -0.265 OA
HETATM    8  C12 UNL     1     -39.116  74.037 100.069  1.00  0.00     0.054 A 
ENDROOT
BRANCH   1   9
HETATM    9  S1  UNL     1     -37.706  71.704  99.474  1.00  0.00    -0.049 SA
BRANCH   9  10
HETATM   10  C8  UNL     1     -36.982  71.251 101.035  1.00  0.00     0.132 A 
HETATM   11  C2  UNL     1     -35.739  71.744 101.442  1.00  0.00     0.183 A 
HETATM   12  N1  UNL     1     -35.515  71.216 102.639  1.00  0.00    -0.282 N 
HETATM   13  C1  UNL     1     -34.367  71.404 103.513  1.00  0.00     0.163 C 
HETATM   14  C19 UNL     1     -36.567  70.422 102.980  1.00  0.00     0.329 A 
HETATM   15  N9  UNL     1     -37.469  70.447 101.988  1.00  0.00    -0.299 N 
HETATM   16  O6  UNL     1     -36.656  69.778 104.058  1.00  0.00    -0.246 OA
ATOM     17  H9  UNL     1     -38.358  69.947 101.963  1.00  0.00     0.171 HD
BRANCH  11  18
HETATM   18  O1  UNL     1     -34.916  72.600 100.750  1.00  0.00    -0.333 OA
BRANCH  18  19
HETATM   19  C3  UNL     1     -33.633  72.282 100.315  1.00  0.00     0.180 C 
BRANCH  19  20
HETATM   20  C4  UNL     1     -33.557  70.928  99.684  1.00  0.00     0.063 C 
BRANCH  20  21
HETATM   21  C5  UNL     1     -33.565  71.033  98.171  1.00  0.00     0.052 C 
HETATM   22  C6  UNL     1     -32.310  70.477  97.583  1.00  0.00     0.045 C 
HETATM   23  C7  UNL     1     -34.746  70.221  97.683  1.00  0.00     0.045 C 
BRANCH  21  24
HETATM   24  O2  UNL     1     -33.744  72.386  97.880  1.00  0.00    -0.391 OA
ATOM     25  H2  UNL     1     -34.656  72.484  97.632  1.00  0.00     0.210 HD
ENDBRANCH  21  24
ENDBRANCH  20  21
ENDBRANCH  19  20
ENDBRANCH  18  19
ENDBRANCH  11  18
ENDBRANCH   9  10
ENDBRANCH   1   9
BRANCH   8  26
HETATM   26  C13 UNL     1     -37.812  74.691 100.312  1.00  0.00     0.126 C 
BRANCH  26  27
HETATM   27  C14 UNL     1     -37.109  75.036  99.076  1.00  0.00     0.112 A 
HETATM   28  N6  UNL     1     -35.913  74.518  98.690  1.00  0.00    -0.321 N 
HETATM   29  C15 UNL     1     -35.563  75.018  97.510  1.00  0.00     0.198 A 
ATOM     30  H6  UNL     1     -35.366  73.844  99.226  1.00  0.00     0.169 HD
HETATM   31  C16 UNL     1     -36.562  75.880  97.131  1.00  0.00     0.217 A 
HETATM   32  O5  UNL     1     -34.480  74.865  96.642  1.00  0.00    -0.330 OA
HETATM   33  N7  UNL     1     -37.504  75.870  98.121  1.00  0.00    -0.224 N 
HETATM   34  O4  UNL     1     -36.447  76.543  95.930  1.00  0.00    -0.329 OA
HETATM   35  C17 UNL     1     -35.347  76.477  95.058  1.00  0.00     0.204 C 
HETATM   36  C18 UNL     1     -34.118  75.903  95.732  1.00  0.00     0.204 C 
BRANCH  33  37
HETATM   37  N8  UNL     1     -38.670  76.613  98.072  1.00  0.00    -0.335 N 
ATOM     38  H82 UNL     1     -39.358  76.533  97.323  1.00  0.00     0.177 HD
ATOM     39  H81 UNL     1     -39.002  77.302  98.747  1.00  0.00     0.177 HD
ENDBRANCH  33  37
ENDBRANCH  26  27
ENDBRANCH   8  26
BRANCH   4  40
HETATM   40  N3  UNL     1     -42.690  72.352  99.520  1.00  0.00    -0.233 N 
ATOM     41  H32 UNL     1     -42.752  71.334  99.514  1.00  0.00     0.174 HD
ATOM     42  H31 UNL     1     -43.513  72.943  99.395  1.00  0.00     0.174 HD
ENDBRANCH   4  40
BRANCH   5  43
HETATM   43  N5  UNL     1     -42.657  74.902 100.157  1.00  0.00    -0.321 N 
ATOM     44  H52 UNL     1     -43.007  75.128 101.088  1.00  0.00     0.178 HD
ATOM     45  H51 UNL     1     -43.163  75.192  99.319  1.00  0.00     0.178 HD
ENDBRANCH   5  43
TORSDOF 12
ENDMDL
MODEL 4
REMARK VINA RESULT: -8.127016765      2.740      4.546
REMARK  12 active torsions:
REMARK  status: ('A' for Active; 'I' for Inactive)
REMARK    1  A    between atoms: C2_3  and  O1_4 
REMARK    2  A    between atoms: O1_4  and  C3_5 
REMARK    3  A    between atoms: C3_5  and  C4_6 
REMARK    4  A    between atoms: C4_6  and  C5_7 
REMARK    5  A    between atoms: C5_7  and  O2_10 
REMARK    6  A    between atoms: C8_12  and  S1_13 
REMARK    7  A    between atoms: S1_13  and  C9_14 
REMARK    8  A    between atoms: C10_17  and  N3_18 
REMARK    9  A    between atoms: N4_21  and  N5_22 
REMARK   10  A    between atoms: C12_27  and  C13_28 
REMARK   11  A    between atoms: C13_28  and  C14_29 
REMARK   12  A    between atoms: N7_34  and  N8_35 
ROOT
HETATM    1  C9  UNL     1     -39.803  73.379  99.540  1.00  0.00     0.104 A 
HETATM    2  N2  UNL     1     -41.055  73.832  99.788  1.00  0.00    -0.183 N 
ATOM      3  H2  UNL     1     -41.864  73.256  99.552  1.00  0.00     0.185 HD
HETATM    4  C10 UNL     1     -41.230  75.040 100.345  1.00  0.00     0.700 A 
HETATM    5  N4  UNL     1     -40.190  75.828 100.671  1.00  0.00    -0.054 N 
HETATM    6  C11 UNL     1     -38.926  75.435 100.451  1.00  0.00     0.291 A 
HETATM    7  O3  UNL     1     -37.946  76.176 100.754  1.00  0.00    -0.265 OA
HETATM    8  C12 UNL     1     -38.730  74.172  99.870  1.00  0.00     0.054 A 
ENDROOT
BRANCH   1   9
HETATM    9  S1  UNL     1     -39.598  71.773  98.740  1.00  0.00    -0.049 SA
BRANCH   9  10
HETATM   10  C8  UNL     1     -40.009  70.458  99.866  1.00  0.00     0.132 A 
HETATM   11  C2  UNL     1     -41.298  70.306 100.384  1.00  0.00     0.183 A 
HETATM   12  N1  UNL     1     -41.250  69.237 101.169  1.00  0.00    -0.282 N 
HETATM   13  C1  UNL     1     -42.321  68.635 101.949  1.00  0.00     0.163 C 
HETATM   14  C19 UNL     1     -39.987  68.729 101.153  1.00  0.00     0.329 A 
HETATM   15  N9  UNL     1     -39.226  69.486 100.348  1.00  0.00    -0.299 N 
HETATM   16  O6  UNL     1     -39.617  67.714 101.798  1.00  0.00    -0.246 OA
ATOM     17  H9  UNL     1     -38.236  69.347 100.143  1.00  0.00     0.171 HD
BRANCH  11  18
HETATM   18  O1  UNL     1     -42.394  71.098 100.134  1.00  0.00    -0.333 OA
BRANCH  18  19
HETATM   19  C3  UNL     1     -43.280  70.910  99.078  1.00  0.00     0.180 C 
BRANCH  19  20
HETATM   20  C4  UNL     1     -44.711  70.939  99.514  1.00  0.00     0.063 C 
BRANCH  20  21
HETATM   21  C5  UNL     1     -45.199  72.366  99.674  1.00  0.00     0.052 C 
HETATM   22  C6  UNL     1     -46.307  72.669  98.719  1.00  0.00     0.045 C 
HETATM   23  C7  UNL     1     -45.715  72.495 101.092  1.00  0.00     0.045 C 
BRANCH  21  24
HETATM   24  O2  UNL     1     -44.083  73.180  99.480  1.00  0.00    -0.391 OA
ATOM     25  H2  UNL     1     -43.325  72.623  99.615  1.00  0.00     0.210 HD
ENDBRANCH  21  24
ENDBRANCH  20  21
ENDBRANCH  19  20
ENDBRANCH  18  19
ENDBRANCH  11  18
ENDBRANCH   9  10
ENDBRANCH   1   9
BRANCH   8  26
HETATM   26  C13 UNL     1     -37.344  73.704  99.648  1.00  0.00     0.126 C 
BRANCH  26  27
HETATM   27  C14 UNL     1     -36.666  74.426  98.571  1.00  0.00     0.112 A 
HETATM   28  N6  UNL     1     -37.270  75.284  97.707  1.00  0.00    -0.321 N 
HETATM   29  C15 UNL     1     -36.371  75.790  96.869  1.00  0.00     0.198 A 
ATOM     30  H6  UNL     1     -38.265  75.506  97.702  1.00  0.00     0.169 HD
HETATM   31  C16 UNL     1     -35.160  75.242  97.207  1.00  0.00     0.217 A 
HETATM   32  O5  UNL     1     -36.397  76.691  95.803  1.00  0.00    -0.330 OA
HETATM   33  N7  UNL     1     -35.374  74.402  98.263  1.00  0.00    -0.224 N 
HETATM   34  O4  UNL     1     -34.043  75.601  96.486  1.00  0.00    -0.329 OA
HETATM   35  C17 UNL     1     -34.029  76.446  95.362  1.00  0.00     0.204 C 
HETATM   36  C18 UNL     1     -35.411  76.634  94.773  1.00  0.00     0.204 C 
BRANCH  33  37
HETATM   37  N8  UNL     1     -34.366  73.683  98.883  1.00  0.00    -0.335 N 
ATOM     38  H82 UNL     1     -34.482  72.727  99.219  1.00  0.00     0.177 HD
ATOM     39  H81 UNL     1     -33.410  73.982  99.073  1.00  0.00     0.177 HD
ENDBRANCH  33  37
ENDBRANCH  26  27
ENDBRANCH   8  26
BRANCH   4  40
HETATM   40  N3  UNL     1     -42.424  75.495 100.593  1.00  0.00    -0.233 N 
ATOM     41  H32 UNL     1     -42.644  75.725 101.563  1.00  0.00     0.174 HD
ATOM     42  H31 UNL     1     -43.106  75.612  99.844  1.00  0.00     0.174 HD
ENDBRANCH   4  40
BRANCH   5  43
HETATM   43  N5  UNL     1     -40.436  77.084 101.250  1.00  0.00    -0.321 N 
ATOM     44  H52 UNL     1     -41.388  77.343 101.509  1.00  0.00     0.178 HD
ATOM     45  H51 UNL     1     -39.655  77.722 101.406  1.00  0.00     0.178 HD
ENDBRANCH   5  43
TORSDOF 12
ENDMDL
MODEL 5
REMARK VINA RESULT: -8.112994893      2.369      4.086
REMARK  12 active torsions:
REMARK  status: ('A' for Active; 'I' for Inactive)
REMARK    1  A    between atoms: C2_3  and  O1_4 
REMARK    2  A    between atoms: O1_4  and  C3_5 
REMARK    3  A    between atoms: C3_5  and  C4_6 
REMARK    4  A    between atoms: C4_6  and  C5_7 
REMARK    5  A    between atoms: C5_7  and  O2_10 
REMARK    6  A    between atoms: C8_12  and  S1_13 
REMARK    7  A    between atoms: S1_13  and  C9_14 
REMARK    8  A    between atoms: C10_17  and  N3_18 
REMARK    9  A    between atoms: N4_21  and  N5_22 
REMARK   10  A    between atoms: C12_27  and  C13_28 
REMARK   11  A    between atoms: C13_28  and  C14_29 
REMARK   12  A    between atoms: N7_34  and  N8_35 
ROOT
HETATM    1  C9  UNL     1     -38.333  72.405 100.295  1.00  0.00     0.104 A 
HETATM    2  N2  UNL     1     -38.656  72.634 101.590  1.00  0.00    -0.183 N 
ATOM      3  H2  UNL     1     -39.634  72.737 101.863  1.00  0.00     0.185 HD
HETATM    4  C10 UNL     1     -37.688  72.726 102.513  1.00  0.00     0.700 A 
HETATM    5  N4  UNL     1     -36.387  72.596 102.194  1.00  0.00    -0.054 N 
HETATM    6  C11 UNL     1     -36.004  72.367 100.929  1.00  0.00     0.291 A 
HETATM    7  O3  UNL     1     -34.781  72.249 100.624  1.00  0.00    -0.265 OA
HETATM    8  C12 UNL     1     -37.008  72.267  99.953  1.00  0.00     0.054 A 
ENDROOT
BRANCH   1   9
HETATM    9  S1  UNL     1     -39.652  72.340  99.064  1.00  0.00    -0.049 SA
BRANCH   9  10
HETATM   10  C8  UNL     1     -41.099  73.192  99.655  1.00  0.00     0.132 A 
HETATM   11  C2  UNL     1     -42.311  72.529  99.865  1.00  0.00     0.183 A 
HETATM   12  N1  UNL     1     -43.156  73.451 100.308  1.00  0.00    -0.282 N 
HETATM   13  C1  UNL     1     -44.553  73.296 100.685  1.00  0.00     0.163 C 
HETATM   14  C19 UNL     1     -42.513  74.649 100.376  1.00  0.00     0.329 A 
HETATM   15  N9  UNL     1     -41.244  74.484  99.973  1.00  0.00    -0.299 N 
HETATM   16  O6  UNL     1     -43.044  75.724 100.759  1.00  0.00    -0.246 OA
ATOM     17  H9  UNL     1     -40.526  75.206  99.918  1.00  0.00     0.171 HD
BRANCH  11  18
HETATM   18  O1  UNL     1     -42.577  71.196  99.659  1.00  0.00    -0.333 OA
BRANCH  18  19
HETATM   19  C3  UNL     1     -42.642  70.239 100.666  1.00  0.00     0.180 C 
BRANCH  19  20
HETATM   20  C4  UNL     1     -41.392  70.180 101.487  1.00  0.00     0.063 C 
BRANCH  20  21
HETATM   21  C5  UNL     1     -41.685  70.482 102.944  1.00  0.00     0.052 C 
HETATM   22  C6  UNL     1     -43.119  70.851 103.142  1.00  0.00     0.045 C 
HETATM   23  C7  UNL     1     -41.385  69.217 103.721  1.00  0.00     0.045 C 
BRANCH  21  24
HETATM   24  O2  UNL     1     -40.810  71.504 103.309  1.00  0.00    -0.391 OA
ATOM     25  H2  UNL     1     -40.941  71.643 104.240  1.00  0.00     0.210 HD
ENDBRANCH  21  24
ENDBRANCH  20  21
ENDBRANCH  19  20
ENDBRANCH  18  19
ENDBRANCH  11  18
ENDBRANCH   9  10
ENDBRANCH   1   9
BRANCH   8  26
HETATM   26  C13 UNL     1     -36.611  71.984  98.557  1.00  0.00     0.126 C 
BRANCH  26  27
HETATM   27  C14 UNL     1     -36.154  73.176  97.842  1.00  0.00     0.112 A 
HETATM   28  N6  UNL     1     -36.964  74.162  97.375  1.00  0.00    -0.321 N 
HETATM   29  C15 UNL     1     -36.235  75.112  96.797  1.00  0.00     0.198 A 
ATOM     30  H6  UNL     1     -37.981  74.173  97.456  1.00  0.00     0.169 HD
HETATM   31  C16 UNL     1     -34.923  74.722  96.898  1.00  0.00     0.217 A 
HETATM   32  O5  UNL     1     -36.500  76.326  96.161  1.00  0.00    -0.330 OA
HETATM   33  N7  UNL     1     -34.905  73.520  97.549  1.00  0.00    -0.224 N 
HETATM   34  O4  UNL     1     -33.946  75.536  96.372  1.00  0.00    -0.329 OA
HETATM   35  C17 UNL     1     -34.166  76.728  95.661  1.00  0.00     0.204 C 
HETATM   36  C18 UNL     1     -35.600  76.854  95.188  1.00  0.00     0.204 C 
BRANCH  33  37
HETATM   37  N8  UNL     1     -33.742  72.830  97.844  1.00  0.00    -0.335 N 
ATOM     38  H82 UNL     1     -33.245  72.251  97.168  1.00  0.00     0.177 HD
ATOM     39  H81 UNL     1     -33.233  72.811  98.728  1.00  0.00     0.177 HD
ENDBRANCH  33  37
ENDBRANCH  26  27
ENDBRANCH   8  26
BRANCH   4  40
HETATM   40  N3  UNL     1     -37.975  72.944 103.764  1.00  0.00    -0.233 N 
ATOM     41  H32 UNL     1     -38.894  72.645 104.091  1.00  0.00     0.174 HD
ATOM     42  H31 UNL     1     -37.304  73.398 104.384  1.00  0.00     0.174 HD
ENDBRANCH   4  40
BRANCH   5  43
HETATM   43  N5  UNL     1     -35.418  72.704 103.205  1.00  0.00    -0.321 N 
ATOM     44  H52 UNL     1     -35.711  72.835 104.173  1.00  0.00     0.178 HD
ATOM     45  H51 UNL     1     -34.430  72.649 102.956  1.00  0.00     0.178 HD
ENDBRANCH   5  43
TORSDOF 12
ENDMDL
