MODEL 1
REMARK VINA RESULT: -5.182488086      0.000      0.000
REMARK  2 active torsions:
REMARK  status: ('A' for Active; 'I' for Inactive)
REMARK    1  A    between atoms: C3_4  and  O2_5 
REMARK    2  A    between atoms: C4_7  and  O3_8 
ROOT
HETATM    1  C1  UNL     1      73.744  45.733  51.718  1.00  0.00     0.040 C 
HETATM    2  C2  UNL     1      72.281  45.943  51.992  1.00  0.00     0.127 C 
HETATM    3  O1  UNL     1      71.956  47.271  52.222  1.00  0.00    -0.353 OA
HETATM    4  C3  UNL     1      70.777  47.190  52.987  1.00  0.00     0.286 C 
HETATM    5  C4  UNL     1      71.292  46.279  54.101  1.00  0.00     0.179 C 
HETATM    6  C5  UNL     1      71.855  45.160  53.211  1.00  0.00     0.044 C 
HETATM    7  C6  UNL     1      70.691  44.265  52.809  1.00  0.00     0.015 C 
ENDROOT
BRANCH   4   8
HETATM    8  O2  UNL     1      70.349  48.402  53.449  1.00  0.00    -0.369 OA
ATOM      9  H2  UNL     1      69.471  48.376  53.813  1.00  0.00     0.212 HD
ENDBRANCH   4   8
BRANCH   5  10
HETATM   10  O3  UNL     1      70.289  45.834  54.923  1.00  0.00    -0.390 OA
ATOM     11  H3  UNL     1      70.620  45.394  55.697  1.00  0.00     0.210 HD
ENDBRANCH   5  10
TORSDOF 2
ENDMDL
MODEL 2
REMARK VINA RESULT: -5.133460578      1.584      2.150
REMARK  2 active torsions:
REMARK  status: ('A' for Active; 'I' for Inactive)
REMARK    1  A    between atoms: C3_4  and  O2_5 
REMARK    2  A    between atoms: C4_7  and  O3_8 
ROOT
HETATM    1  C1  UNL     1      74.363  44.801  53.132  1.00  0.00     0.040 C 
HETATM    2  C2  UNL     1      73.075  45.550  52.942  1.00  0.00     0.127 C 
HETATM    3  O1  UNL     1      72.411  45.803  54.133  1.00  0.00    -0.353 OA
HETATM    4  C3  UNL     1      71.070  45.952  53.734  1.00  0.00     0.286 C 
HETATM    5  C4  UNL     1      70.909  44.630  52.983  1.00  0.00     0.179 C 
HETATM    6  C5  UNL     1      72.131  44.763  52.063  1.00  0.00     0.044 C 
HETATM    7  C6  UNL     1      71.731  45.651  50.894  1.00  0.00     0.015 C 
ENDROOT
BRANCH   4   8
HETATM    8  O2  UNL     1      70.204  46.074  54.783  1.00  0.00    -0.369 OA
ATOM      9  H2  UNL     1      70.002  46.976  55.000  1.00  0.00     0.212 HD
ENDBRANCH   4   8
BRANCH   5  10
HETATM   10  O3  UNL     1      69.734  44.564  52.280  1.00  0.00    -0.390 OA
ATOM     11  H3  UNL     1      69.225  43.790  52.490  1.00  0.00     0.210 HD
ENDBRANCH   5  10
TORSDOF 2
ENDMDL
MODEL 3
REMARK VINA RESULT: -5.071385763      1.388      1.971
REMARK  2 active torsions:
REMARK  status: ('A' for Active; 'I' for Inactive)
REMARK    1  A    between atoms: C3_4  and  O2_5 
REMARK    2  A    between atoms: C4_7  and  O3_8 
ROOT
HETATM    1  C1  UNL     1      74.250  45.288  53.242  1.00  0.00     0.040 C 
HETATM    2  C2  UNL     1      73.059  45.418  52.334  1.00  0.00     0.127 C 
HETATM    3  O1  UNL     1      73.191  46.439  51.406  1.00  0.00    -0.353 OA
HETATM    4  C3  UNL     1      71.859  46.766  51.089  1.00  0.00     0.286 C 
HETATM    5  C4  UNL     1      71.345  47.021  52.505  1.00  0.00     0.179 C 
HETATM    6  C5  UNL     1      71.811  45.702  53.137  1.00  0.00     0.044 C 
HETATM    7  C6  UNL     1      70.780  44.638  52.792  1.00  0.00     0.015 C 
ENDROOT
BRANCH   4   8
HETATM    8  O2  UNL     1      71.749  47.860  50.279  1.00  0.00    -0.369 OA
ATOM      9  H2  UNL     1      70.986  47.834  49.714  1.00  0.00     0.212 HD
ENDBRANCH   4   8
BRANCH   5  10
HETATM   10  O3  UNL     1      69.982  47.167  52.551  1.00  0.00    -0.390 OA
ATOM     11  H3  UNL     1      69.624  46.974  53.410  1.00  0.00     0.210 HD
ENDBRANCH   5  10
TORSDOF 2
ENDMDL
MODEL 4
REMARK VINA RESULT: -4.953820194      2.163      3.173
REMARK  2 active torsions:
REMARK  status: ('A' for Active; 'I' for Inactive)
REMARK    1  A    between atoms: C3_4  and  O2_5 
REMARK    2  A    between atoms: C4_7  and  O3_8 
ROOT
HETATM    1  C1  UNL     1      74.406  45.259  53.581  1.00  0.00     0.040 C 
HETATM    2  C2  UNL     1      73.606  45.172  52.312  1.00  0.00     0.127 C 
HETATM    3  O1  UNL     1      74.247  45.743  51.224  1.00  0.00    -0.353 OA
HETATM    4  C3  UNL     1      73.188  46.075  50.359  1.00  0.00     0.286 C 
HETATM    5  C4  UNL     1      72.352  46.905  51.332  1.00  0.00     0.179 C 
HETATM    6  C5  UNL     1      72.281  45.880  52.473  1.00  0.00     0.044 C 
HETATM    7  C6  UNL     1      71.177  44.890  52.131  1.00  0.00     0.015 C 
ENDROOT
BRANCH   4   8
HETATM    8  O2  UNL     1      73.588  46.787  49.263  1.00  0.00    -0.369 OA
ATOM      9  H2  UNL     1      73.559  47.727  49.394  1.00  0.00     0.212 HD
ENDBRANCH   4   8
BRANCH   5  10
HETATM   10  O3  UNL     1      71.113  47.213  50.832  1.00  0.00    -0.390 OA
ATOM     11  H3  UNL     1      70.787  48.046  51.152  1.00  0.00     0.210 HD
ENDBRANCH   5  10
TORSDOF 2
ENDMDL
MODEL 5
REMARK VINA RESULT: -4.935355887      1.913      2.907
REMARK  2 active torsions:
REMARK  status: ('A' for Active; 'I' for Inactive)
REMARK    1  A    between atoms: C3_4  and  O2_5 
REMARK    2  A    between atoms: C4_7  and  O3_8 
ROOT
HETATM    1  C1  UNL     1      73.675  43.532  51.577  1.00  0.00     0.040 C 
HETATM    2  C2  UNL     1      72.914  44.352  52.581  1.00  0.00     0.127 C 
HETATM    3  O1  UNL     1      72.289  43.583  53.551  1.00  0.00    -0.353 OA
HETATM    4  C3  UNL     1      71.234  44.405  53.988  1.00  0.00     0.286 C 
HETATM    5  C4  UNL     1      70.584  44.682  52.633  1.00  0.00     0.179 C 
HETATM    6  C5  UNL     1      71.842  45.165  51.895  1.00  0.00     0.044 C 
HETATM    7  C6  UNL     1      72.056  46.627  52.262  1.00  0.00     0.015 C 
ENDROOT
BRANCH   4   8
HETATM    8  O2  UNL     1      70.390  43.781  54.863  1.00  0.00    -0.369 OA
ATOM      9  H2  UNL     1      70.092  44.347  55.565  1.00  0.00     0.212 HD
ENDBRANCH   4   8
BRANCH   5  10
HETATM   10  O3  UNL     1      69.617  45.651  52.701  1.00  0.00    -0.390 OA
ATOM     11  H3  UNL     1      69.474  45.963  53.587  1.00  0.00     0.210 HD
ENDBRANCH   5  10
TORSDOF 2
ENDMDL
