MODEL 1
REMARK VINA RESULT: -7.828647705      0.000      0.000
REMARK  8 active torsions:
REMARK  status: ('A' for Active; 'I' for Inactive)
REMARK    1  A    between atoms: C4_4  and  C5_5 
REMARK    2  A    between atoms: C5_5  and  N1_6 
REMARK    3  A    between atoms: C5_5  and  C9_22 
REMARK    4  A    between atoms: N1_6  and  C6_7 
REMARK    5  A    between atoms: C7_10  and  N3_11 
REMARK    6  A    between atoms: C8_16  and  N5_17 
REMARK    7  A    between atoms: C13_30  and  N8_31 
REMARK    8  A    between atoms: N10_37  and  O6_38 
ROOT
HETATM    1  C1  UNL     1      83.661  33.719  55.838  1.00  0.00     0.055 C 
HETATM    2  C2  UNL     1      84.725  34.675  55.677  1.00  0.00     0.021 C 
HETATM    3  C3  UNL     1      84.273  35.866  55.129  1.00  0.00     0.004 C 
HETATM    4  C4  UNL     1      83.307  35.988  54.142  1.00  0.00     0.037 C 
HETATM    5  C10 UNL     1      84.932  37.071  55.504  1.00  0.00     0.080 A 
HETATM    6  C11 UNL     1      84.295  38.261  55.597  1.00  0.00     0.036 A 
HETATM    7  C12 UNL     1      82.874  38.469  55.332  1.00  0.00     0.070 C 
HETATM    8  N7  UNL     1      85.234  39.172  55.979  1.00  0.00    -0.324 N 
ATOM      9  H7  UNL     1      85.061  40.164  56.134  1.00  0.00     0.169 HD
HETATM   10  C13 UNL     1      86.448  38.548  56.123  1.00  0.00     0.261 A 
HETATM   11  N9  UNL     1      86.269  37.260  55.830  1.00  0.00    -0.225 N 
HETATM   12  C14 UNL     1      87.206  36.309  55.790  1.00  0.00     0.363 C 
HETATM   13  O5  UNL     1      88.310  36.756  55.376  1.00  0.00    -0.243 OA
HETATM   14  N10 UNL     1      87.110  35.012  56.118  1.00  0.00    -0.133 N 
HETATM   15  C15 UNL     1      86.007  34.293  56.087  1.00  0.00     0.282 C 
HETATM   16  O7  UNL     1      86.091  33.111  56.468  1.00  0.00    -0.265 OA
ENDROOT
BRANCH   4  17
HETATM   17  C5  UNL     1      81.914  35.783  53.807  1.00  0.00     0.291 C 
BRANCH  17  18
HETATM   18  N1  UNL     1      81.615  36.229  52.529  1.00  0.00    -0.394 NA
BRANCH  18  19
HETATM   19  C6  UNL     1      81.356  36.588  51.452  1.00  0.00     0.283 A 
HETATM   20  N2  UNL     1      82.288  37.049  50.540  1.00  0.00    -0.148 N 
HETATM   21  C7  UNL     1      81.973  37.456  49.316  1.00  0.00     0.694 A 
ATOM     22  H2  UNL     1      83.267  37.078  50.822  1.00  0.00     0.188 HD
HETATM   23  N4  UNL     1      80.692  37.429  48.916  1.00  0.00    -0.023 N 
HETATM   24  C8  UNL     1      79.738  36.989  49.760  1.00  0.00     0.694 A 
ATOM     25  H4  UNL     1      80.441  37.740  47.978  1.00  0.00     0.203 HD
HETATM   26  N6  UNL     1      80.061  36.585  50.983  1.00  0.00    -0.148 N 
ATOM     27  H6  UNL     1      79.319  36.257  51.601  1.00  0.00     0.188 HD
BRANCH  21  28
HETATM   28  N3  UNL     1      82.891  37.884  48.488  1.00  0.00    -0.234 N 
ATOM     29  H32 UNL     1      83.830  37.488  48.538  1.00  0.00     0.174 HD
ATOM     30  H31 UNL     1      82.684  38.604  47.796  1.00  0.00     0.174 HD
ENDBRANCH  21  28
BRANCH  24  31
HETATM   31  N5  UNL     1      78.499  36.962  49.378  1.00  0.00    -0.234 N 
ATOM     32  H52 UNL     1      78.146  37.683  48.749  1.00  0.00     0.174 HD
ATOM     33  H51 UNL     1      77.882  36.220  49.708  1.00  0.00     0.174 HD
ENDBRANCH  24  31
ENDBRANCH  18  19
ENDBRANCH  17  18
BRANCH  17  34
HETATM   34  C9  UNL     1      81.466  34.336  53.521  1.00  0.00     0.214 C 
HETATM   35  O1  UNL     1      80.382  33.961  53.983  1.00  0.00    -0.645 OA
HETATM   36  O2  UNL     1      82.297  33.514  52.762  1.00  0.00    -0.645 OA
ENDBRANCH  17  34
ENDBRANCH   4  17
BRANCH  14  37
HETATM   37  O6  UNL     1      88.294  34.442  56.501  1.00  0.00    -0.276 OA
ATOM     38  H6  UNL     1      88.781  34.044  55.790  1.00  0.00     0.245 HD
ENDBRANCH  14  37
BRANCH  10  39
HETATM   39  N8  UNL     1      87.627  39.195  56.516  1.00  0.00    -0.078 N 
HETATM   40  O3  UNL     1      88.088  40.027  55.658  1.00  0.00    -0.529 OA
HETATM   41  O4  UNL     1      88.383  39.105  57.623  1.00  0.00    -0.529 OA
ENDBRANCH  10  39
TORSDOF 8
ENDMDL
MODEL 2
REMARK VINA RESULT: -7.750175963      2.112      4.379
REMARK  8 active torsions:
REMARK  status: ('A' for Active; 'I' for Inactive)
REMARK    1  A    between atoms: C4_4  and  C5_5 
REMARK    2  A    between atoms: C5_5  and  N1_6 
REMARK    3  A    between atoms: C5_5  and  C9_22 
REMARK    4  A    between atoms: N1_6  and  C6_7 
REMARK    5  A    between atoms: C7_10  and  N3_11 
REMARK    6  A    between atoms: C8_16  and  N5_17 
REMARK    7  A    between atoms: C13_30  and  N8_31 
REMARK    8  A    between atoms: N10_37  and  O6_38 
ROOT
HETATM    1  C1  UNL     1      83.168  38.442  53.781  1.00  0.00     0.055 C 
HETATM    2  C2  UNL     1      83.665  37.313  54.524  1.00  0.00     0.021 C 
HETATM    3  C3  UNL     1      82.656  36.414  54.837  1.00  0.00     0.004 C 
HETATM    4  C4  UNL     1      81.359  36.745  55.195  1.00  0.00     0.037 C 
HETATM    5  C10 UNL     1      82.992  35.033  54.929  1.00  0.00     0.080 A 
HETATM    6  C11 UNL     1      82.132  34.043  54.597  1.00  0.00     0.036 A 
HETATM    7  C12 UNL     1      80.771  34.248  54.110  1.00  0.00     0.070 C 
HETATM    8  N7  UNL     1      82.795  32.871  54.809  1.00  0.00    -0.324 N 
ATOM      9  H7  UNL     1      82.409  31.941  54.650  1.00  0.00     0.169 HD
HETATM   10  C13 UNL     1      84.061  33.135  55.268  1.00  0.00     0.261 A 
HETATM   11  N9  UNL     1      84.186  34.460  55.347  1.00  0.00    -0.225 N 
HETATM   12  C14 UNL     1      85.242  35.140  55.801  1.00  0.00     0.363 C 
HETATM   13  O5  UNL     1      85.814  34.538  56.749  1.00  0.00    -0.243 OA
HETATM   14  N10 UNL     1      85.729  36.320  55.389  1.00  0.00    -0.133 N 
HETATM   15  C15 UNL     1      85.035  37.275  54.805  1.00  0.00     0.282 C 
HETATM   16  O7  UNL     1      85.660  38.290  54.448  1.00  0.00    -0.265 OA
ENDROOT
BRANCH   4  17
HETATM   17  C5  UNL     1      80.120  37.350  54.755  1.00  0.00     0.291 C 
BRANCH  17  18
HETATM   18  N1  UNL     1      79.961  37.266  53.380  1.00  0.00    -0.394 NA
BRANCH  18  19
HETATM   19  C6  UNL     1      79.814  37.208  52.226  1.00  0.00     0.283 A 
HETATM   20  N2  UNL     1      78.836  36.456  51.602  1.00  0.00    -0.148 N 
HETATM   21  C7  UNL     1      78.684  36.401  50.284  1.00  0.00     0.694 A 
ATOM     22  H2  UNL     1      78.196  35.916  52.185  1.00  0.00     0.188 HD
HETATM   23  N4  UNL     1      79.511  37.102  49.491  1.00  0.00    -0.023 N 
HETATM   24  C8  UNL     1      80.485  37.855  50.041  1.00  0.00     0.694 A 
ATOM     25  H4  UNL     1      79.402  37.066  48.478  1.00  0.00     0.203 HD
HETATM   26  N6  UNL     1      80.629  37.904  51.360  1.00  0.00    -0.148 N 
ATOM     27  H6  UNL     1      81.375  38.481  51.748  1.00  0.00     0.188 HD
BRANCH  21  28
HETATM   28  N3  UNL     1      77.742  35.675  49.741  1.00  0.00    -0.234 N 
ATOM     29  H32 UNL     1      77.047  36.126  49.145  1.00  0.00     0.174 HD
ATOM     30  H31 UNL     1      77.691  34.669  49.901  1.00  0.00     0.174 HD
ENDBRANCH  21  28
BRANCH  24  31
HETATM   31  N5  UNL     1      81.285  38.533  49.278  1.00  0.00    -0.234 N 
ATOM     32  H52 UNL     1      81.927  38.045  48.655  1.00  0.00     0.174 HD
ATOM     33  H51 UNL     1      81.269  39.552  49.305  1.00  0.00     0.174 HD
ENDBRANCH  24  31
ENDBRANCH  18  19
ENDBRANCH  17  18
BRANCH  17  34
HETATM   34  C9  UNL     1      78.817  36.584  55.058  1.00  0.00     0.214 C 
HETATM   35  O1  UNL     1      78.780  35.879  56.072  1.00  0.00    -0.645 OA
HETATM   36  O2  UNL     1      77.742  36.713  54.178  1.00  0.00    -0.645 OA
ENDBRANCH  17  34
ENDBRANCH   4  17
BRANCH  14  37
HETATM   37  O6  UNL     1      87.066  36.489  55.632  1.00  0.00    -0.276 OA
ATOM     38  H6  UNL     1      87.531  36.948  54.942  1.00  0.00     0.245 HD
ENDBRANCH  14  37
BRANCH  10  39
HETATM   39  N8  UNL     1      85.011  32.152  55.577  1.00  0.00    -0.078 N 
HETATM   40  O3  UNL     1      85.904  31.975  54.676  1.00  0.00    -0.529 OA
HETATM   41  O4  UNL     1      85.164  31.343  56.639  1.00  0.00    -0.529 OA
ENDBRANCH  10  39
TORSDOF 8
ENDMDL
MODEL 3
REMARK VINA RESULT: -7.704467633      0.068      1.408
REMARK  8 active torsions:
REMARK  status: ('A' for Active; 'I' for Inactive)
REMARK    1  A    between atoms: C4_4  and  C5_5 
REMARK    2  A    between atoms: C5_5  and  N1_6 
REMARK    3  A    between atoms: C5_5  and  C9_22 
REMARK    4  A    between atoms: N1_6  and  C6_7 
REMARK    5  A    between atoms: C7_10  and  N3_11 
REMARK    6  A    between atoms: C8_16  and  N5_17 
REMARK    7  A    between atoms: C13_30  and  N8_31 
REMARK    8  A    between atoms: N10_37  and  O6_38 
ROOT
HETATM    1  C1  UNL     1      83.650  33.702  55.865  1.00  0.00     0.055 C 
HETATM    2  C2  UNL     1      84.706  34.666  55.690  1.00  0.00     0.021 C 
HETATM    3  C3  UNL     1      84.240  35.852  55.143  1.00  0.00     0.004 C 
HETATM    4  C4  UNL     1      83.263  35.964  54.165  1.00  0.00     0.037 C 
HETATM    5  C10 UNL     1      84.895  37.063  55.508  1.00  0.00     0.080 A 
HETATM    6  C11 UNL     1      84.250  38.249  55.604  1.00  0.00     0.036 A 
HETATM    7  C12 UNL     1      82.825  38.446  55.352  1.00  0.00     0.070 C 
HETATM    8  N7  UNL     1      85.186  39.167  55.973  1.00  0.00    -0.324 N 
ATOM      9  H7  UNL     1      85.008  40.159  56.127  1.00  0.00     0.169 HD
HETATM   10  C13 UNL     1      86.406  38.552  56.107  1.00  0.00     0.261 A 
HETATM   11  N9  UNL     1      86.234  37.262  55.820  1.00  0.00    -0.225 N 
HETATM   12  C14 UNL     1      87.177  36.317  55.773  1.00  0.00     0.363 C 
HETATM   13  O5  UNL     1      88.273  36.770  55.347  1.00  0.00    -0.243 OA
HETATM   14  N10 UNL     1      87.092  35.020  56.106  1.00  0.00    -0.133 N 
HETATM   15  C15 UNL     1      85.994  34.293  56.089  1.00  0.00     0.282 C 
HETATM   16  O7  UNL     1      86.091  33.114  56.473  1.00  0.00    -0.265 OA
ENDROOT
BRANCH   4  17
HETATM   17  C5  UNL     1      81.868  35.748  53.846  1.00  0.00     0.291 C 
BRANCH  17  18
HETATM   18  N1  UNL     1      81.549  36.207  52.577  1.00  0.00    -0.394 NA
BRANCH  18  19
HETATM   19  C6  UNL     1      81.280  36.575  51.505  1.00  0.00     0.283 A 
HETATM   20  N2  UNL     1      80.003  36.558  50.974  1.00  0.00    -0.148 N 
HETATM   21  C7  UNL     1      79.715  36.981  49.749  1.00  0.00     0.694 A 
ATOM     22  H2  UNL     1      79.243  36.202  51.554  1.00  0.00     0.188 HD
HETATM   23  N4  UNL     1      80.695  37.455  48.963  1.00  0.00    -0.023 N 
HETATM   24  C8  UNL     1      81.960  37.498  49.425  1.00  0.00     0.694 A 
ATOM     25  H4  UNL     1      80.483  37.782  48.021  1.00  0.00     0.203 HD
HETATM   26  N6  UNL     1      82.239  37.072  50.652  1.00  0.00    -0.148 N 
ATOM     27  H6  UNL     1      83.206  37.115  50.975  1.00  0.00     0.188 HD
BRANCH  21  28
HETATM   28  N3  UNL     1      78.491  36.945  49.291  1.00  0.00    -0.234 N 
ATOM     29  H32 UNL     1      77.782  36.423  49.806  1.00  0.00     0.174 HD
ATOM     30  H31 UNL     1      78.234  37.428  48.430  1.00  0.00     0.174 HD
ENDBRANCH  21  28
BRANCH  24  31
HETATM   31  N5  UNL     1      82.909  37.955  48.669  1.00  0.00    -0.234 N 
ATOM     32  H52 UNL     1      82.872  38.918  48.334  1.00  0.00     0.174 HD
ATOM     33  H51 UNL     1      83.689  37.351  48.412  1.00  0.00     0.174 HD
ENDBRANCH  24  31
ENDBRANCH  18  19
ENDBRANCH  17  18
BRANCH  17  34
HETATM   34  C9  UNL     1      81.432  34.300  53.547  1.00  0.00     0.214 C 
HETATM   35  O1  UNL     1      80.344  33.918  53.991  1.00  0.00    -0.645 OA
HETATM   36  O2  UNL     1      82.279  33.485  52.797  1.00  0.00    -0.645 OA
ENDBRANCH  17  34
ENDBRANCH   4  17
BRANCH  14  37
HETATM   37  O6  UNL     1      88.284  34.460  56.480  1.00  0.00    -0.276 OA
ATOM     38  H6  UNL     1      88.311  34.170  57.384  1.00  0.00     0.245 HD
ENDBRANCH  14  37
BRANCH  10  39
HETATM   39  N8  UNL     1      87.585  39.208  56.485  1.00  0.00    -0.078 N 
HETATM   40  O3  UNL     1      88.024  40.050  55.626  1.00  0.00    -0.529 OA
HETATM   41  O4  UNL     1      88.359  39.118  57.580  1.00  0.00    -0.529 OA
ENDBRANCH  10  39
TORSDOF 8
ENDMDL
MODEL 4
REMARK VINA RESULT: -7.543211820      0.892      1.071
REMARK  8 active torsions:
REMARK  status: ('A' for Active; 'I' for Inactive)
REMARK    1  A    between atoms: C4_4  and  C5_5 
REMARK    2  A    between atoms: C5_5  and  N1_6 
REMARK    3  A    between atoms: C5_5  and  C9_22 
REMARK    4  A    between atoms: N1_6  and  C6_7 
REMARK    5  A    between atoms: C7_10  and  N3_11 
REMARK    6  A    between atoms: C8_16  and  N5_17 
REMARK    7  A    between atoms: C13_30  and  N8_31 
REMARK    8  A    between atoms: N10_37  and  O6_38 
ROOT
HETATM    1  C1  UNL     1      83.176  34.879  56.778  1.00  0.00     0.055 C 
HETATM    2  C2  UNL     1      84.387  35.496  56.302  1.00  0.00     0.021 C 
HETATM    3  C3  UNL     1      84.149  36.354  55.239  1.00  0.00     0.004 C 
HETATM    4  C4  UNL     1      83.233  36.143  54.218  1.00  0.00     0.037 C 
HETATM    5  C10 UNL     1      84.992  37.491  55.090  1.00  0.00     0.080 A 
HETATM    6  C11 UNL     1      84.560  38.667  54.580  1.00  0.00     0.036 A 
HETATM    7  C12 UNL     1      83.198  38.927  54.121  1.00  0.00     0.070 C 
HETATM    8  N7  UNL     1      85.630  39.510  54.596  1.00  0.00    -0.324 N 
ATOM      9  H7  UNL     1      85.622  40.477  54.271  1.00  0.00     0.169 HD
HETATM   10  C13 UNL     1      86.722  38.859  55.115  1.00  0.00     0.261 A 
HETATM   11  N9  UNL     1      86.337  37.619  55.417  1.00  0.00    -0.225 N 
HETATM   12  C14 UNL     1      87.103  36.635  55.895  1.00  0.00     0.363 C 
HETATM   13  O5  UNL     1      88.272  36.683  55.427  1.00  0.00    -0.243 OA
HETATM   14  N10 UNL     1      86.786  35.661  56.761  1.00  0.00    -0.133 N 
HETATM   15  C15 UNL     1      85.580  35.170  56.956  1.00  0.00     0.282 C 
HETATM   16  O7  UNL     1      85.461  34.296  57.834  1.00  0.00    -0.265 OA
ENDROOT
BRANCH   4  17
HETATM   17  C5  UNL     1      81.831  36.004  53.887  1.00  0.00     0.291 C 
BRANCH  17  18
HETATM   18  N1  UNL     1      81.572  36.357  52.571  1.00  0.00    -0.394 NA
BRANCH  18  19
HETATM   19  C6  UNL     1      81.345  36.668  51.472  1.00  0.00     0.283 A 
HETATM   20  N2  UNL     1      82.302  37.093  50.569  1.00  0.00    -0.148 N 
HETATM   21  C7  UNL     1      82.024  37.445  49.320  1.00  0.00     0.694 A 
ATOM     22  H2  UNL     1      83.273  37.139  50.880  1.00  0.00     0.188 HD
HETATM   23  N4  UNL     1      80.756  37.396  48.883  1.00  0.00    -0.023 N 
HETATM   24  C8  UNL     1      79.778  36.990  49.717  1.00  0.00     0.694 A 
ATOM     25  H4  UNL     1      80.533  37.665  47.925  1.00  0.00     0.203 HD
HETATM   26  N6  UNL     1      80.065  36.639  50.965  1.00  0.00    -0.148 N 
ATOM     27  H6  UNL     1      79.305  36.336  51.574  1.00  0.00     0.188 HD
BRANCH  21  28
HETATM   28  N3  UNL     1      82.966  37.841  48.503  1.00  0.00    -0.234 N 
ATOM     29  H32 UNL     1      83.593  37.148  48.094  1.00  0.00     0.174 HD
ATOM     30  H31 UNL     1      83.082  38.827  48.268  1.00  0.00     0.174 HD
ENDBRANCH  21  28
BRANCH  24  31
HETATM   31  N5  UNL     1      78.551  36.941  49.298  1.00  0.00    -0.234 N 
ATOM     32  H52 UNL     1      78.111  37.778  48.918  1.00  0.00     0.174 HD
ATOM     33  H51 UNL     1      78.031  36.065  49.352  1.00  0.00     0.174 HD
ENDBRANCH  24  31
ENDBRANCH  18  19
ENDBRANCH  17  18
BRANCH  17  34
HETATM   34  C9  UNL     1      81.287  34.572  53.720  1.00  0.00     0.214 C 
HETATM   35  O1  UNL     1      82.090  33.674  53.443  1.00  0.00    -0.645 OA
HETATM   36  O2  UNL     1      79.920  34.350  53.883  1.00  0.00    -0.645 OA
ENDBRANCH  17  34
ENDBRANCH   4  17
BRANCH  14  37
HETATM   37  O6  UNL     1      87.852  35.171  57.466  1.00  0.00    -0.276 OA
ATOM     38  H6  UNL     1      87.915  35.499  58.355  1.00  0.00     0.245 HD
ENDBRANCH  14  37
BRANCH  10  39
HETATM   39  N8  UNL     1      87.985  39.442  55.281  1.00  0.00    -0.078 N 
HETATM   40  O3  UNL     1      88.619  39.655  54.189  1.00  0.00    -0.529 OA
HETATM   41  O4  UNL     1      88.673  39.815  56.373  1.00  0.00    -0.529 OA
ENDBRANCH  10  39
TORSDOF 8
ENDMDL
MODEL 5
REMARK VINA RESULT: -7.232377079      1.549      2.275
REMARK  8 active torsions:
REMARK  status: ('A' for Active; 'I' for Inactive)
REMARK    1  A    between atoms: C4_4  and  C5_5 
REMARK    2  A    between atoms: C5_5  and  N1_6 
REMARK    3  A    between atoms: C5_5  and  C9_22 
REMARK    4  A    between atoms: N1_6  and  C6_7 
REMARK    5  A    between atoms: C7_10  and  N3_11 
REMARK    6  A    between atoms: C8_16  and  N5_17 
REMARK    7  A    between atoms: C13_30  and  N8_31 
REMARK    8  A    between atoms: N10_37  and  O6_38 
ROOT
HETATM    1  C1  UNL     1      82.514  36.057  57.537  1.00  0.00     0.055 C 
HETATM    2  C2  UNL     1      83.846  36.045  56.989  1.00  0.00     0.021 C 
HETATM    3  C3  UNL     1      83.881  36.560  55.702  1.00  0.00     0.004 C 
HETATM    4  C4  UNL     1      82.913  36.372  54.727  1.00  0.00     0.037 C 
HETATM    5  C10 UNL     1      85.062  37.236  55.281  1.00  0.00     0.080 A 
HETATM    6  C11 UNL     1      85.047  38.271  54.410  1.00  0.00     0.036 A 
HETATM    7  C12 UNL     1      83.844  38.825  53.794  1.00  0.00     0.070 C 
HETATM    8  N7  UNL     1      86.343  38.658  54.250  1.00  0.00    -0.324 N 
ATOM      9  H7  UNL     1      86.660  39.419  53.650  1.00  0.00     0.169 HD
HETATM   10  C13 UNL     1      87.158  37.867  55.021  1.00  0.00     0.261 A 
HETATM   11  N9  UNL     1      86.378  36.991  55.653  1.00  0.00    -0.225 N 
HETATM   12  C14 UNL     1      86.771  36.002  56.460  1.00  0.00     0.363 C 
HETATM   13  O5  UNL     1      87.866  35.501  56.088  1.00  0.00    -0.243 OA
HETATM   14  N10 UNL     1      86.167  35.512  57.554  1.00  0.00    -0.133 N 
HETATM   15  C15 UNL     1      84.874  35.548  57.797  1.00  0.00     0.282 C 
HETATM   16  O7  UNL     1      84.490  35.083  58.886  1.00  0.00    -0.265 OA
ENDROOT
BRANCH   4  17
HETATM   17  C5  UNL     1      81.539  36.626  54.350  1.00  0.00     0.291 C 
BRANCH  17  18
HETATM   18  N1  UNL     1      81.395  36.766  52.978  1.00  0.00    -0.394 NA
BRANCH  18  19
HETATM   19  C6  UNL     1      81.258  36.875  51.826  1.00  0.00     0.283 A 
HETATM   20  N2  UNL     1      80.035  36.854  51.182  1.00  0.00    -0.148 N 
HETATM   21  C7  UNL     1      79.898  36.979  49.868  1.00  0.00     0.694 A 
ATOM     22  H2  UNL     1      79.193  36.737  51.747  1.00  0.00     0.188 HD
HETATM   23  N4  UNL     1      80.988  37.134  49.099  1.00  0.00    -0.023 N 
HETATM   24  C8  UNL     1      82.209  37.162  49.669  1.00  0.00     0.694 A 
ATOM     25  H4  UNL     1      80.892  37.230  48.088  1.00  0.00     0.203 HD
HETATM   26  N6  UNL     1      82.336  37.037  50.985  1.00  0.00    -0.148 N 
ATOM     27  H6  UNL     1      83.272  37.061  51.389  1.00  0.00     0.188 HD
BRANCH  21  28
HETATM   28  N3  UNL     1      78.718  36.953  49.304  1.00  0.00    -0.234 N 
ATOM     29  H32 UNL     1      78.422  36.113  48.807  1.00  0.00     0.174 HD
ATOM     30  H31 UNL     1      78.091  37.756  49.353  1.00  0.00     0.174 HD
ENDBRANCH  21  28
BRANCH  24  31
HETATM   31  N5  UNL     1      83.263  37.312  48.930  1.00  0.00    -0.234 N 
ATOM     32  H52 UNL     1      84.113  37.710  49.331  1.00  0.00     0.174 HD
ATOM     33  H51 UNL     1      83.241  37.033  47.949  1.00  0.00     0.174 HD
ENDBRANCH  24  31
ENDBRANCH  18  19
ENDBRANCH  17  18
BRANCH  17  34
HETATM   34  C9  UNL     1      80.555  35.442  54.438  1.00  0.00     0.214 C 
HETATM   35  O1  UNL     1      81.002  34.341  54.778  1.00  0.00    -0.645 OA
HETATM   36  O2  UNL     1      79.214  35.659  54.128  1.00  0.00    -0.645 OA
ENDBRANCH  17  34
ENDBRANCH   4  17
BRANCH  14  37
HETATM   37  O6  UNL     1      87.022  34.929  58.451  1.00  0.00    -0.276 OA
ATOM     38  H6  UNL     1      87.220  34.019  58.263  1.00  0.00     0.245 HD
ENDBRANCH  14  37
BRANCH  10  39
HETATM   39  N8  UNL     1      88.550  38.003  55.097  1.00  0.00    -0.078 N 
HETATM   40  O3  UNL     1      88.964  38.679  56.103  1.00  0.00    -0.529 OA
HETATM   41  O4  UNL     1      89.547  37.569  54.307  1.00  0.00    -0.529 OA
ENDBRANCH  10  39
TORSDOF 8
ENDMDL
