MODEL 1
REMARK VINA RESULT: -8.219373979      0.000      0.000
REMARK  5 active torsions:
REMARK  status: ('A' for Active; 'I' for Inactive)
REMARK    1  A    between atoms: C2_2  and  N1_3 
REMARK    2  A    between atoms: C3_4  and  O1_5 
REMARK    3  A    between atoms: C6_9  and  O2_10 
REMARK    4  A    between atoms: C7_12  and  O3_13 
REMARK    5  A    between atoms: O3_13  and  C8_14 
REMARK       I    between atoms: C8_14  and  N2_16 
ROOT
HETATM    1  N1  UNL     1      13.114  65.976   5.909  1.00  0.00    -0.308 N 
HETATM    2  C3  UNL     1      13.669  65.761   4.702  1.00  0.00     0.151 A 
HETATM    3  C4  UNL     1      14.870  66.394   4.704  1.00  0.00     0.007 A 
HETATM    4  C5  UNL     1      15.030  66.995   5.937  1.00  0.00     0.033 A 
HETATM    5  C6  UNL     1      13.923  66.722   6.673  1.00  0.00     0.153 A 
HETATM    6  C7  UNL     1      16.313  67.744   6.113  1.00  0.00     0.172 C 
HETATM    7  C11 UNL     1      16.417  68.729   5.009  1.00  0.00     0.046 C 
HETATM    8  C12 UNL     1      16.492  67.993   3.689  1.00  0.00    -0.041 C 
HETATM    9  C13 UNL     1      15.677  68.723   2.616  1.00  0.00     0.015 C 
HETATM   10  C14 UNL     1      17.935  67.958   3.181  1.00  0.00     0.015 C 
HETATM   11  C15 UNL     1      16.004  66.587   3.742  1.00  0.00     0.052 C 
ENDROOT
BRANCH   6  12
HETATM   12  O3  UNL     1      16.469  68.256   7.399  1.00  0.00    -0.294 OA
BRANCH  12  13
HETATM   13  C8  UNL     1      17.492  67.971   8.261  1.00  0.00     0.362 C 
HETATM   14  O4  UNL     1      17.445  66.886   8.893  1.00  0.00    -0.238 OA
HETATM   15  N2  UNL     1      18.567  68.889   8.423  1.00  0.00    -0.337 N 
HETATM   16  C9  UNL     1      19.670  68.631   9.325  1.00  0.00     0.154 C 
HETATM   17  C10 UNL     1      18.580  70.131   7.675  1.00  0.00     0.154 C 
ENDBRANCH  12  13
ENDBRANCH   6  12
BRANCH   5  18
HETATM   18  O2  UNL     1      13.718  67.166   7.988  1.00  0.00    -0.345 OA
ATOM     19  H2  UNL     1      12.909  67.193   8.484  1.00  0.00     0.219 HD
ENDBRANCH   5  18
BRANCH   2  20
HETATM   20  O1  UNL     1      13.153  65.036   3.619  1.00  0.00    -0.345 OA
ATOM     21  H1  UNL     1      12.702  64.200   3.626  1.00  0.00     0.219 HD
ENDBRANCH   2  20
BRANCH   1  22
HETATM   22  C2  UNL     1      11.817  65.471   6.333  1.00  0.00     0.129 C 
HETATM   23  C1  UNL     1      11.769  63.982   6.037  1.00  0.00     0.027 C 
ENDBRANCH   1  22
TORSDOF 5
ENDMDL
MODEL 2
REMARK VINA RESULT: -8.197484798      2.195      5.882
REMARK  5 active torsions:
REMARK  status: ('A' for Active; 'I' for Inactive)
REMARK    1  A    between atoms: C2_2  and  N1_3 
REMARK    2  A    between atoms: C3_4  and  O1_5 
REMARK    3  A    between atoms: C6_9  and  O2_10 
REMARK    4  A    between atoms: C7_12  and  O3_13 
REMARK    5  A    between atoms: O3_13  and  C8_14 
REMARK       I    between atoms: C8_14  and  N2_16 
ROOT
HETATM    1  N1  UNL     1      17.320  68.656   3.100  1.00  0.00    -0.308 N 
HETATM    2  C3  UNL     1      18.315  68.611   4.005  1.00  0.00     0.151 A 
HETATM    3  C4  UNL     1      17.790  68.081   5.140  1.00  0.00     0.007 A 
HETATM    4  C5  UNL     1      16.457  67.807   4.902  1.00  0.00     0.033 A 
HETATM    5  C6  UNL     1      16.185  68.173   3.623  1.00  0.00     0.153 A 
HETATM    6  C7  UNL     1      15.718  67.212   6.059  1.00  0.00     0.172 C 
HETATM    7  C11 UNL     1      15.888  68.121   7.219  1.00  0.00     0.046 C 
HETATM    8  C12 UNL     1      17.353  68.183   7.593  1.00  0.00    -0.041 C 
HETATM    9  C13 UNL     1      17.750  69.611   7.985  1.00  0.00     0.015 C 
HETATM   10  C14 UNL     1      17.626  67.310   8.819  1.00  0.00     0.015 C 
HETATM   11  C15 UNL     1      18.281  67.741   6.515  1.00  0.00     0.052 C 
ENDROOT
BRANCH   6  12
HETATM   12  O3  UNL     1      14.404  66.871   5.744  1.00  0.00    -0.294 OA
BRANCH  12  13
HETATM   13  C8  UNL     1      13.985  65.675   5.228  1.00  0.00     0.362 C 
HETATM   14  O4  UNL     1      14.764  65.060   4.458  1.00  0.00    -0.238 OA
HETATM   15  N2  UNL     1      12.702  65.163   5.566  1.00  0.00    -0.337 N 
HETATM   16  C9  UNL     1      12.214  63.903   5.043  1.00  0.00     0.154 C 
HETATM   17  C10 UNL     1      11.834  65.907   6.458  1.00  0.00     0.154 C 
ENDBRANCH  12  13
ENDBRANCH   6  12
BRANCH   5  18
HETATM   18  O2  UNL     1      14.928  68.046   3.015  1.00  0.00    -0.345 OA
ATOM     19  H2  UNL     1      14.585  67.317   2.511  1.00  0.00     0.219 HD
ENDBRANCH   5  18
BRANCH   2  20
HETATM   20  O1  UNL     1      19.648  69.018   3.860  1.00  0.00    -0.345 OA
ATOM     21  H1  UNL     1      20.290  69.199   4.537  1.00  0.00     0.219 HD
ENDBRANCH   2  20
BRANCH   1  22
HETATM   22  C2  UNL     1      17.451  69.157   1.741  1.00  0.00     0.129 C 
HETATM   23  C1  UNL     1      17.360  70.673   1.785  1.00  0.00     0.027 C 
ENDBRANCH   1  22
TORSDOF 5
ENDMDL
MODEL 3
REMARK VINA RESULT: -8.166100538      1.104      1.446
REMARK  5 active torsions:
REMARK  status: ('A' for Active; 'I' for Inactive)
REMARK    1  A    between atoms: C2_2  and  N1_3 
REMARK    2  A    between atoms: C3_4  and  O1_5 
REMARK    3  A    between atoms: C6_9  and  O2_10 
REMARK    4  A    between atoms: C7_12  and  O3_13 
REMARK    5  A    between atoms: O3_13  and  C8_14 
REMARK       I    between atoms: C8_14  and  N2_16 
ROOT
HETATM    1  N1  UNL     1      12.773  65.358   5.642  1.00  0.00    -0.308 N 
HETATM    2  C3  UNL     1      13.532  65.232   4.538  1.00  0.00     0.151 A 
HETATM    3  C4  UNL     1      14.577  66.088   4.680  1.00  0.00     0.007 A 
HETATM    4  C5  UNL     1      14.433  66.735   5.892  1.00  0.00     0.033 A 
HETATM    5  C6  UNL     1      13.301  66.265   6.476  1.00  0.00     0.153 A 
HETATM    6  C7  UNL     1      15.508  67.724   6.212  1.00  0.00     0.172 C 
HETATM    7  C11 UNL     1      15.585  68.688   5.086  1.00  0.00     0.046 C 
HETATM    8  C12 UNL     1      15.996  67.953   3.829  1.00  0.00    -0.041 C 
HETATM    9  C13 UNL     1      15.225  68.487   2.615  1.00  0.00     0.015 C 
HETATM   10  C14 UNL     1      17.478  68.192   3.534  1.00  0.00     0.015 C 
HETATM   11  C15 UNL     1      15.784  66.480   3.881  1.00  0.00     0.052 C 
ENDROOT
BRANCH   6  12
HETATM   12  O3  UNL     1      15.369  68.284   7.480  1.00  0.00    -0.294 OA
BRANCH  12  13
HETATM   13  C8  UNL     1      16.306  69.035   8.136  1.00  0.00     0.362 C 
HETATM   14  O4  UNL     1      16.134  70.278   8.188  1.00  0.00    -0.238 OA
HETATM   15  N2  UNL     1      17.434  68.406   8.733  1.00  0.00    -0.337 N 
HETATM   16  C9  UNL     1      18.452  69.160   9.435  1.00  0.00     0.154 C 
HETATM   17  C10 UNL     1      17.594  66.968   8.648  1.00  0.00     0.154 C 
ENDBRANCH  12  13
ENDBRANCH   6  12
BRANCH   5  18
HETATM   18  O2  UNL     1      12.821  66.687   7.724  1.00  0.00    -0.345 OA
ATOM     19  H2  UNL     1      13.304  66.807   8.534  1.00  0.00     0.219 HD
ENDBRANCH   5  18
BRANCH   2  20
HETATM   20  O1  UNL     1      13.333  64.397   3.430  1.00  0.00    -0.345 OA
ATOM     21  H1  UNL     1      13.823  64.363   2.618  1.00  0.00     0.219 HD
ENDBRANCH   2  20
BRANCH   1  22
HETATM   22  C2  UNL     1      11.548  64.618   5.901  1.00  0.00     0.129 C 
HETATM   23  C1  UNL     1      10.518  65.029   4.862  1.00  0.00     0.027 C 
ENDBRANCH   1  22
TORSDOF 5
ENDMDL
MODEL 4
REMARK VINA RESULT: -8.084531021      2.178      5.789
REMARK  5 active torsions:
REMARK  status: ('A' for Active; 'I' for Inactive)
REMARK    1  A    between atoms: C2_2  and  N1_3 
REMARK    2  A    between atoms: C3_4  and  O1_5 
REMARK    3  A    between atoms: C6_9  and  O2_10 
REMARK    4  A    between atoms: C7_12  and  O3_13 
REMARK    5  A    between atoms: O3_13  and  C8_14 
REMARK       I    between atoms: C8_14  and  N2_16 
ROOT
HETATM    1  N1  UNL     1      17.783  68.492   3.209  1.00  0.00    -0.308 N 
HETATM    2  C3  UNL     1      18.727  68.350   4.158  1.00  0.00     0.151 A 
HETATM    3  C4  UNL     1      18.078  68.071   5.318  1.00  0.00     0.007 A 
HETATM    4  C5  UNL     1      16.724  68.048   5.051  1.00  0.00     0.033 A 
HETATM    5  C6  UNL     1      16.561  68.313   3.730  1.00  0.00     0.153 A 
HETATM    6  C7  UNL     1      15.852  67.751   6.231  1.00  0.00     0.172 C 
HETATM    7  C11 UNL     1      16.181  68.733   7.294  1.00  0.00     0.046 C 
HETATM    8  C12 UNL     1      17.619  68.538   7.724  1.00  0.00    -0.041 C 
HETATM    9  C13 UNL     1      18.293  69.891   7.979  1.00  0.00     0.015 C 
HETATM   10  C14 UNL     1      17.678  67.774   9.048  1.00  0.00     0.015 C 
HETATM   11  C15 UNL     1      18.458  67.797   6.743  1.00  0.00     0.052 C 
ENDROOT
BRANCH   6  12
HETATM   12  O3  UNL     1      14.504  67.650   5.896  1.00  0.00    -0.294 OA
BRANCH  12  13
HETATM   13  C8  UNL     1      13.620  66.726   6.384  1.00  0.00     0.362 C 
HETATM   14  O4  UNL     1      13.173  66.895   7.546  1.00  0.00    -0.238 OA
HETATM   15  N2  UNL     1      13.233  65.615   5.584  1.00  0.00    -0.337 N 
HETATM   16  C9  UNL     1      12.303  64.612   6.058  1.00  0.00     0.154 C 
HETATM   17  C10 UNL     1      13.775  65.459   4.248  1.00  0.00     0.154 C 
ENDBRANCH  12  13
ENDBRANCH   6  12
BRANCH   5  18
HETATM   18  O2  UNL     1      15.318  68.375   3.083  1.00  0.00    -0.345 OA
ATOM     19  H2  UNL     1      15.036  68.971   2.400  1.00  0.00     0.219 HD
ENDBRANCH   5  18
BRANCH   2  20
HETATM   20  O1  UNL     1      20.118  68.458   4.030  1.00  0.00    -0.345 OA
ATOM     21  H1  UNL     1      20.768  68.582   4.712  1.00  0.00     0.219 HD
ENDBRANCH   2  20
BRANCH   1  22
HETATM   22  C2  UNL     1      18.044  68.798   1.812  1.00  0.00     0.129 C 
HETATM   23  C1  UNL     1      17.954  70.304   1.632  1.00  0.00     0.027 C 
ENDBRANCH   1  22
TORSDOF 5
ENDMDL
MODEL 5
REMARK VINA RESULT: -7.895188397      2.268      4.238
REMARK  5 active torsions:
REMARK  status: ('A' for Active; 'I' for Inactive)
REMARK    1  A    between atoms: C2_2  and  N1_3 
REMARK    2  A    between atoms: C3_4  and  O1_5 
REMARK    3  A    between atoms: C6_9  and  O2_10 
REMARK    4  A    between atoms: C7_12  and  O3_13 
REMARK    5  A    between atoms: O3_13  and  C8_14 
REMARK       I    between atoms: C8_14  and  N2_16 
ROOT
HETATM    1  N1  UNL     1      13.446  65.809   5.569  1.00  0.00    -0.308 N 
HETATM    2  C3  UNL     1      13.498  66.590   6.664  1.00  0.00     0.151 A 
HETATM    3  C4  UNL     1      14.551  67.431   6.497  1.00  0.00     0.007 A 
HETATM    4  C5  UNL     1      15.134  67.142   5.279  1.00  0.00     0.033 A 
HETATM    5  C6  UNL     1      14.430  66.127   4.717  1.00  0.00     0.153 A 
HETATM    6  C7  UNL     1      16.322  67.984   4.932  1.00  0.00     0.172 C 
HETATM    7  C11 UNL     1      17.297  67.870   6.044  1.00  0.00     0.046 C 
HETATM    8  C12 UNL     1      16.684  68.439   7.305  1.00  0.00    -0.041 C 
HETATM    9  C13 UNL     1      17.064  67.586   8.522  1.00  0.00     0.015 C 
HETATM   10  C14 UNL     1      17.231  69.841   7.577  1.00  0.00     0.015 C 
HETATM   11  C15 UNL     1      15.199  68.538   7.275  1.00  0.00     0.052 C 
ENDROOT
BRANCH   6  12
HETATM   12  O3  UNL     1      16.820  67.717   3.659  1.00  0.00    -0.294 OA
BRANCH  12  13
HETATM   13  C8  UNL     1      17.122  68.647   2.701  1.00  0.00     0.362 C 
HETATM   14  O4  UNL     1      16.199  69.027   1.938  1.00  0.00    -0.238 OA
HETATM   15  N2  UNL     1      18.446  69.154   2.590  1.00  0.00    -0.337 N 
HETATM   16  C9  UNL     1      18.812  70.137   1.592  1.00  0.00     0.154 C 
HETATM   17  C10 UNL     1      19.481  68.687   3.492  1.00  0.00     0.154 C 
ENDBRANCH  12  13
ENDBRANCH   6  12
BRANCH   5  18
HETATM   18  O2  UNL     1      14.723  65.557   3.470  1.00  0.00    -0.345 OA
ATOM     19  H2  UNL     1      15.438  65.762   2.879  1.00  0.00     0.219 HD
ENDBRANCH   5  18
BRANCH   2  20
HETATM   20  O1  UNL     1      12.657  66.581   7.786  1.00  0.00    -0.345 OA
ATOM     21  H1  UNL     1      12.494  65.874   8.399  1.00  0.00     0.219 HD
ENDBRANCH   2  20
BRANCH   1  22
HETATM   22  C2  UNL     1      12.462  64.764   5.336  1.00  0.00     0.129 C 
HETATM   23  C1  UNL     1      11.150  65.426   4.952  1.00  0.00     0.027 C 
ENDBRANCH   1  22
TORSDOF 5
ENDMDL
