MODEL 1
REMARK VINA RESULT: -7.214854809      0.000      0.000
REMARK  11 active torsions:
REMARK  status: ('A' for Active; 'I' for Inactive)
REMARK    1  A    between atoms: C2_2  and  C3_3 
REMARK    2  A    between atoms: C3_3  and  C4_5 
REMARK    3  A    between atoms: C4_5  and  N1_6 
REMARK    4  A    between atoms: C6_11  and  C7_12 
REMARK    5  A    between atoms: C7_12  and  C8_13 
REMARK    6  A    between atoms: C8_13  and  C9_14 
REMARK    7  A    between atoms: C9_14  and  N3_15 
REMARK    8  A    between atoms: C12_24  and  C13_25 
REMARK    9  A    between atoms: C13_25  and  C14_26 
REMARK   10  A    between atoms: C14_26  and  C15_27 
REMARK   11  A    between atoms: C15_27  and  N7_28 
ROOT
HETATM    1  N1  UNL     1      29.591   9.922  27.278  1.00  0.00    -0.261 N 
HETATM    2  C5  UNL     1      28.651  10.978  27.399  1.00  0.00     0.326 C 
HETATM    3  O2  UNL     1      29.029  12.016  26.834  1.00  0.00    -0.247 OA
HETATM    4  N2  UNL     1      27.367  11.154  28.009  1.00  0.00    -0.329 N 
ATOM      5  H2  UNL     1      26.806  11.883  27.568  1.00  0.00     0.165 HD
HETATM    6  C6  UNL     1      26.712  10.522  29.105  1.00  0.00     0.178 C 
HETATM    7  C11 UNL     1      27.635   9.743  29.981  1.00  0.00     0.241 C 
HETATM    8  O3  UNL     1      27.820  10.241  31.128  1.00  0.00    -0.271 OA
HETATM    9  N6  UNL     1      28.394   8.542  29.865  1.00  0.00    -0.346 N 
ATOM     10  H6  UNL     1      28.577   8.126  30.777  1.00  0.00     0.163 HD
HETATM   11  C12 UNL     1      28.963   7.768  28.814  1.00  0.00     0.177 C 
HETATM   12  C17 UNL     1      29.624   8.609  27.770  1.00  0.00     0.251 C 
HETATM   13  O4  UNL     1      30.469   7.920  27.145  1.00  0.00    -0.271 OA
ENDROOT
BRANCH   6  14
HETATM   14  C7  UNL     1      26.031  11.536  29.988  1.00  0.00     0.036 C 
BRANCH  14  15
HETATM   15  C8  UNL     1      24.667  11.951  29.501  1.00  0.00     0.022 C 
BRANCH  15  16
HETATM   16  C9  UNL     1      23.765  10.707  29.450  1.00  0.00     0.122 C 
BRANCH  16  17
HETATM   17  N3  UNL     1      23.072  10.621  28.203  1.00  0.00    -0.367 N 
HETATM   18  C10 UNL     1      23.194   9.633  27.402  1.00  0.00     0.196 C 
HETATM   19  N4  UNL     1      22.481   9.598  26.174  1.00  0.00    -0.067 NA
HETATM   20  N5  UNL     1      24.069   8.567  27.786  1.00  0.00    -0.067 NA
ATOM     21  H3  UNL     1      22.451  11.385  27.940  1.00  0.00     0.161 HD
ENDBRANCH  16  17
ENDBRANCH  15  16
ENDBRANCH  14  15
ENDBRANCH   6  14
BRANCH   1  22
HETATM   22  C4  UNL     1      30.728  10.271  26.500  1.00  0.00     0.215 C 
BRANCH  22  23
HETATM   23  C3  UNL     1      31.875  10.768  27.247  1.00  0.00     0.144 C 
HETATM   24  O1  UNL     1      31.851  10.852  28.451  1.00  0.00    -0.296 OA
BRANCH  23  25
HETATM   25  C2  UNL     1      33.090  11.178  26.510  1.00  0.00     0.075 C 
HETATM   26  C1  UNL     1      32.883  11.172  25.013  1.00  0.00     0.013 C 
ENDBRANCH  23  25
ENDBRANCH  22  23
ENDBRANCH   1  22
BRANCH  11  27
HETATM   27  C13 UNL     1      30.012   6.806  29.311  1.00  0.00     0.036 C 
BRANCH  27  28
HETATM   28  C14 UNL     1      29.549   5.402  29.499  1.00  0.00     0.022 C 
BRANCH  28  29
HETATM   29  C15 UNL     1      29.979   4.642  28.235  1.00  0.00     0.122 C 
BRANCH  29  30
HETATM   30  N7  UNL     1      31.347   4.991  27.903  1.00  0.00    -0.367 N 
HETATM   31  C16 UNL     1      32.352   4.322  28.316  1.00  0.00     0.196 C 
HETATM   32  N8  UNL     1      32.155   3.188  29.134  1.00  0.00    -0.067 NA
HETATM   33  N9  UNL     1      33.658   4.719  27.955  1.00  0.00    -0.067 NA
ATOM     34  H7  UNL     1      31.513   5.806  27.314  1.00  0.00     0.161 HD
ENDBRANCH  29  30
ENDBRANCH  28  29
ENDBRANCH  27  28
ENDBRANCH  11  27
TORSDOF 11
ENDMDL
MODEL 2
REMARK VINA RESULT: -7.163122270      2.163      2.621
REMARK  11 active torsions:
REMARK  status: ('A' for Active; 'I' for Inactive)
REMARK    1  A    between atoms: C2_2  and  C3_3 
REMARK    2  A    between atoms: C3_3  and  C4_5 
REMARK    3  A    between atoms: C4_5  and  N1_6 
REMARK    4  A    between atoms: C6_11  and  C7_12 
REMARK    5  A    between atoms: C7_12  and  C8_13 
REMARK    6  A    between atoms: C8_13  and  C9_14 
REMARK    7  A    between atoms: C9_14  and  N3_15 
REMARK    8  A    between atoms: C12_24  and  C13_25 
REMARK    9  A    between atoms: C13_25  and  C14_26 
REMARK   10  A    between atoms: C14_26  and  C15_27 
REMARK   11  A    between atoms: C15_27  and  N7_28 
ROOT
HETATM    1  N1  UNL     1      30.219  11.153  29.268  1.00  0.00    -0.261 N 
HETATM    2  C5  UNL     1      29.233  12.165  29.391  1.00  0.00     0.326 C 
HETATM    3  O2  UNL     1      29.584  13.081  30.152  1.00  0.00    -0.247 OA
HETATM    4  N2  UNL     1      27.925  12.404  28.858  1.00  0.00    -0.329 N 
ATOM      5  H2  UNL     1      27.674  13.392  28.828  1.00  0.00     0.165 HD
HETATM    6  C6  UNL     1      26.902  11.546  28.361  1.00  0.00     0.178 C 
HETATM    7  C11 UNL     1      27.088  10.116  28.742  1.00  0.00     0.241 C 
HETATM    8  O3  UNL     1      26.247   9.678  29.578  1.00  0.00    -0.271 OA
HETATM    9  N6  UNL     1      27.996   9.071  28.402  1.00  0.00    -0.346 N 
ATOM     10  H6  UNL     1      27.580   8.151  28.547  1.00  0.00     0.163 HD
HETATM   11  C12 UNL     1      29.330   8.969  27.915  1.00  0.00     0.177 C 
HETATM   12  C17 UNL     1      30.261   9.936  28.572  1.00  0.00     0.251 C 
HETATM   13  O4  UNL     1      31.443   9.523  28.465  1.00  0.00    -0.271 OA
ENDROOT
BRANCH   6  14
HETATM   14  C7  UNL     1      25.548  11.959  28.880  1.00  0.00     0.036 C 
BRANCH  14  15
HETATM   15  C8  UNL     1      24.612  12.461  27.811  1.00  0.00     0.022 C 
BRANCH  15  16
HETATM   16  C9  UNL     1      23.273  11.717  27.945  1.00  0.00     0.122 C 
BRANCH  16  17
HETATM   17  N3  UNL     1      23.473  10.357  28.334  1.00  0.00    -0.367 N 
HETATM   18  C10 UNL     1      23.419   9.379  27.512  1.00  0.00     0.196 C 
HETATM   19  N4  UNL     1      23.626   8.045  27.953  1.00  0.00    -0.067 NA
HETATM   20  N5  UNL     1      23.144   9.676  26.139  1.00  0.00    -0.067 NA
ATOM     21  H3  UNL     1      23.668  10.156  29.314  1.00  0.00     0.161 HD
ENDBRANCH  16  17
ENDBRANCH  15  16
ENDBRANCH  14  15
ENDBRANCH   6  14
BRANCH   1  22
HETATM   22  C4  UNL     1      31.405  11.435  30.000  1.00  0.00     0.215 C 
BRANCH  22  23
HETATM   23  C3  UNL     1      31.476  10.852  31.333  1.00  0.00     0.144 C 
HETATM   24  O1  UNL     1      30.480  10.505  31.920  1.00  0.00    -0.296 OA
BRANCH  23  25
HETATM   25  C2  UNL     1      32.798  10.686  31.975  1.00  0.00     0.075 C 
HETATM   26  C1  UNL     1      33.455  12.011  32.288  1.00  0.00     0.013 C 
ENDBRANCH  23  25
ENDBRANCH  22  23
ENDBRANCH   1  22
BRANCH  11  27
HETATM   27  C13 UNL     1      29.918   7.598  28.131  1.00  0.00     0.036 C 
BRANCH  27  28
HETATM   28  C14 UNL     1      29.008   6.610  28.774  1.00  0.00     0.022 C 
BRANCH  28  29
HETATM   29  C15 UNL     1      29.915   5.515  29.358  1.00  0.00     0.122 C 
BRANCH  29  30
HETATM   30  N7  UNL     1      31.174   5.496  28.638  1.00  0.00    -0.367 N 
HETATM   31  C16 UNL     1      31.961   4.492  28.646  1.00  0.00     0.196 C 
HETATM   32  N8  UNL     1      31.618   3.334  29.379  1.00  0.00    -0.067 NA
HETATM   33  N9  UNL     1      33.173   4.541  27.923  1.00  0.00    -0.067 NA
ATOM     34  H7  UNL     1      31.442   6.321  28.103  1.00  0.00     0.161 HD
ENDBRANCH  29  30
ENDBRANCH  28  29
ENDBRANCH  27  28
ENDBRANCH  11  27
TORSDOF 11
ENDMDL
MODEL 3
REMARK VINA RESULT: -6.867835181      3.417      6.400
REMARK  11 active torsions:
REMARK  status: ('A' for Active; 'I' for Inactive)
REMARK    1  A    between atoms: C2_2  and  C3_3 
REMARK    2  A    between atoms: C3_3  and  C4_5 
REMARK    3  A    between atoms: C4_5  and  N1_6 
REMARK    4  A    between atoms: C6_11  and  C7_12 
REMARK    5  A    between atoms: C7_12  and  C8_13 
REMARK    6  A    between atoms: C8_13  and  C9_14 
REMARK    7  A    between atoms: C9_14  and  N3_15 
REMARK    8  A    between atoms: C12_24  and  C13_25 
REMARK    9  A    between atoms: C13_25  and  C14_26 
REMARK   10  A    between atoms: C14_26  and  C15_27 
REMARK   11  A    between atoms: C15_27  and  N7_28 
ROOT
HETATM    1  N1  UNL     1      28.477  10.723  30.339  1.00  0.00    -0.261 N 
HETATM    2  C5  UNL     1      29.341  11.830  30.539  1.00  0.00     0.326 C 
HETATM    3  O2  UNL     1      28.727  12.905  30.608  1.00  0.00    -0.247 OA
HETATM    4  N2  UNL     1      30.753  12.026  30.685  1.00  0.00    -0.329 N 
ATOM      5  H2  UNL     1      30.993  12.867  31.209  1.00  0.00     0.165 HD
HETATM    6  C6  UNL     1      31.891  11.288  30.247  1.00  0.00     0.178 C 
HETATM    7  C11 UNL     1      31.581  10.293  29.181  1.00  0.00     0.241 C 
HETATM    8  O3  UNL     1      32.049  10.576  28.041  1.00  0.00    -0.271 OA
HETATM    9  N6  UNL     1      30.870   9.060  29.101  1.00  0.00    -0.346 N 
ATOM     10  H6  UNL     1      31.205   8.484  28.328  1.00  0.00     0.163 HD
HETATM   11  C12 UNL     1      29.817   8.416  29.812  1.00  0.00     0.177 C 
HETATM   12  C17 UNL     1      28.704   9.350  30.164  1.00  0.00     0.251 C 
HETATM   13  O4  UNL     1      27.650   8.694  30.361  1.00  0.00    -0.271 OA
ENDROOT
BRANCH   6  14
HETATM   14  C7  UNL     1      32.949  12.205  29.689  1.00  0.00     0.036 C 
BRANCH  14  15
HETATM   15  C8  UNL     1      34.163  12.347  30.571  1.00  0.00     0.022 C 
BRANCH  15  16
HETATM   16  C9  UNL     1      34.081  13.696  31.302  1.00  0.00     0.122 C 
BRANCH  16  17
HETATM   17  N3  UNL     1      33.693  13.523  32.667  1.00  0.00    -0.367 N 
HETATM   18  C10 UNL     1      32.567  13.914  33.129  1.00  0.00     0.196 C 
HETATM   19  N4  UNL     1      32.232  13.716  34.495  1.00  0.00    -0.067 NA
HETATM   20  N5  UNL     1      31.661  14.555  32.225  1.00  0.00    -0.067 NA
ATOM     21  H3  UNL     1      34.345  13.064  33.302  1.00  0.00     0.161 HD
ENDBRANCH  16  17
ENDBRANCH  15  16
ENDBRANCH  14  15
ENDBRANCH   6  14
BRANCH   1  22
HETATM   22  C4  UNL     1      27.103  11.083  30.311  1.00  0.00     0.215 C 
BRANCH  22  23
HETATM   23  C3  UNL     1      26.472  11.064  28.998  1.00  0.00     0.144 C 
HETATM   24  O1  UNL     1      27.071  11.413  28.009  1.00  0.00    -0.296 OA
BRANCH  23  25
HETATM   25  C2  UNL     1      25.070  10.608  28.880  1.00  0.00     0.075 C 
HETATM   26  C1  UNL     1      24.917   9.473  27.894  1.00  0.00     0.013 C 
ENDBRANCH  23  25
ENDBRANCH  22  23
ENDBRANCH   1  22
BRANCH  11  27
HETATM   27  C13 UNL     1      29.196   7.290  29.026  1.00  0.00     0.036 C 
BRANCH  27  28
HETATM   28  C14 UNL     1      29.522   5.921  29.512  1.00  0.00     0.022 C 
BRANCH  28  29
HETATM   29  C15 UNL     1      29.907   5.109  28.265  1.00  0.00     0.122 C 
BRANCH  29  30
HETATM   30  N7  UNL     1      31.331   5.238  28.025  1.00  0.00    -0.367 N 
HETATM   31  C16 UNL     1      32.188   4.413  28.487  1.00  0.00     0.196 C 
HETATM   32  N8  UNL     1      31.761   3.319  29.271  1.00  0.00    -0.067 NA
HETATM   33  N9  UNL     1      33.561   4.599  28.216  1.00  0.00    -0.067 NA
ATOM     34  H7  UNL     1      31.662   6.021  27.463  1.00  0.00     0.161 HD
ENDBRANCH  29  30
ENDBRANCH  28  29
ENDBRANCH  27  28
ENDBRANCH  11  27
TORSDOF 11
ENDMDL
MODEL 4
REMARK VINA RESULT: -6.867419516      3.548      6.979
REMARK  11 active torsions:
REMARK  status: ('A' for Active; 'I' for Inactive)
REMARK    1  A    between atoms: C2_2  and  C3_3 
REMARK    2  A    between atoms: C3_3  and  C4_5 
REMARK    3  A    between atoms: C4_5  and  N1_6 
REMARK    4  A    between atoms: C6_11  and  C7_12 
REMARK    5  A    between atoms: C7_12  and  C8_13 
REMARK    6  A    between atoms: C8_13  and  C9_14 
REMARK    7  A    between atoms: C9_14  and  N3_15 
REMARK    8  A    between atoms: C12_24  and  C13_25 
REMARK    9  A    between atoms: C13_25  and  C14_26 
REMARK   10  A    between atoms: C14_26  and  C15_27 
REMARK   11  A    between atoms: C15_27  and  N7_28 
ROOT
HETATM    1  N1  UNL     1      31.190  11.105  30.185  1.00  0.00    -0.261 N 
HETATM    2  C5  UNL     1      30.240  10.055  30.264  1.00  0.00     0.326 C 
HETATM    3  O2  UNL     1      29.864   9.842  31.427  1.00  0.00    -0.247 OA
HETATM    4  N2  UNL     1      29.598   9.170  29.339  1.00  0.00    -0.329 N 
ATOM      5  H2  UNL     1      28.694   8.828  29.666  1.00  0.00     0.165 HD
HETATM    6  C6  UNL     1      29.961   8.670  28.055  1.00  0.00     0.178 C 
HETATM    7  C11 UNL     1      31.406   8.845  27.735  1.00  0.00     0.241 C 
HETATM    8  O3  UNL     1      32.075   7.772  27.702  1.00  0.00    -0.271 OA
HETATM    9  N6  UNL     1      32.270   9.942  27.445  1.00  0.00    -0.346 N 
ATOM     10  H6  UNL     1      33.079   9.647  26.898  1.00  0.00     0.163 HD
HETATM   11  C12 UNL     1      32.304  11.340  27.716  1.00  0.00     0.177 C 
HETATM   12  C17 UNL     1      31.913  11.665  29.121  1.00  0.00     0.251 C 
HETATM   13  O4  UNL     1      32.379  12.788  29.440  1.00  0.00    -0.271 OA
ENDROOT
BRANCH   6  14
HETATM   14  C7  UNL     1      29.669   7.194  27.946  1.00  0.00     0.036 C 
BRANCH  14  15
HETATM   15  C8  UNL     1      29.147   6.580  29.219  1.00  0.00     0.022 C 
BRANCH  15  16
HETATM   16  C9  UNL     1      29.977   5.325  29.534  1.00  0.00     0.122 C 
BRANCH  16  17
HETATM   17  N3  UNL     1      31.182   5.295  28.765  1.00  0.00    -0.367 N 
HETATM   18  C10 UNL     1      31.977   4.295  28.749  1.00  0.00     0.196 C 
HETATM   19  N4  UNL     1      33.161   4.318  27.966  1.00  0.00    -0.067 NA
HETATM   20  N5  UNL     1      31.632   3.156  29.544  1.00  0.00    -0.067 NA
ATOM     21  H3  UNL     1      31.418   6.111  28.201  1.00  0.00     0.161 HD
ENDBRANCH  16  17
ENDBRANCH  15  16
ENDBRANCH  14  15
ENDBRANCH   6  14
BRANCH   1  22
HETATM   22  C4  UNL     1      31.462  11.711  31.442  1.00  0.00     0.215 C 
BRANCH  22  23
HETATM   23  C3  UNL     1      32.759  11.398  32.026  1.00  0.00     0.144 C 
HETATM   24  O1  UNL     1      33.176  10.265  32.056  1.00  0.00    -0.296 OA
BRANCH  23  25
HETATM   25  C2  UNL     1      33.577  12.493  32.591  1.00  0.00     0.075 C 
HETATM   26  C1  UNL     1      32.732  13.652  33.069  1.00  0.00     0.013 C 
ENDBRANCH  23  25
ENDBRANCH  22  23
ENDBRANCH   1  22
BRANCH  11  27
HETATM   27  C13 UNL     1      33.675  11.932  27.508  1.00  0.00     0.036 C 
BRANCH  27  28
HETATM   28  C14 UNL     1      33.746  13.033  26.508  1.00  0.00     0.022 C 
BRANCH  28  29
HETATM   29  C15 UNL     1      32.733  12.674  25.409  1.00  0.00     0.122 C 
BRANCH  29  30
HETATM   30  N7  UNL     1      33.402  11.926  24.361  1.00  0.00    -0.367 N 
HETATM   31  C16 UNL     1      32.919  10.859  23.856  1.00  0.00     0.196 C 
HETATM   32  N8  UNL     1      31.681  10.359  24.318  1.00  0.00    -0.067 NA
HETATM   33  N9  UNL     1      33.624  10.180  22.839  1.00  0.00    -0.067 NA
ATOM     34  H7  UNL     1      34.297  12.268  24.013  1.00  0.00     0.161 HD
ENDBRANCH  29  30
ENDBRANCH  28  29
ENDBRANCH  27  28
ENDBRANCH  11  27
TORSDOF 11
ENDMDL
MODEL 5
REMARK VINA RESULT: -6.866858990      3.651      7.559
REMARK  11 active torsions:
REMARK  status: ('A' for Active; 'I' for Inactive)
REMARK    1  A    between atoms: C2_2  and  C3_3 
REMARK    2  A    between atoms: C3_3  and  C4_5 
REMARK    3  A    between atoms: C4_5  and  N1_6 
REMARK    4  A    between atoms: C6_11  and  C7_12 
REMARK    5  A    between atoms: C7_12  and  C8_13 
REMARK    6  A    between atoms: C8_13  and  C9_14 
REMARK    7  A    between atoms: C9_14  and  N3_15 
REMARK    8  A    between atoms: C12_24  and  C13_25 
REMARK    9  A    between atoms: C13_25  and  C14_26 
REMARK   10  A    between atoms: C14_26  and  C15_27 
REMARK   11  A    between atoms: C15_27  and  N7_28 
ROOT
HETATM    1  N1  UNL     1      29.791   8.608  28.614  1.00  0.00    -0.261 N 
HETATM    2  C5  UNL     1      31.096   8.721  29.158  1.00  0.00     0.326 C 
HETATM    3  O2  UNL     1      31.801   7.730  28.911  1.00  0.00    -0.247 OA
HETATM    4  N2  UNL     1      31.815   9.694  29.925  1.00  0.00    -0.329 N 
ATOM      5  H2  UNL     1      32.826   9.644  29.796  1.00  0.00     0.165 HD
HETATM    6  C6  UNL     1      31.410  10.717  30.830  1.00  0.00     0.178 C 
HETATM    7  C11 UNL     1      30.008  10.562  31.314  1.00  0.00     0.241 C 
HETATM    8  O3  UNL     1      29.902  10.245  32.533  1.00  0.00    -0.271 OA
HETATM    9  N6  UNL     1      28.705  10.680  30.748  1.00  0.00    -0.346 N 
ATOM     10  H6  UNL     1      28.006  10.891  31.459  1.00  0.00     0.163 HD
HETATM   11  C12 UNL     1      28.120  10.582  29.453  1.00  0.00     0.177 C 
HETATM   12  C17 UNL     1      28.658   9.433  28.662  1.00  0.00     0.251 C 
HETATM   13  O4  UNL     1      27.835   9.115  27.767  1.00  0.00    -0.271 OA
ENDROOT
BRANCH   6  14
HETATM   14  C7  UNL     1      32.290  10.739  32.053  1.00  0.00     0.036 C 
BRANCH  14  15
HETATM   15  C8  UNL     1      33.687  11.239  31.791  1.00  0.00     0.022 C 
BRANCH  15  16
HETATM   16  C9  UNL     1      33.734  12.744  32.099  1.00  0.00     0.122 C 
BRANCH  16  17
HETATM   17  N3  UNL     1      33.047  13.046  33.315  1.00  0.00    -0.367 N 
HETATM   18  C10 UNL     1      32.297  14.070  33.460  1.00  0.00     0.196 C 
HETATM   19  N4  UNL     1      31.637  14.322  34.692  1.00  0.00    -0.067 NA
HETATM   20  N5  UNL     1      32.146  14.950  32.340  1.00  0.00    -0.067 NA
ATOM     21  H3  UNL     1      33.161  12.412  34.106  1.00  0.00     0.161 HD
ENDBRANCH  16  17
ENDBRANCH  15  16
ENDBRANCH  14  15
ENDBRANCH   6  14
BRANCH   1  22
HETATM   22  C4  UNL     1      29.596   7.413  27.869  1.00  0.00     0.215 C 
BRANCH  22  23
HETATM   23  C3  UNL     1      29.331   6.216  28.654  1.00  0.00     0.144 C 
HETATM   24  O1  UNL     1      28.571   6.237  29.593  1.00  0.00    -0.296 OA
BRANCH  23  25
HETATM   25  C2  UNL     1      30.007   4.951  28.290  1.00  0.00     0.075 C 
HETATM   26  C1  UNL     1      30.801   4.374  29.439  1.00  0.00     0.013 C 
ENDBRANCH  23  25
ENDBRANCH  22  23
ENDBRANCH   1  22
BRANCH  11  27
HETATM   27  C13 UNL     1      26.625  10.396  29.510  1.00  0.00     0.036 C 
BRANCH  27  28
HETATM   28  C14 UNL     1      25.822  11.626  29.266  1.00  0.00     0.022 C 
BRANCH  28  29
HETATM   29  C15 UNL     1      24.752  11.236  28.234  1.00  0.00     0.122 C 
BRANCH  29  30
HETATM   30  N7  UNL     1      24.338   9.865  28.463  1.00  0.00    -0.367 N 
HETATM   31  C16 UNL     1      23.731   9.169  27.582  1.00  0.00     0.196 C 
HETATM   32  N8  UNL     1      23.436   9.731  26.320  1.00  0.00    -0.067 NA
HETATM   33  N9  UNL     1      23.356   7.839  27.872  1.00  0.00    -0.067 NA
ATOM     34  H7  UNL     1      24.540   9.439  29.367  1.00  0.00     0.161 HD
ENDBRANCH  29  30
ENDBRANCH  28  29
ENDBRANCH  27  28
ENDBRANCH  11  27
TORSDOF 11
ENDMDL
