MODEL 1
REMARK VINA RESULT: -7.827852109      0.000      0.000
REMARK  12 active torsions:
REMARK  status: ('A' for Active; 'I' for Inactive)
REMARK    1  A    between atoms: C3_3  and  N1_4 
REMARK    2  A    between atoms: C6_7  and  N2_8 
REMARK    3  A    between atoms: N2_8  and  C7_11 
REMARK    4  A    between atoms: C7_11  and  C8_12 
REMARK    5  A    between atoms: C8_12  and  C9_14 
REMARK    6  A    between atoms: C9_14  and  C10_15 
REMARK    7  A    between atoms: C12_19  and  N4_20 
REMARK    8  A    between atoms: C14_29  and  C15_30 
REMARK    9  A    between atoms: C15_30  and  C16_31 
REMARK   10  A    between atoms: C16_31  and  C17_32 
REMARK   11  A    between atoms: C17_32  and  N7_33 
REMARK   12  A    between atoms: C21_41  and  C22_42 
ROOT
HETATM    1  C1  UNL     1      32.179  13.092  32.425  1.00  0.00     0.014 C 
HETATM    2  C2  UNL     1      31.372  12.986  31.532  1.00  0.00    -0.098 C 
HETATM    3  C3  UNL     1      30.362  12.842  30.454  1.00  0.00     0.215 C 
ENDROOT
BRANCH   3   4
HETATM    4  N1  UNL     1      30.445  11.508  29.920  1.00  0.00    -0.377 N 
HETATM    5  C4  UNL     1      30.168  10.507  30.949  1.00  0.00     0.150 C 
HETATM    6  C5  UNL     1      30.717  11.195  28.709  1.00  0.00     0.057 C 
HETATM    7  C6  UNL     1      30.724   9.688  28.478  1.00  0.00     0.325 C 
HETATM    8  C21 UNL     1      30.997  12.246  27.724  1.00  0.00     0.244 C 
HETATM    9  C13 UNL     1      31.107   9.492  27.057  1.00  0.00     0.259 C 
HETATM   10  O2  UNL     1      30.346   8.753  26.329  1.00  0.00    -0.270 OA
HETATM   11  N6  UNL     1      32.227  10.030  26.390  1.00  0.00    -0.308 N 
HETATM   12  C14 UNL     1      32.832  11.328  26.366  1.00  0.00     0.187 C 
ATOM     13  H6  UNL     1      32.708   9.352  25.799  1.00  0.00     0.170 HD
HETATM   14  N10 UNL     1      32.362  12.296  27.284  1.00  0.00    -0.024 N 
HETATM   15  C19 UNL     1      33.181  12.245  28.527  1.00  0.00     0.281 C 
HETATM   16  C20 UNL     1      32.612  13.682  26.850  1.00  0.00     0.281 C 
BRANCH   7  17
HETATM   17  N2  UNL     1      29.541   9.036  28.893  1.00  0.00    -0.051 N 
ATOM     18  H22 UNL     1      28.924   9.673  29.397  1.00  0.00     0.279 HD
ATOM     19  H21 UNL     1      28.937   8.822  28.101  1.00  0.00     0.279 HD
BRANCH  17  20
HETATM   20  C7  UNL     1      29.826   7.865  29.664  1.00  0.00     0.312 C 
BRANCH  20  21
HETATM   21  C8  UNL     1      29.177   6.625  29.135  1.00  0.00     0.158 C 
HETATM   22  O1  UNL     1      28.134   6.704  28.550  1.00  0.00    -0.296 OA
BRANCH  21  23
HETATM   23  C9  UNL     1      29.833   5.326  29.343  1.00  0.00     0.139 C 
BRANCH  23  24
HETATM   24  C10 UNL     1      31.103   5.192  28.594  1.00  0.00     0.049 A 
HETATM   25  C11 UNL     1      31.360   5.802  27.345  1.00  0.00     0.132 A 
HETATM   26  N3  UNL     1      32.591   5.482  26.926  1.00  0.00    -0.200 N 
HETATM   27  C12 UNL     1      33.133   4.685  27.872  1.00  0.00     0.675 A 
ATOM     28  H3  UNL     1      33.034   5.783  26.057  1.00  0.00     0.183 HD
HETATM   29  N5  UNL     1      32.230   4.522  28.863  1.00  0.00    -0.194 N 
ATOM     30  H5  UNL     1      32.386   3.964  29.702  1.00  0.00     0.184 HD
BRANCH  27  31
HETATM   31  N4  UNL     1      34.312   4.190  27.796  1.00  0.00    -0.234 N 
ATOM     32  H42 UNL     1      34.981   4.283  27.031  1.00  0.00     0.174 HD
ATOM     33  H41 UNL     1      34.736   3.620  28.528  1.00  0.00     0.174 HD
ENDBRANCH  27  31
ENDBRANCH  23  24
ENDBRANCH  21  23
ENDBRANCH  20  21
ENDBRANCH  17  20
ENDBRANCH   7  17
BRANCH  12  34
HETATM   34  C15 UNL     1      33.312  11.814  25.039  1.00  0.00     0.089 C 
BRANCH  34  35
HETATM   35  C16 UNL     1      33.085  11.055  23.812  1.00  0.00     0.052 C 
BRANCH  35  36
HETATM   36  C17 UNL     1      33.037  11.768  22.510  1.00  0.00     0.063 C 
BRANCH  36  37
HETATM   37  N7  UNL     1      31.915  12.536  22.192  1.00  0.00    -0.347 N 
HETATM   38  C18 UNL     1      30.704  12.337  21.990  1.00  0.00     0.200 C 
HETATM   39  N8  UNL     1      30.014  11.092  22.031  1.00  0.00    -0.067 NA
HETATM   40  N9  UNL     1      29.881  13.472  21.674  1.00  0.00    -0.067 NA
ATOM     41  H7  UNL     1      32.152  13.525  22.099  1.00  0.00     0.167 HD
ENDBRANCH  36  37
ENDBRANCH  35  36
ENDBRANCH  34  35
ENDBRANCH  12  34
BRANCH   8  42
HETATM   42  C22 UNL     1      30.027  12.325  26.568  1.00  0.00     0.035 C 
HETATM   43  C23 UNL     1      28.575  12.397  27.012  1.00  0.00     0.007 C 
ENDBRANCH   8  42
ENDBRANCH   3   4
TORSDOF 12
ENDMDL
MODEL 2
REMARK VINA RESULT: -7.745865678      2.203      3.747
REMARK  12 active torsions:
REMARK  status: ('A' for Active; 'I' for Inactive)
REMARK    1  A    between atoms: C3_3  and  N1_4 
REMARK    2  A    between atoms: C6_7  and  N2_8 
REMARK    3  A    between atoms: N2_8  and  C7_11 
REMARK    4  A    between atoms: C7_11  and  C8_12 
REMARK    5  A    between atoms: C8_12  and  C9_14 
REMARK    6  A    between atoms: C9_14  and  C10_15 
REMARK    7  A    between atoms: C12_19  and  N4_20 
REMARK    8  A    between atoms: C14_29  and  C15_30 
REMARK    9  A    between atoms: C15_30  and  C16_31 
REMARK   10  A    between atoms: C16_31  and  C17_32 
REMARK   11  A    between atoms: C17_32  and  N7_33 
REMARK   12  A    between atoms: C21_41  and  C22_42 
ROOT
HETATM    1  C1  UNL     1      25.287  12.668  29.536  1.00  0.00     0.014 C 
HETATM    2  C2  UNL     1      26.205  12.873  30.294  1.00  0.00    -0.098 C 
HETATM    3  C3  UNL     1      27.351  13.127  31.203  1.00  0.00     0.215 C 
ENDROOT
BRANCH   3   4
HETATM    4  N1  UNL     1      28.102  11.908  31.351  1.00  0.00    -0.377 N 
HETATM    5  C4  UNL     1      27.397  10.952  32.203  1.00  0.00     0.150 C 
HETATM    6  C5  UNL     1      29.238  11.652  30.821  1.00  0.00     0.057 C 
HETATM    7  C6  UNL     1      29.757  10.265  31.182  1.00  0.00     0.325 C 
HETATM    8  C21 UNL     1      29.901  12.658  29.983  1.00  0.00     0.244 C 
HETATM    9  C13 UNL     1      31.092  10.146  30.542  1.00  0.00     0.259 C 
HETATM   10  O2  UNL     1      31.312   9.116  29.804  1.00  0.00    -0.270 OA
HETATM   11  N6  UNL     1      32.174  11.046  30.645  1.00  0.00    -0.308 N 
HETATM   12  C14 UNL     1      32.280  12.473  30.585  1.00  0.00     0.187 C 
ATOM     13  H6  UNL     1      33.071  10.582  30.793  1.00  0.00     0.170 HD
HETATM   14  N10 UNL     1      31.084  13.227  30.566  1.00  0.00    -0.024 N 
HETATM   15  C19 UNL     1      30.703  13.594  31.958  1.00  0.00     0.281 C 
HETATM   16  C20 UNL     1      31.246  14.563  29.966  1.00  0.00     0.281 C 
BRANCH   7  17
HETATM   17  N2  UNL     1      28.847   9.220  30.907  1.00  0.00    -0.051 N 
ATOM     18  H22 UNL     1      29.271   8.306  31.068  1.00  0.00     0.279 HD
ATOM     19  H21 UNL     1      28.107   9.177  31.607  1.00  0.00     0.279 HD
BRANCH  17  20
HETATM   20  C7  UNL     1      28.310   9.322  29.585  1.00  0.00     0.312 C 
BRANCH  20  21
HETATM   21  C8  UNL     1      28.496   8.085  28.764  1.00  0.00     0.158 C 
HETATM   22  O1  UNL     1      28.479   8.157  27.568  1.00  0.00    -0.296 OA
BRANCH  21  23
HETATM   23  C9  UNL     1      28.698   6.797  29.443  1.00  0.00     0.139 C 
BRANCH  23  24
HETATM   24  C10 UNL     1      29.917   6.088  28.992  1.00  0.00     0.049 A 
HETATM   25  C11 UNL     1      30.356   4.850  29.514  1.00  0.00     0.132 A 
HETATM   26  N3  UNL     1      31.491   4.477  28.908  1.00  0.00    -0.200 N 
HETATM   27  C12 UNL     1      31.792   5.441  28.010  1.00  0.00     0.675 A 
ATOM     28  H3  UNL     1      32.026   3.627  29.090  1.00  0.00     0.183 HD
HETATM   29  N5  UNL     1      30.840   6.396  28.074  1.00  0.00    -0.194 N 
ATOM     30  H5  UNL     1      30.826   7.239  27.500  1.00  0.00     0.184 HD
BRANCH  27  31
HETATM   31  N4  UNL     1      32.822   5.408  27.249  1.00  0.00    -0.234 N 
ATOM     32  H42 UNL     1      33.731   5.842  27.408  1.00  0.00     0.174 HD
ATOM     33  H41 UNL     1      32.849   4.920  26.354  1.00  0.00     0.174 HD
ENDBRANCH  27  31
ENDBRANCH  23  24
ENDBRANCH  21  23
ENDBRANCH  20  21
ENDBRANCH  17  20
ENDBRANCH   7  17
BRANCH  12  34
HETATM   34  C15 UNL     1      33.451  13.021  29.840  1.00  0.00     0.089 C 
BRANCH  34  35
HETATM   35  C16 UNL     1      34.202  12.215  28.882  1.00  0.00     0.052 C 
BRANCH  35  36
HETATM   36  C17 UNL     1      33.628  11.954  27.537  1.00  0.00     0.063 C 
BRANCH  36  37
HETATM   37  N7  UNL     1      32.855  10.808  27.334  1.00  0.00    -0.347 N 
HETATM   38  C18 UNL     1      32.395  10.182  26.362  1.00  0.00     0.200 C 
HETATM   39  N8  UNL     1      32.543  10.499  24.982  1.00  0.00    -0.067 NA
HETATM   40  N9  UNL     1      31.619   9.003  26.630  1.00  0.00    -0.067 NA
ATOM     41  H7  UNL     1      32.600  10.366  28.218  1.00  0.00     0.167 HD
ENDBRANCH  36  37
ENDBRANCH  35  36
ENDBRANCH  34  35
ENDBRANCH  12  34
BRANCH   8  42
HETATM   42  C22 UNL     1      30.116  12.262  28.542  1.00  0.00     0.035 C 
HETATM   43  C23 UNL     1      28.872  12.432  27.684  1.00  0.00     0.007 C 
ENDBRANCH   8  42
ENDBRANCH   3   4
TORSDOF 12
ENDMDL
MODEL 3
REMARK VINA RESULT: -7.742756573      3.678      5.780
REMARK  12 active torsions:
REMARK  status: ('A' for Active; 'I' for Inactive)
REMARK    1  A    between atoms: C3_3  and  N1_4 
REMARK    2  A    between atoms: C6_7  and  N2_8 
REMARK    3  A    between atoms: N2_8  and  C7_11 
REMARK    4  A    between atoms: C7_11  and  C8_12 
REMARK    5  A    between atoms: C8_12  and  C9_14 
REMARK    6  A    between atoms: C9_14  and  C10_15 
REMARK    7  A    between atoms: C12_19  and  N4_20 
REMARK    8  A    between atoms: C14_29  and  C15_30 
REMARK    9  A    between atoms: C15_30  and  C16_31 
REMARK   10  A    between atoms: C16_31  and  C17_32 
REMARK   11  A    between atoms: C17_32  and  N7_33 
REMARK   12  A    between atoms: C21_41  and  C22_42 
ROOT
HETATM    1  C1  UNL     1      32.019  10.972  31.532  1.00  0.00     0.014 C 
HETATM    2  C2  UNL     1      31.342  11.702  30.847  1.00  0.00    -0.098 C 
HETATM    3  C3  UNL     1      30.487  12.591  30.022  1.00  0.00     0.215 C 
ENDROOT
BRANCH   3   4
HETATM    4  N1  UNL     1      29.779  11.789  29.060  1.00  0.00    -0.377 N 
HETATM    5  C4  UNL     1      30.665  11.347  27.984  1.00  0.00     0.150 C 
HETATM    6  C5  UNL     1      28.539  11.475  29.104  1.00  0.00     0.057 C 
HETATM    7  C6  UNL     1      28.108  10.611  27.924  1.00  0.00     0.325 C 
HETATM    8  C21 UNL     1      27.698  11.958  30.206  1.00  0.00     0.244 C 
HETATM    9  C13 UNL     1      26.650  10.384  28.093  1.00  0.00     0.259 C 
HETATM   10  O2  UNL     1      26.226   9.170  28.054  1.00  0.00    -0.270 OA
HETATM   11  N6  UNL     1      25.649  11.358  28.297  1.00  0.00    -0.308 N 
HETATM   12  C14 UNL     1      25.557  12.519  29.130  1.00  0.00     0.187 C 
ATOM     13  H6  UNL     1      24.815  11.201  27.731  1.00  0.00     0.170 HD
HETATM   14  N10 UNL     1      26.720  12.936  29.818  1.00  0.00    -0.024 N 
HETATM   15  C19 UNL     1      27.459  13.930  28.993  1.00  0.00     0.281 C 
HETATM   16  C20 UNL     1      26.431  13.739  31.020  1.00  0.00     0.281 C 
BRANCH   7  17
HETATM   17  N2  UNL     1      28.895   9.453  27.740  1.00  0.00    -0.051 N 
ATOM     18  H22 UNL     1      28.682   8.996  26.854  1.00  0.00     0.279 HD
ATOM     19  H21 UNL     1      29.871   9.690  27.567  1.00  0.00     0.279 HD
BRANCH  17  20
HETATM   20  C7  UNL     1      28.765   8.547  28.840  1.00  0.00     0.312 C 
BRANCH  20  21
HETATM   21  C8  UNL     1      29.927   7.615  28.990  1.00  0.00     0.158 C 
HETATM   22  O1  UNL     1      31.011   8.054  29.250  1.00  0.00    -0.296 OA
BRANCH  21  23
HETATM   23  C9  UNL     1      29.715   6.171  28.817  1.00  0.00     0.139 C 
BRANCH  23  24
HETATM   24  C10 UNL     1      30.947   5.445  28.434  1.00  0.00     0.049 A 
HETATM   25  C11 UNL     1      31.447   4.311  29.114  1.00  0.00     0.132 A 
HETATM   26  N3  UNL     1      32.577   3.892  28.532  1.00  0.00    -0.200 N 
HETATM   27  C12 UNL     1      32.817   4.724  27.495  1.00  0.00     0.675 A 
ATOM     28  H3  UNL     1      33.149   3.096  28.817  1.00  0.00     0.183 HD
HETATM   29  N5  UNL     1      31.831   5.647  27.451  1.00  0.00    -0.194 N 
ATOM     30  H5  UNL     1      31.770   6.396  26.761  1.00  0.00     0.184 HD
BRANCH  27  31
HETATM   31  N4  UNL     1      33.826   4.616  26.712  1.00  0.00    -0.234 N 
ATOM     32  H42 UNL     1      34.251   3.760  26.355  1.00  0.00     0.174 HD
ATOM     33  H41 UNL     1      34.342   5.412  26.340  1.00  0.00     0.174 HD
ENDBRANCH  27  31
ENDBRANCH  23  24
ENDBRANCH  21  23
ENDBRANCH  20  21
ENDBRANCH  17  20
ENDBRANCH   7  17
BRANCH  12  34
HETATM   34  C15 UNL     1      24.242  12.758  29.793  1.00  0.00     0.089 C 
BRANCH  34  35
HETATM   35  C16 UNL     1      23.203  11.733  29.838  1.00  0.00     0.052 C 
BRANCH  35  36
HETATM   36  C17 UNL     1      22.049  11.822  28.907  1.00  0.00     0.063 C 
BRANCH  36  37
HETATM   37  N7  UNL     1      22.281  12.041  27.547  1.00  0.00    -0.347 N 
HETATM   38  C18 UNL     1      22.714  11.387  26.582  1.00  0.00     0.200 C 
HETATM   39  N8  UNL     1      23.161  10.035  26.585  1.00  0.00    -0.067 NA
HETATM   40  N9  UNL     1      22.786  12.042  25.305  1.00  0.00    -0.067 NA
ATOM     41  H7  UNL     1      22.029  12.990  27.272  1.00  0.00     0.167 HD
ENDBRANCH  36  37
ENDBRANCH  35  36
ENDBRANCH  34  35
ENDBRANCH  12  34
BRANCH   8  42
HETATM   42  C22 UNL     1      27.106  10.885  31.088  1.00  0.00     0.035 C 
HETATM   43  C23 UNL     1      28.133  10.224  31.993  1.00  0.00     0.007 C 
ENDBRANCH   8  42
ENDBRANCH   3   4
TORSDOF 12
ENDMDL
MODEL 4
REMARK VINA RESULT: -7.684530600      2.963      5.439
REMARK  12 active torsions:
REMARK  status: ('A' for Active; 'I' for Inactive)
REMARK    1  A    between atoms: C3_3  and  N1_4 
REMARK    2  A    between atoms: C6_7  and  N2_8 
REMARK    3  A    between atoms: N2_8  and  C7_11 
REMARK    4  A    between atoms: C7_11  and  C8_12 
REMARK    5  A    between atoms: C8_12  and  C9_14 
REMARK    6  A    between atoms: C9_14  and  C10_15 
REMARK    7  A    between atoms: C12_19  and  N4_20 
REMARK    8  A    between atoms: C14_29  and  C15_30 
REMARK    9  A    between atoms: C15_30  and  C16_31 
REMARK   10  A    between atoms: C16_31  and  C17_32 
REMARK   11  A    between atoms: C17_32  and  N7_33 
REMARK   12  A    between atoms: C21_41  and  C22_42 
ROOT
HETATM    1  C1  UNL     1      33.550  10.669  32.081  1.00  0.00     0.014 C 
HETATM    2  C2  UNL     1      32.955  11.639  31.675  1.00  0.00    -0.098 C 
HETATM    3  C3  UNL     1      32.199  12.820  31.186  1.00  0.00     0.215 C 
ENDROOT
BRANCH   3   4
HETATM    4  N1  UNL     1      31.589  12.487  29.925  1.00  0.00    -0.377 N 
HETATM    5  C4  UNL     1      32.598  12.259  28.892  1.00  0.00     0.150 C 
HETATM    6  C5  UNL     1      30.334  12.390  29.696  1.00  0.00     0.057 C 
HETATM    7  C6  UNL     1      30.027  12.021  28.249  1.00  0.00     0.325 C 
HETATM    8  C21 UNL     1      29.369  12.642  30.772  1.00  0.00     0.244 C 
HETATM    9  C13 UNL     1      28.546  12.003  28.135  1.00  0.00     0.259 C 
HETATM   10  O2  UNL     1      27.998  10.951  27.637  1.00  0.00    -0.270 OA
HETATM   11  N6  UNL     1      27.645  13.019  28.516  1.00  0.00    -0.308 N 
HETATM   12  C14 UNL     1      27.539  13.863  29.669  1.00  0.00     0.187 C 
ATOM     13  H6  UNL     1      26.915  13.190  27.825  1.00  0.00     0.170 HD
HETATM   14  N10 UNL     1      28.598  13.842  30.606  1.00  0.00    -0.024 N 
HETATM   15  C19 UNL     1      29.585  14.904  30.267  1.00  0.00     0.281 C 
HETATM   16  C20 UNL     1      28.191  14.269  31.956  1.00  0.00     0.281 C 
BRANCH   7  17
HETATM   17  N2  UNL     1      30.694  10.861  27.796  1.00  0.00    -0.051 N 
ATOM     18  H22 UNL     1      30.615  10.758  26.784  1.00  0.00     0.279 HD
ATOM     19  H21 UNL     1      31.706  10.963  27.867  1.00  0.00     0.279 HD
BRANCH  17  20
HETATM   20  C7  UNL     1      30.237   9.689  28.478  1.00  0.00     0.312 C 
BRANCH  20  21
HETATM   21  C8  UNL     1      30.209   8.466  27.616  1.00  0.00     0.158 C 
HETATM   22  O1  UNL     1      30.482   8.552  26.453  1.00  0.00    -0.296 OA
BRANCH  21  23
HETATM   23  C9  UNL     1      29.847   7.174  28.217  1.00  0.00     0.139 C 
BRANCH  23  24
HETATM   24  C10 UNL     1      30.922   6.162  28.110  1.00  0.00     0.049 A 
HETATM   25  C11 UNL     1      30.975   4.974  28.873  1.00  0.00     0.132 A 
HETATM   26  N3  UNL     1      32.071   4.274  28.552  1.00  0.00    -0.200 N 
HETATM   27  C12 UNL     1      32.722   4.980  27.601  1.00  0.00     0.675 A 
ATOM     28  H3  UNL     1      32.359   3.379  28.949  1.00  0.00     0.183 HD
HETATM   29  N5  UNL     1      32.021   6.106  27.349  1.00  0.00    -0.194 N 
ATOM     30  H5  UNL     1      32.292   6.817  26.670  1.00  0.00     0.184 HD
BRANCH  27  31
HETATM   31  N4  UNL     1      33.821   4.602  27.061  1.00  0.00    -0.234 N 
ATOM     32  H42 UNL     1      34.211   3.660  27.030  1.00  0.00     0.174 HD
ATOM     33  H41 UNL     1      34.461   5.232  26.578  1.00  0.00     0.174 HD
ENDBRANCH  27  31
ENDBRANCH  23  24
ENDBRANCH  21  23
ENDBRANCH  20  21
ENDBRANCH  17  20
ENDBRANCH   7  17
BRANCH  12  34
HETATM   34  C15 UNL     1      26.162  14.103  30.192  1.00  0.00     0.089 C 
BRANCH  34  35
HETATM   35  C16 UNL     1      25.225  13.008  30.428  1.00  0.00     0.052 C 
BRANCH  35  36
HETATM   36  C17 UNL     1      24.407  12.490  29.302  1.00  0.00     0.063 C 
BRANCH  36  37
HETATM   37  N7  UNL     1      24.778  11.295  28.680  1.00  0.00    -0.347 N 
HETATM   38  C18 UNL     1      24.377  10.118  28.659  1.00  0.00     0.200 C 
HETATM   39  N8  UNL     1      23.268   9.570  29.364  1.00  0.00    -0.067 NA
HETATM   40  N9  UNL     1      25.096   9.178  27.844  1.00  0.00    -0.067 NA
ATOM     41  H7  UNL     1      25.596  11.421  28.084  1.00  0.00     0.167 HD
ENDBRANCH  36  37
ENDBRANCH  35  36
ENDBRANCH  34  35
ENDBRANCH  12  34
BRANCH   8  42
HETATM   42  C22 UNL     1      28.506  11.465  31.158  1.00  0.00     0.035 C 
HETATM   43  C23 UNL     1      29.288  10.344  31.825  1.00  0.00     0.007 C 
ENDBRANCH   8  42
ENDBRANCH   3   4
TORSDOF 12
ENDMDL
MODEL 5
REMARK VINA RESULT: -7.512292181      3.714      5.993
REMARK  12 active torsions:
REMARK  status: ('A' for Active; 'I' for Inactive)
REMARK    1  A    between atoms: C3_3  and  N1_4 
REMARK    2  A    between atoms: C6_7  and  N2_8 
REMARK    3  A    between atoms: N2_8  and  C7_11 
REMARK    4  A    between atoms: C7_11  and  C8_12 
REMARK    5  A    between atoms: C8_12  and  C9_14 
REMARK    6  A    between atoms: C9_14  and  C10_15 
REMARK    7  A    between atoms: C12_19  and  N4_20 
REMARK    8  A    between atoms: C14_29  and  C15_30 
REMARK    9  A    between atoms: C15_30  and  C16_31 
REMARK   10  A    between atoms: C16_31  and  C17_32 
REMARK   11  A    between atoms: C17_32  and  N7_33 
REMARK   12  A    between atoms: C21_41  and  C22_42 
ROOT
HETATM    1  C1  UNL     1      30.851  14.268  31.962  1.00  0.00     0.014 C 
HETATM    2  C2  UNL     1      30.408  14.172  30.842  1.00  0.00    -0.098 C 
HETATM    3  C3  UNL     1      29.837  14.057  29.476  1.00  0.00     0.215 C 
ENDROOT
BRANCH   3   4
HETATM    4  N1  UNL     1      29.367  12.710  29.284  1.00  0.00    -0.377 N 
HETATM    5  C4  UNL     1      30.481  11.783  29.092  1.00  0.00     0.150 C 
HETATM    6  C5  UNL     1      28.145  12.330  29.278  1.00  0.00     0.057 C 
HETATM    7  C6  UNL     1      27.996  10.830  29.048  1.00  0.00     0.325 C 
HETATM    8  C21 UNL     1      27.070  13.311  29.466  1.00  0.00     0.244 C 
HETATM    9  C13 UNL     1      26.536  10.563  29.014  1.00  0.00     0.259 C 
HETATM   10  O2  UNL     1      26.079   9.639  29.783  1.00  0.00    -0.270 OA
HETATM   11  N6  UNL     1      25.564  11.215  28.226  1.00  0.00    -0.308 N 
HETATM   12  C14 UNL     1      25.313  12.587  27.903  1.00  0.00     0.187 C 
ATOM     13  H6  UNL     1      24.899  10.572  27.794  1.00  0.00     0.170 HD
HETATM   14  N10 UNL     1      26.274  13.547  28.294  1.00  0.00    -0.024 N 
HETATM   15  C19 UNL     1      27.249  13.757  27.188  1.00  0.00     0.281 C 
HETATM   16  C20 UNL     1      25.720  14.906  28.430  1.00  0.00     0.281 C 
BRANCH   7  17
HETATM   17  N2  UNL     1      28.748  10.033  29.939  1.00  0.00    -0.051 N 
ATOM     18  H22 UNL     1      29.719  10.341  29.984  1.00  0.00     0.279 HD
ATOM     19  H21 UNL     1      28.481  10.206  30.908  1.00  0.00     0.279 HD
BRANCH  17  20
HETATM   20  C7  UNL     1      28.655   8.644  29.611  1.00  0.00     0.312 C 
BRANCH  20  21
HETATM   21  C8  UNL     1      29.926   8.068  29.071  1.00  0.00     0.158 C 
HETATM   22  O1  UNL     1      30.980   8.476  29.468  1.00  0.00    -0.296 OA
BRANCH  21  23
HETATM   23  C9  UNL     1      29.859   7.005  28.057  1.00  0.00     0.139 C 
BRANCH  23  24
HETATM   24  C10 UNL     1      30.998   6.063  28.126  1.00  0.00     0.049 A 
HETATM   25  C11 UNL     1      31.031   4.914  28.949  1.00  0.00     0.132 A 
HETATM   26  N3  UNL     1      32.198   4.275  28.793  1.00  0.00    -0.200 N 
HETATM   27  C12 UNL     1      32.915   4.982  27.891  1.00  0.00     0.675 A 
ATOM     28  H3  UNL     1      32.490   3.419  29.265  1.00  0.00     0.183 HD
HETATM   29  N5  UNL     1      32.182   6.047  27.503  1.00  0.00    -0.194 N 
ATOM     30  H5  UNL     1      32.489   6.746  26.826  1.00  0.00     0.184 HD
BRANCH  27  31
HETATM   31  N4  UNL     1      34.091   4.655  27.503  1.00  0.00    -0.234 N 
ATOM     32  H42 UNL     1      34.405   3.749  27.154  1.00  0.00     0.174 HD
ATOM     33  H41 UNL     1      34.885   5.295  27.497  1.00  0.00     0.174 HD
ENDBRANCH  27  31
ENDBRANCH  23  24
ENDBRANCH  21  23
ENDBRANCH  20  21
ENDBRANCH  17  20
ENDBRANCH   7  17
BRANCH  12  34
HETATM   34  C15 UNL     1      23.883  13.014  27.882  1.00  0.00     0.089 C 
BRANCH  34  35
HETATM   35  C16 UNL     1      22.920  12.534  28.870  1.00  0.00     0.052 C 
BRANCH  35  36
HETATM   36  C17 UNL     1      21.866  11.574  28.456  1.00  0.00     0.063 C 
BRANCH  36  37
HETATM   37  N7  UNL     1      22.186  10.220  28.323  1.00  0.00    -0.347 N 
HETATM   38  C18 UNL     1      22.773   9.502  27.495  1.00  0.00     0.200 C 
HETATM   39  N8  UNL     1      23.373   9.908  26.270  1.00  0.00    -0.067 NA
HETATM   40  N9  UNL     1      22.871   8.096  27.777  1.00  0.00    -0.067 NA
ATOM     41  H7  UNL     1      21.847   9.676  29.117  1.00  0.00     0.167 HD
ENDBRANCH  36  37
ENDBRANCH  35  36
ENDBRANCH  34  35
ENDBRANCH  12  34
BRANCH   8  42
HETATM   42  C22 UNL     1      26.218  13.113  30.697  1.00  0.00     0.035 C 
HETATM   43  C23 UNL     1      26.903  13.567  31.976  1.00  0.00     0.007 C 
ENDBRANCH   8  42
ENDBRANCH   3   4
TORSDOF 12
ENDMDL
