MODEL 1
REMARK VINA RESULT: -4.650897262      0.000      0.000
REMARK  2 active torsions:
REMARK  status: ('A' for Active; 'I' for Inactive)
REMARK    1  A    between atoms: O1_2  and  C2_3 
REMARK    2  A    between atoms: C2_3  and  C3_4 
ROOT
HETATM    1  C3  UNL     1      32.081  28.964  92.519  1.00  0.00     0.237 C 
HETATM    2  C4  UNL     1      30.763  29.442  92.008  1.00  0.00     0.307 C 
HETATM    3  N1  UNL     1      29.646  29.040  92.819  1.00  0.00     0.087 N 
HETATM    4  C5  UNL     1      29.085  30.261  93.411  1.00  0.00     0.310 C 
HETATM    5  C6  UNL     1      28.578  28.427  92.059  1.00  0.00     0.299 C 
HETATM    6  C7  UNL     1      28.557  26.924  92.194  1.00  0.00     0.262 C 
HETATM    7  N2  UNL     1      29.639  26.278  91.504  1.00  0.00    -0.072 N 
ATOM      8  H21 UNL     1      30.535  26.745  91.638  1.00  0.00     0.277 HD
ATOM      9  H22 UNL     1      29.587  26.384  90.491  1.00  0.00     0.277 HD
HETATM   10  C8  UNL     1      29.651  24.878  91.935  1.00  0.00     0.250 C 
HETATM   11  C9  UNL     1      30.218  24.728  93.324  1.00  0.00     0.170 C 
HETATM   12  N3  UNL     1      31.651  24.473  93.261  1.00  0.00    -0.100 NA
HETATM   13  O2  UNL     1      32.238  25.675  93.013  1.00  0.00    -0.285 OA
HETATM   14  C10 UNL     1      32.919  26.032  94.189  1.00  0.00     0.223 C 
HETATM   15  C11 UNL     1      33.201  27.534  94.054  1.00  0.00     0.261 C 
HETATM   16  N4  UNL     1      31.987  28.220  93.752  1.00  0.00    -0.065 N 
ATOM     17  H41 UNL     1      31.192  27.580  93.739  1.00  0.00     0.277 HD
ATOM     18  H42 UNL     1      31.697  28.818  94.526  1.00  0.00     0.277 HD
ENDROOT
BRANCH   1  19
HETATM   19  C2  UNL     1      33.113  30.063  92.629  1.00  0.00     0.201 C 
BRANCH  19  20
HETATM   20  O1  UNL     1      33.995  29.956  91.558  1.00  0.00    -0.394 OA
HETATM   21  C1  UNL     1      35.308  29.837  91.960  1.00  0.00     0.201 C 
ENDBRANCH  19  20
ENDBRANCH   1  19
TORSDOF 2
ENDMDL
MODEL 2
REMARK VINA RESULT: -4.644624625      2.383      4.968
REMARK  2 active torsions:
REMARK  status: ('A' for Active; 'I' for Inactive)
REMARK    1  A    between atoms: O1_2  and  C2_3 
REMARK    2  A    between atoms: C2_3  and  C3_4 
ROOT
HETATM    1  C3  UNL     1      29.389  25.351  91.607  1.00  0.00     0.237 C 
HETATM    2  C4  UNL     1      28.737  25.510  92.939  1.00  0.00     0.307 C 
HETATM    3  N1  UNL     1      28.885  26.824  93.505  1.00  0.00     0.087 N 
HETATM    4  C5  UNL     1      27.546  27.427  93.543  1.00  0.00     0.310 C 
HETATM    5  C6  UNL     1      29.365  26.810  94.869  1.00  0.00     0.299 C 
HETATM    6  C7  UNL     1      30.829  27.162  94.973  1.00  0.00     0.262 C 
HETATM    7  N2  UNL     1      31.697  26.126  94.485  1.00  0.00    -0.072 N 
ATOM      8  H21 UNL     1      31.378  25.717  93.607  1.00  0.00     0.277 HD
ATOM      9  H22 UNL     1      31.660  25.276  95.047  1.00  0.00     0.277 HD
HETATM   10  C8  UNL     1      33.043  26.697  94.396  1.00  0.00     0.250 C 
HETATM   11  C9  UNL     1      33.182  27.613  93.207  1.00  0.00     0.170 C 
HETATM   12  N3  UNL     1      33.676  26.874  92.053  1.00  0.00    -0.100 NA
HETATM   13  O2  UNL     1      32.612  26.186  91.560  1.00  0.00    -0.285 OA
HETATM   14  C10 UNL     1      32.287  26.788  90.333  1.00  0.00     0.223 C 
HETATM   15  C11 UNL     1      30.868  26.305  90.008  1.00  0.00     0.261 C 
HETATM   16  N4  UNL     1      30.013  26.559  91.121  1.00  0.00    -0.065 N 
ATOM     17  H41 UNL     1      30.510  27.045  91.868  1.00  0.00     0.277 HD
ATOM     18  H42 UNL     1      29.319  27.272  90.901  1.00  0.00     0.277 HD
ENDROOT
BRANCH   1  19
HETATM   19  C2  UNL     1      28.474  24.758  90.561  1.00  0.00     0.201 C 
BRANCH  19  20
HETATM   20  O1  UNL     1      28.910  23.470  90.264  1.00  0.00    -0.394 OA
HETATM   21  C1  UNL     1      28.786  23.161  88.927  1.00  0.00     0.201 C 
ENDBRANCH  19  20
ENDBRANCH   1  19
TORSDOF 2
ENDMDL
MODEL 3
REMARK VINA RESULT: -4.569869382      1.318      1.553
REMARK  2 active torsions:
REMARK  status: ('A' for Active; 'I' for Inactive)
REMARK    1  A    between atoms: O1_2  and  C2_3 
REMARK    2  A    between atoms: C2_3  and  C3_4 
ROOT
HETATM    1  C3  UNL     1      33.700  28.630  92.567  1.00  0.00     0.237 C 
HETATM    2  C4  UNL     1      32.691  29.408  91.790  1.00  0.00     0.307 C 
HETATM    3  N1  UNL     1      31.387  29.433  92.395  1.00  0.00     0.087 N 
HETATM    4  C5  UNL     1      31.131  30.820  92.803  1.00  0.00     0.310 C 
HETATM    5  C6  UNL     1      30.325  29.074  91.481  1.00  0.00     0.299 C 
HETATM    6  C7  UNL     1      29.829  27.664  91.691  1.00  0.00     0.262 C 
HETATM    7  N2  UNL     1      30.764  26.664  91.253  1.00  0.00    -0.072 N 
ATOM      8  H21 UNL     1      31.724  26.866  91.530  1.00  0.00     0.277 HD
ATOM      9  H22 UNL     1      30.914  26.671  90.245  1.00  0.00     0.277 HD
HETATM   10  C8  UNL     1      30.282  25.375  91.754  1.00  0.00     0.250 C 
HETATM   11  C9  UNL     1      30.540  25.219  93.231  1.00  0.00     0.170 C 
HETATM   12  N3  UNL     1      31.820  24.559  93.455  1.00  0.00    -0.100 NA
HETATM   13  O2  UNL     1      32.774  25.508  93.258  1.00  0.00    -0.285 OA
HETATM   14  C10 UNL     1      33.327  25.779  94.521  1.00  0.00     0.223 C 
HETATM   15  C11 UNL     1      34.067  27.113  94.361  1.00  0.00     0.261 C 
HETATM   16  N4  UNL     1      33.184  28.082  93.798  1.00  0.00    -0.065 N 
ATOM     17  H41 UNL     1      32.247  27.699  93.669  1.00  0.00     0.277 HD
ATOM     18  H42 UNL     1      32.965  28.818  94.469  1.00  0.00     0.277 HD
ENDROOT
BRANCH   1  19
HETATM   19  C2  UNL     1      34.982  29.392  92.812  1.00  0.00     0.201 C 
BRANCH  19  20
HETATM   20  O1  UNL     1      34.674  30.736  93.004  1.00  0.00    -0.394 OA
HETATM   21  C1  UNL     1      35.046  31.194  94.249  1.00  0.00     0.201 C 
ENDBRANCH  19  20
ENDBRANCH   1  19
TORSDOF 2
ENDMDL
MODEL 4
REMARK VINA RESULT: -4.553052328      1.585      1.925
REMARK  2 active torsions:
REMARK  status: ('A' for Active; 'I' for Inactive)
REMARK    1  A    between atoms: O1_2  and  C2_3 
REMARK    2  A    between atoms: C2_3  and  C3_4 
ROOT
HETATM    1  C3  UNL     1      32.182  28.402  93.104  1.00  0.00     0.237 C 
HETATM    2  C4  UNL     1      31.520  29.557  92.431  1.00  0.00     0.307 C 
HETATM    3  N1  UNL     1      30.088  29.451  92.372  1.00  0.00     0.087 N 
HETATM    4  C5  UNL     1      29.544  30.518  93.223  1.00  0.00     0.310 C 
HETATM    5  C6  UNL     1      29.550  29.672  91.047  1.00  0.00     0.299 C 
HETATM    6  C7  UNL     1      29.159  28.389  90.358  1.00  0.00     0.262 C 
HETATM    7  N2  UNL     1      30.286  27.600  89.945  1.00  0.00    -0.072 N 
ATOM      8  H21 UNL     1      31.016  27.543  90.656  1.00  0.00     0.277 HD
ATOM      9  H22 UNL     1      30.845  28.049  89.220  1.00  0.00     0.277 HD
HETATM   10  C8  UNL     1      29.772  26.288  89.545  1.00  0.00     0.250 C 
HETATM   11  C9  UNL     1      29.400  25.447  90.739  1.00  0.00     0.170 C 
HETATM   12  N3  UNL     1      30.527  24.617  91.145  1.00  0.00    -0.100 NA
HETATM   13  O2  UNL     1      31.374  25.436  91.825  1.00  0.00    -0.285 OA
HETATM   14  C10 UNL     1      31.314  25.036  93.171  1.00  0.00     0.223 C 
HETATM   15  C11 UNL     1      31.913  26.202  93.967  1.00  0.00     0.261 C 
HETATM   16  N4  UNL     1      31.255  27.414  93.602  1.00  0.00    -0.065 N 
ATOM     17  H41 UNL     1      30.503  27.242  92.934  1.00  0.00     0.277 HD
ATOM     18  H42 UNL     1      30.700  27.782  94.375  1.00  0.00     0.277 HD
ENDROOT
BRANCH   1  19
HETATM   19  C2  UNL     1      33.158  28.817  94.180  1.00  0.00     0.201 C 
BRANCH  19  20
HETATM   20  O1  UNL     1      34.369  29.151  93.581  1.00  0.00    -0.394 OA
HETATM   21  C1  UNL     1      35.147  28.048  93.301  1.00  0.00     0.201 C 
ENDBRANCH  19  20
ENDBRANCH   1  19
TORSDOF 2
ENDMDL
MODEL 5
REMARK VINA RESULT: -4.393432978      3.678      5.212
REMARK  2 active torsions:
REMARK  status: ('A' for Active; 'I' for Inactive)
REMARK    1  A    between atoms: O1_2  and  C2_3 
REMARK    2  A    between atoms: C2_3  and  C3_4 
ROOT
HETATM    1  C3  UNL     1      31.708  25.054  88.637  1.00  0.00     0.237 C 
HETATM    2  C4  UNL     1      30.486  24.233  88.400  1.00  0.00     0.307 C 
HETATM    3  N1  UNL     1      29.260  24.908  88.730  1.00  0.00     0.087 N 
HETATM    4  C5  UNL     1      28.532  25.113  87.472  1.00  0.00     0.310 C 
HETATM    5  C6  UNL     1      28.389  24.128  89.583  1.00  0.00     0.299 C 
HETATM    6  C7  UNL     1      28.425  24.583  91.021  1.00  0.00     0.262 C 
HETATM    7  N2  UNL     1      29.650  24.246  91.691  1.00  0.00    -0.072 N 
ATOM      8  H21 UNL     1      30.479  24.427  91.125  1.00  0.00     0.277 HD
ATOM      9  H22 UNL     1      29.784  23.242  91.800  1.00  0.00     0.277 HD
HETATM   10  C8  UNL     1      29.658  24.968  92.966  1.00  0.00     0.250 C 
HETATM   11  C9  UNL     1      29.962  26.432  92.775  1.00  0.00     0.170 C 
HETATM   12  N3  UNL     1      31.393  26.674  92.901  1.00  0.00    -0.100 NA
HETATM   13  O2  UNL     1      31.949  26.274  91.726  1.00  0.00    -0.285 OA
HETATM   14  C10 UNL     1      32.377  27.443  91.074  1.00  0.00     0.223 C 
HETATM   15  C11 UNL     1      32.596  27.034  89.612  1.00  0.00     0.261 C 
HETATM   16  N4  UNL     1      31.425  26.386  89.119  1.00  0.00    -0.065 N 
ATOM     17  H41 UNL     1      30.683  26.376  89.820  1.00  0.00     0.277 HD
ATOM     18  H42 UNL     1      30.963  26.948  88.405  1.00  0.00     0.277 HD
ENDROOT
BRANCH   1  19
HETATM   19  C2  UNL     1      32.639  25.098  87.448  1.00  0.00     0.201 C 
BRANCH  19  20
HETATM   20  O1  UNL     1      32.962  23.793  87.085  1.00  0.00    -0.394 OA
HETATM   21  C1  UNL     1      33.396  23.695  85.781  1.00  0.00     0.201 C 
ENDBRANCH  19  20
ENDBRANCH   1  19
TORSDOF 2
ENDMDL
