MODEL 1
REMARK VINA RESULT: -7.976888175      0.000      0.000
REMARK  3 active torsions:
REMARK  status: ('A' for Active; 'I' for Inactive)
REMARK    1  A    between atoms: C2_2  and  C7_18 
REMARK    2  A    between atoms: N1_3  and  N2_5 
REMARK    3  A    between atoms: N2_5  and  C3_7 
ROOT
HETATM    1  C3  UNL     1      30.958  23.927  86.701  1.00  0.00     0.702 C 
HETATM    2  N3  UNL     1      30.554  23.047  87.553  1.00  0.00    -0.115 N 
ATOM      3  H3  UNL     1      30.931  22.100  87.514  1.00  0.00     0.197 HD
HETATM    4  S1  UNL     1      29.395  23.448  88.749  1.00  0.00     0.246 S 
HETATM    5  O1  UNL     1      29.994  23.567  90.121  1.00  0.00    -0.205 OA
HETATM    6  O2  UNL     1      28.318  22.381  88.845  1.00  0.00    -0.205 OA
HETATM    7  C4  UNL     1      28.639  24.979  88.265  1.00  0.00     0.189 C 
HETATM    8  C5  UNL     1      29.740  25.881  87.756  1.00  0.00     0.111 C 
HETATM    9  C6  UNL     1      30.728  26.230  88.845  1.00  0.00     0.034 C 
HETATM   10  N4  UNL     1      30.490  25.262  86.685  1.00  0.00    -0.219 N 
ATOM     11  H4  UNL     1      30.694  25.826  85.861  1.00  0.00     0.178 HD
ENDROOT
BRANCH   1  12
HETATM   12  N2  UNL     1      31.934  23.522  85.725  1.00  0.00    -0.131 N 
ATOM     13  H2  UNL     1      31.643  22.911  84.961  1.00  0.00     0.205 HD
BRANCH  12  14
HETATM   14  N1  UNL     1      33.252  23.932  85.784  1.00  0.00    -0.286 N 
HETATM   15  C2  UNL     1      34.145  23.245  85.138  1.00  0.00     0.087 C 
HETATM   16  C1  UNL     1      33.757  22.042  84.349  1.00  0.00     0.075 C 
ATOM     17  H1  UNL     1      33.518  24.756  86.323  1.00  0.00     0.187 HD
BRANCH  15  18
HETATM   18  C7  UNL     1      35.527  23.679  85.203  1.00  0.00     0.278 C 
HETATM   19  N5  UNL     1      35.856  24.878  85.877  1.00  0.00    -0.056 NA
HETATM   20  O3  UNL     1      36.400  22.967  84.652  1.00  0.00    -0.270 OA
ENDBRANCH  15  18
ENDBRANCH  12  14
ENDBRANCH   1  12
TORSDOF 3
ENDMDL
MODEL 2
REMARK VINA RESULT: -7.878447821      2.029      2.490
REMARK  3 active torsions:
REMARK  status: ('A' for Active; 'I' for Inactive)
REMARK    1  A    between atoms: C2_2  and  C7_18 
REMARK    2  A    between atoms: N1_3  and  N2_5 
REMARK    3  A    between atoms: N2_5  and  C3_7 
ROOT
HETATM    1  C3  UNL     1      31.663  23.815  87.864  1.00  0.00     0.702 C 
HETATM    2  N3  UNL     1      31.751  25.102  87.842  1.00  0.00    -0.115 N 
ATOM      3  H3  UNL     1      32.464  25.547  87.264  1.00  0.00     0.197 HD
HETATM    4  S1  UNL     1      30.688  26.073  88.769  1.00  0.00     0.246 S 
HETATM    5  O1  UNL     1      29.655  26.768  87.929  1.00  0.00    -0.205 OA
HETATM    6  O2  UNL     1      31.445  27.165  89.505  1.00  0.00    -0.205 OA
HETATM    7  C4  UNL     1      29.909  25.016  89.965  1.00  0.00     0.189 C 
HETATM    8  C5  UNL     1      29.550  23.729  89.258  1.00  0.00     0.111 C 
HETATM    9  C6  UNL     1      28.526  23.952  88.169  1.00  0.00     0.034 C 
HETATM   10  N4  UNL     1      30.705  23.118  88.636  1.00  0.00    -0.219 N 
ATOM     11  H4  UNL     1      30.837  22.115  88.764  1.00  0.00     0.178 HD
ENDROOT
BRANCH   1  12
HETATM   12  N2  UNL     1      32.588  23.062  87.060  1.00  0.00    -0.131 N 
ATOM     13  H2  UNL     1      32.310  22.140  86.722  1.00  0.00     0.205 HD
BRANCH  12  14
HETATM   14  N1  UNL     1      33.841  23.542  86.731  1.00  0.00    -0.286 N 
HETATM   15  C2  UNL     1      34.363  23.184  85.597  1.00  0.00     0.087 C 
HETATM   16  C1  UNL     1      33.629  22.277  84.671  1.00  0.00     0.075 C 
ATOM     17  H1  UNL     1      34.344  24.163  87.364  1.00  0.00     0.187 HD
BRANCH  15  18
HETATM   18  C7  UNL     1      35.679  23.691  85.255  1.00  0.00     0.278 C 
HETATM   19  N5  UNL     1      36.082  24.965  85.717  1.00  0.00    -0.056 NA
HETATM   20  O3  UNL     1      36.428  22.972  84.551  1.00  0.00    -0.270 OA
ENDBRANCH  15  18
ENDBRANCH  12  14
ENDBRANCH   1  12
TORSDOF 3
ENDMDL
MODEL 3
REMARK VINA RESULT: -7.750001917      1.169      1.192
REMARK  3 active torsions:
REMARK  status: ('A' for Active; 'I' for Inactive)
REMARK    1  A    between atoms: C2_2  and  C7_18 
REMARK    2  A    between atoms: N1_3  and  N2_5 
REMARK    3  A    between atoms: N2_5  and  C3_7 
ROOT
HETATM    1  C3  UNL     1      30.763  23.634  87.087  1.00  0.00     0.702 C 
HETATM    2  N3  UNL     1      30.851  23.216  88.304  1.00  0.00    -0.115 N 
ATOM      3  H3  UNL     1      31.615  22.592  88.566  1.00  0.00     0.197 HD
HETATM    4  S1  UNL     1      29.705  23.692  89.484  1.00  0.00     0.246 S 
HETATM    5  O1  UNL     1      30.259  24.689  90.462  1.00  0.00    -0.205 OA
HETATM    6  O2  UNL     1      29.239  22.502  90.305  1.00  0.00    -0.205 OA
HETATM    7  C4  UNL     1      28.309  24.374  88.625  1.00  0.00     0.189 C 
HETATM    8  C5  UNL     1      28.849  25.238  87.509  1.00  0.00     0.111 C 
HETATM    9  C6  UNL     1      29.628  26.419  88.040  1.00  0.00     0.034 C 
HETATM   10  N4  UNL     1      29.737  24.500  86.639  1.00  0.00    -0.219 N 
ATOM     11  H4  UNL     1      29.616  24.610  85.632  1.00  0.00     0.178 HD
ENDROOT
BRANCH   1  12
HETATM   12  N2  UNL     1      31.760  23.195  86.148  1.00  0.00    -0.131 N 
ATOM     13  H2  UNL     1      31.516  22.468  85.474  1.00  0.00     0.205 HD
BRANCH  12  14
HETATM   14  N1  UNL     1      33.036  23.722  86.126  1.00  0.00    -0.286 N 
HETATM   15  C2  UNL     1      33.908  23.202  85.315  1.00  0.00     0.087 C 
HETATM   16  C1  UNL     1      33.540  22.064  84.428  1.00  0.00     0.075 C 
ATOM     17  H1  UNL     1      33.289  24.502  86.732  1.00  0.00     0.187 HD
BRANCH  15  18
HETATM   18  C7  UNL     1      35.247  23.760  85.295  1.00  0.00     0.278 C 
HETATM   19  N5  UNL     1      36.292  23.052  84.659  1.00  0.00    -0.056 NA
HETATM   20  O3  UNL     1      35.437  24.868  85.850  1.00  0.00    -0.270 OA
ENDBRANCH  15  18
ENDBRANCH  12  14
ENDBRANCH   1  12
TORSDOF 3
ENDMDL
MODEL 4
REMARK VINA RESULT: -7.737108780      1.900      2.460
REMARK  3 active torsions:
REMARK  status: ('A' for Active; 'I' for Inactive)
REMARK    1  A    between atoms: C2_2  and  C7_18 
REMARK    2  A    between atoms: N1_3  and  N2_5 
REMARK    3  A    between atoms: N2_5  and  C3_7 
ROOT
HETATM    1  C3  UNL     1      31.613  24.819  87.642  1.00  0.00     0.702 C 
HETATM    2  N3  UNL     1      31.604  25.452  88.766  1.00  0.00    -0.115 N 
ATOM      3  H3  UNL     1      32.333  26.138  88.963  1.00  0.00     0.197 HD
HETATM    4  S1  UNL     1      30.385  25.158  89.933  1.00  0.00     0.246 S 
HETATM    5  O1  UNL     1      29.388  26.278  90.026  1.00  0.00    -0.205 OA
HETATM    6  O2  UNL     1      30.982  25.002  91.321  1.00  0.00    -0.205 OA
HETATM    7  C4  UNL     1      29.577  23.641  89.486  1.00  0.00     0.189 C 
HETATM    8  C5  UNL     1      29.388  23.659  87.987  1.00  0.00     0.111 C 
HETATM    9  C6  UNL     1      28.460  24.770  87.551  1.00  0.00     0.034 C 
HETATM   10  N4  UNL     1      30.641  23.855  87.290  1.00  0.00    -0.219 N 
ATOM     11  H4  UNL     1      30.836  23.255  86.489  1.00  0.00     0.178 HD
ENDROOT
BRANCH   1  12
HETATM   12  N2  UNL     1      32.666  25.117  86.709  1.00  0.00    -0.131 N 
ATOM     13  H2  UNL     1      33.043  26.065  86.676  1.00  0.00     0.205 HD
BRANCH  12  14
HETATM   14  N1  UNL     1      33.185  24.164  85.854  1.00  0.00    -0.286 N 
HETATM   15  C2  UNL     1      34.476  24.032  85.784  1.00  0.00     0.087 C 
HETATM   16  C1  UNL     1      35.376  24.887  86.606  1.00  0.00     0.075 C 
ATOM     17  H1  UNL     1      32.570  23.577  85.291  1.00  0.00     0.187 HD
BRANCH  15  18
HETATM   18  C7  UNL     1      35.016  23.030  84.885  1.00  0.00     0.278 C 
HETATM   19  N5  UNL     1      36.401  23.017  84.599  1.00  0.00    -0.056 NA
HETATM   20  O3  UNL     1      34.227  22.194  84.383  1.00  0.00    -0.270 OA
ENDBRANCH  15  18
ENDBRANCH  12  14
ENDBRANCH   1  12
TORSDOF 3
ENDMDL
MODEL 5
REMARK VINA RESULT: -7.555380595      1.375      1.871
REMARK  3 active torsions:
REMARK  status: ('A' for Active; 'I' for Inactive)
REMARK    1  A    between atoms: C2_2  and  C7_18 
REMARK    2  A    between atoms: N1_3  and  N2_5 
REMARK    3  A    between atoms: N2_5  and  C3_7 
ROOT
HETATM    1  C3  UNL     1      31.879  25.002  87.936  1.00  0.00     0.702 C 
HETATM    2  N3  UNL     1      31.296  23.864  88.102  1.00  0.00    -0.115 N 
ATOM      3  H3  UNL     1      31.755  23.012  87.779  1.00  0.00     0.197 HD
HETATM    4  S1  UNL     1      29.762  23.762  88.857  1.00  0.00     0.246 S 
HETATM    5  O1  UNL     1      29.836  23.204  90.250  1.00  0.00    -0.205 OA
HETATM    6  O2  UNL     1      28.829  22.848  88.081  1.00  0.00    -0.205 OA
HETATM    7  C4  UNL     1      29.070  25.397  88.878  1.00  0.00     0.189 C 
HETATM    8  C5  UNL     1      30.183  26.350  89.249  1.00  0.00     0.111 C 
HETATM    9  C6  UNL     1      30.695  26.096  90.648  1.00  0.00     0.034 C 
HETATM   10  N4  UNL     1      31.314  26.230  88.354  1.00  0.00    -0.219 N 
ATOM     11  H4  UNL     1      31.732  27.089  88.000  1.00  0.00     0.178 HD
ENDROOT
BRANCH   1  12
HETATM   12  N2  UNL     1      33.166  25.014  87.295  1.00  0.00    -0.131 N 
ATOM     13  H2  UNL     1      33.846  25.725  87.567  1.00  0.00     0.205 HD
BRANCH  12  14
HETATM   14  N1  UNL     1      33.515  24.096  86.323  1.00  0.00    -0.286 N 
HETATM   15  C2  UNL     1      34.756  24.038  85.943  1.00  0.00     0.087 C 
HETATM   16  C1  UNL     1      35.780  24.939  86.541  1.00  0.00     0.075 C 
ATOM     17  H1  UNL     1      32.815  23.479  85.913  1.00  0.00     0.187 HD
BRANCH  15  18
HETATM   18  C7  UNL     1      35.118  23.072  84.922  1.00  0.00     0.278 C 
HETATM   19  N5  UNL     1      34.125  22.233  84.366  1.00  0.00    -0.056 NA
HETATM   20  O3  UNL     1      36.317  23.013  84.559  1.00  0.00    -0.270 OA
ENDBRANCH  15  18
ENDBRANCH  12  14
ENDBRANCH   1  12
TORSDOF 3
ENDMDL
