MODEL 1
REMARK VINA RESULT: -7.212811037      0.000      0.000
REMARK  15 active torsions:
REMARK  status: ('A' for Active; 'I' for Inactive)
REMARK    1  A    between atoms: N1_1  and  N2_4 
REMARK       I    between atoms: N2_4  and  C1_6 
REMARK    2  A    between atoms: C1_6  and  C2_8 
REMARK    3  A    between atoms: C2_8  and  N3_9 
REMARK    4  A    between atoms: N3_9  and  C3_11 
REMARK    5  A    between atoms: C5_15  and  C6_16 
REMARK    6  A    between atoms: C6_16  and  O3_17 
REMARK    7  A    between atoms: C6_16  and  O4_19 
REMARK    8  A    between atoms: C7_21  and  C8_22 
REMARK    9  A    between atoms: C9_25  and  O7_26 
REMARK   10  A    between atoms: C9_25  and  C10_28 
REMARK   11  A    between atoms: C10_28  and  O8_29 
REMARK   12  A    between atoms: C11_31  and  O9_32 
REMARK   13  A    between atoms: C12_34  and  O10_35 
REMARK   14  A    between atoms: C13_37  and  O11_38 
REMARK   15  A    between atoms: O11_38  and  S1_39 
ROOT
HETATM    1  C3  UNL     1      59.466  41.978  39.484  1.00  0.00     0.207 C 
HETATM    2  C4  UNL     1      59.439  43.464  39.486  1.00  0.00     0.252 C 
HETATM    3  O2  UNL     1      58.683  44.137  40.262  1.00  0.00    -0.270 OA
HETATM    4  N4  UNL     1      60.273  44.203  38.604  1.00  0.00    -0.275 N 
HETATM    5  C5  UNL     1      60.156  45.463  37.889  1.00  0.00     0.088 C 
HETATM    6  C7  UNL     1      61.187  45.667  37.090  1.00  0.00     0.087 C 
HETATM    7  C9  UNL     1      62.042  44.460  37.159  1.00  0.00     0.167 C 
HETATM    8  C11 UNL     1      61.567  43.656  38.332  1.00  0.00     0.208 C 
HETATM    9  C12 UNL     1      61.474  42.179  38.117  1.00  0.00     0.210 C 
HETATM   10  C13 UNL     1      60.912  41.558  39.412  1.00  0.00     0.210 C 
ENDROOT
BRANCH   1  11
HETATM   11  N3  UNL     1      58.722  41.353  40.514  1.00  0.00    -0.379 N 
ATOM     12  H3  UNL     1      59.139  40.855  41.301  1.00  0.00     0.160 HD
BRANCH  11  13
HETATM   13  C2  UNL     1      57.310  41.508  40.314  1.00  0.00     0.160 C 
BRANCH  13  14
HETATM   14  C1  UNL     1      56.427  40.437  40.719  1.00  0.00     0.274 C 
HETATM   15  N2  UNL     1      55.188  40.150  40.117  1.00  0.00    -0.272 N 
ATOM     16  H2  UNL     1      54.864  40.722  39.338  1.00  0.00     0.189 HD
HETATM   17  O1  UNL     1      56.765  39.699  41.675  1.00  0.00    -0.265 OA
BRANCH  15  18
HETATM   18  N1  UNL     1      54.377  39.070  40.579  1.00  0.00    -0.342 N 
ATOM     19  H12 UNL     1      54.255  38.949  41.584  1.00  0.00     0.176 HD
ATOM     20  H11 UNL     1      53.929  38.430  39.923  1.00  0.00     0.176 HD
ENDBRANCH  15  18
ENDBRANCH  13  14
ENDBRANCH  11  13
ENDBRANCH   1  11
BRANCH  10  21
HETATM   21  O11 UNL     1      61.578  41.938  40.535  1.00  0.00    -0.246 OA
BRANCH  21  22
HETATM   22  S1  UNL     1      62.103  40.571  41.373  1.00  0.00     0.252 S 
HETATM   23  O12 UNL     1      60.897  39.760  41.802  1.00  0.00    -0.572 OA
HETATM   24  O13 UNL     1      62.876  41.038  42.563  1.00  0.00    -0.572 OA
HETATM   25  O14 UNL     1      63.088  39.587  40.449  1.00  0.00    -0.572 OA
ENDBRANCH  21  22
ENDBRANCH  10  21
BRANCH   9  26
HETATM   26  O10 UNL     1      60.548  41.787  37.150  1.00  0.00    -0.388 OA
ATOM     27  H10 UNL     1      59.871  41.199  37.464  1.00  0.00     0.210 HD
ENDBRANCH   9  26
BRANCH   5  28
HETATM   28  C6  UNL     1      58.954  46.298  38.163  1.00  0.00     0.306 C 
BRANCH  28  29
HETATM   29  O3  UNL     1      58.089  46.477  37.122  1.00  0.00    -0.366 OA
ATOM     30  H3  UNL     1      58.479  46.600  36.265  1.00  0.00     0.213 HD
ENDBRANCH  28  29
BRANCH  28  31
HETATM   31  O4  UNL     1      59.352  47.588  38.596  1.00  0.00    -0.366 OA
ATOM     32  H4  UNL     1      60.140  47.855  38.137  1.00  0.00     0.213 HD
ENDBRANCH  28  31
ENDBRANCH   5  28
BRANCH   8  33
HETATM   33  O9  UNL     1      62.420  43.855  39.435  1.00  0.00    -0.365 OA
ATOM     34  H9  UNL     1      63.055  43.150  39.490  1.00  0.00     0.212 HD
ENDBRANCH   8  33
BRANCH   6  35
HETATM   35  C8  UNL     1      61.415  46.837  36.230  1.00  0.00     0.210 C 
HETATM   36  O5  UNL     1      60.603  47.453  35.551  1.00  0.00    -0.644 OA
HETATM   37  O6  UNL     1      62.731  47.344  36.165  1.00  0.00    -0.644 OA
ENDBRANCH   6  35
BRANCH   7  38
HETATM   38  O7  UNL     1      63.344  44.904  37.493  1.00  0.00    -0.377 OA
ATOM     39  H7  UNL     1      63.658  44.333  38.184  1.00  0.00     0.211 HD
ENDBRANCH   7  38
BRANCH   7  40
HETATM   40  C10 UNL     1      62.173  43.645  35.928  1.00  0.00     0.212 C 
BRANCH  40  41
HETATM   41  O8  UNL     1      63.395  43.817  35.323  1.00  0.00    -0.397 OA
ATOM     42  H8  UNL     1      63.346  44.411  34.583  1.00  0.00     0.209 HD
ENDBRANCH  40  41
ENDBRANCH   7  40
TORSDOF 15
ENDMDL
MODEL 2
REMARK VINA RESULT: -6.715571259      2.863      5.116
REMARK  15 active torsions:
REMARK  status: ('A' for Active; 'I' for Inactive)
REMARK    1  A    between atoms: N1_1  and  N2_4 
REMARK       I    between atoms: N2_4  and  C1_6 
REMARK    2  A    between atoms: C1_6  and  C2_8 
REMARK    3  A    between atoms: C2_8  and  N3_9 
REMARK    4  A    between atoms: N3_9  and  C3_11 
REMARK    5  A    between atoms: C5_15  and  C6_16 
REMARK    6  A    between atoms: C6_16  and  O3_17 
REMARK    7  A    between atoms: C6_16  and  O4_19 
REMARK    8  A    between atoms: C7_21  and  C8_22 
REMARK    9  A    between atoms: C9_25  and  O7_26 
REMARK   10  A    between atoms: C9_25  and  C10_28 
REMARK   11  A    between atoms: C10_28  and  O8_29 
REMARK   12  A    between atoms: C11_31  and  O9_32 
REMARK   13  A    between atoms: C12_34  and  O10_35 
REMARK   14  A    between atoms: C13_37  and  O11_38 
REMARK   15  A    between atoms: O11_38  and  S1_39 
ROOT
HETATM    1  C3  UNL     1      61.789  40.644  40.592  1.00  0.00     0.207 C 
HETATM    2  C4  UNL     1      61.831  40.970  39.142  1.00  0.00     0.252 C 
HETATM    3  O2  UNL     1      62.149  40.112  38.252  1.00  0.00    -0.270 OA
HETATM    4  N4  UNL     1      61.510  42.277  38.686  1.00  0.00    -0.275 N 
HETATM    5  C5  UNL     1      61.961  43.127  37.597  1.00  0.00     0.088 C 
HETATM    6  C7  UNL     1      61.421  44.330  37.663  1.00  0.00     0.087 C 
HETATM    7  C9  UNL     1      60.617  44.383  38.906  1.00  0.00     0.167 C 
HETATM    8  C11 UNL     1      60.483  42.974  39.398  1.00  0.00     0.208 C 
HETATM    9  C12 UNL     1      60.646  42.778  40.872  1.00  0.00     0.210 C 
HETATM   10  C13 UNL     1      60.536  41.266  41.152  1.00  0.00     0.210 C 
ENDROOT
BRANCH   1  11
HETATM   11  N3  UNL     1      61.962  39.276  40.914  1.00  0.00    -0.379 N 
ATOM     12  H3  UNL     1      61.196  38.609  41.014  1.00  0.00     0.160 HD
BRANCH  11  13
HETATM   13  C2  UNL     1      63.347  38.944  41.082  1.00  0.00     0.160 C 
BRANCH  13  14
HETATM   14  C1  UNL     1      63.909  37.871  40.292  1.00  0.00     0.274 C 
HETATM   15  N2  UNL     1      64.286  37.983  38.942  1.00  0.00    -0.272 N 
ATOM     16  H2  UNL     1      64.165  38.873  38.459  1.00  0.00     0.189 HD
HETATM   17  O1  UNL     1      64.079  36.748  40.825  1.00  0.00    -0.265 OA
BRANCH  15  18
HETATM   18  N1  UNL     1      64.836  36.871  38.235  1.00  0.00    -0.342 N 
ATOM     19  H12 UNL     1      65.223  36.097  38.774  1.00  0.00     0.176 HD
ATOM     20  H11 UNL     1      64.844  36.847  37.215  1.00  0.00     0.176 HD
ENDBRANCH  15  18
ENDBRANCH  13  14
ENDBRANCH  11  13
ENDBRANCH   1  11
BRANCH  10  21
HETATM   21  O11 UNL     1      59.430  40.688  40.612  1.00  0.00    -0.246 OA
BRANCH  21  22
HETATM   22  S1  UNL     1      58.116  40.898  41.648  1.00  0.00     0.252 S 
HETATM   23  O12 UNL     1      58.549  40.587  43.066  1.00  0.00    -0.572 OA
HETATM   24  O13 UNL     1      57.037  39.964  41.208  1.00  0.00    -0.572 OA
HETATM   25  O14 UNL     1      57.515  42.457  41.621  1.00  0.00    -0.572 OA
ENDBRANCH  21  22
ENDBRANCH  10  21
BRANCH   9  26
HETATM   26  O10 UNL     1      61.910  43.100  41.366  1.00  0.00    -0.388 OA
ATOM     27  H10 UNL     1      62.145  44.018  41.287  1.00  0.00     0.210 HD
ENDBRANCH   9  26
BRANCH   5  28
HETATM   28  C6  UNL     1      62.910  42.537  36.613  1.00  0.00     0.306 C 
BRANCH  28  29
HETATM   29  O3  UNL     1      63.580  43.416  35.813  1.00  0.00    -0.366 OA
ATOM     30  H3  UNL     1      64.339  43.841  36.195  1.00  0.00     0.213 HD
ENDBRANCH  28  29
BRANCH  28  31
HETATM   31  O4  UNL     1      62.220  41.641  35.756  1.00  0.00    -0.366 OA
ATOM     32  H4  UNL     1      62.841  41.174  35.210  1.00  0.00     0.213 HD
ENDBRANCH  28  31
ENDBRANCH   5  28
BRANCH   8  33
HETATM   33  O9  UNL     1      59.218  42.457  39.056  1.00  0.00    -0.365 OA
ATOM     34  H9  UNL     1      59.058  42.567  38.126  1.00  0.00     0.212 HD
ENDBRANCH   8  33
BRANCH   6  35
HETATM   35  C8  UNL     1      61.633  45.442  36.725  1.00  0.00     0.210 C 
HETATM   36  O5  UNL     1      62.670  46.049  36.484  1.00  0.00    -0.644 OA
HETATM   37  O6  UNL     1      60.515  45.884  35.986  1.00  0.00    -0.644 OA
ENDBRANCH   6  35
BRANCH   7  38
HETATM   38  O7  UNL     1      59.314  44.789  38.527  1.00  0.00    -0.377 OA
ATOM     39  H7  UNL     1      59.024  45.415  39.181  1.00  0.00     0.211 HD
ENDBRANCH   7  38
BRANCH   7  40
HETATM   40  C10 UNL     1      61.061  45.316  39.968  1.00  0.00     0.212 C 
BRANCH  40  41
HETATM   41  O8  UNL     1      60.598  46.594  39.760  1.00  0.00    -0.397 OA
ATOM     42  H8  UNL     1      61.069  47.233  40.282  1.00  0.00     0.209 HD
ENDBRANCH  40  41
ENDBRANCH   7  40
TORSDOF 15
ENDMDL
MODEL 3
REMARK VINA RESULT: -6.673067349      2.117      2.634
REMARK  15 active torsions:
REMARK  status: ('A' for Active; 'I' for Inactive)
REMARK    1  A    between atoms: N1_1  and  N2_4 
REMARK       I    between atoms: N2_4  and  C1_6 
REMARK    2  A    between atoms: C1_6  and  C2_8 
REMARK    3  A    between atoms: C2_8  and  N3_9 
REMARK    4  A    between atoms: N3_9  and  C3_11 
REMARK    5  A    between atoms: C5_15  and  C6_16 
REMARK    6  A    between atoms: C6_16  and  O3_17 
REMARK    7  A    between atoms: C6_16  and  O4_19 
REMARK    8  A    between atoms: C7_21  and  C8_22 
REMARK    9  A    between atoms: C9_25  and  O7_26 
REMARK   10  A    between atoms: C9_25  and  C10_28 
REMARK   11  A    between atoms: C10_28  and  O8_29 
REMARK   12  A    between atoms: C11_31  and  O9_32 
REMARK   13  A    between atoms: C12_34  and  O10_35 
REMARK   14  A    between atoms: C13_37  and  O11_38 
REMARK   15  A    between atoms: O11_38  and  S1_39 
ROOT
HETATM    1  C3  UNL     1      60.633  41.637  39.012  1.00  0.00     0.207 C 
HETATM    2  C4  UNL     1      60.887  43.077  39.282  1.00  0.00     0.252 C 
HETATM    3  O2  UNL     1      60.726  43.599  40.436  1.00  0.00    -0.270 OA
HETATM    4  N4  UNL     1      61.327  43.941  38.244  1.00  0.00    -0.275 N 
HETATM    5  C5  UNL     1      61.123  45.341  37.913  1.00  0.00     0.088 C 
HETATM    6  C7  UNL     1      61.673  45.652  36.754  1.00  0.00     0.087 C 
HETATM    7  C9  UNL     1      62.218  44.402  36.177  1.00  0.00     0.167 C 
HETATM    8  C11 UNL     1      62.213  43.378  37.271  1.00  0.00     0.208 C 
HETATM    9  C12 UNL     1      61.758  42.008  36.881  1.00  0.00     0.210 C 
HETATM   10  C13 UNL     1      61.768  41.138  38.155  1.00  0.00     0.210 C 
ENDROOT
BRANCH   1  11
HETATM   11  N3  UNL     1      60.362  40.841  40.151  1.00  0.00    -0.379 N 
ATOM     12  H3  UNL     1      61.058  40.269  40.629  1.00  0.00     0.160 HD
BRANCH  11  13
HETATM   13  C2  UNL     1      58.987  40.939  40.549  1.00  0.00     0.160 C 
BRANCH  13  14
HETATM   14  C1  UNL     1      58.679  41.179  41.941  1.00  0.00     0.274 C 
HETATM   15  N2  UNL     1      59.358  42.093  42.766  1.00  0.00    -0.272 N 
ATOM     16  H2  UNL     1      60.129  42.640  42.382  1.00  0.00     0.189 HD
HETATM   17  O1  UNL     1      57.745  40.535  42.476  1.00  0.00    -0.265 OA
BRANCH  15  18
HETATM   18  N1  UNL     1      58.987  42.270  44.133  1.00  0.00    -0.342 N 
ATOM     19  H12 UNL     1      58.012  42.121  44.395  1.00  0.00     0.176 HD
ATOM     20  H11 UNL     1      59.676  42.538  44.836  1.00  0.00     0.176 HD
ENDBRANCH  15  18
ENDBRANCH  13  14
ENDBRANCH  11  13
ENDBRANCH   1  11
BRANCH  10  21
HETATM   21  O11 UNL     1      62.942  41.184  38.839  1.00  0.00    -0.246 OA
BRANCH  21  22
HETATM   22  S1  UNL     1      63.497  39.616  39.119  1.00  0.00     0.252 S 
HETATM   23  O12 UNL     1      65.012  39.626  39.155  1.00  0.00    -0.572 OA
HETATM   24  O13 UNL     1      63.001  38.754  38.005  1.00  0.00    -0.572 OA
HETATM   25  O14 UNL     1      62.950  38.986  40.567  1.00  0.00    -0.572 OA
ENDBRANCH  21  22
ENDBRANCH  10  21
BRANCH   9  26
HETATM   26  O10 UNL     1      60.431  41.933  36.458  1.00  0.00    -0.388 OA
ATOM     27  H10 UNL     1      60.279  42.241  35.572  1.00  0.00     0.210 HD
ENDBRANCH   9  26
BRANCH   5  28
HETATM   28  C6  UNL     1      60.370  46.175  38.891  1.00  0.00     0.306 C 
BRANCH  28  29
HETATM   29  O3  UNL     1      60.907  46.276  40.141  1.00  0.00    -0.366 OA
ATOM     30  H3  UNL     1      61.323  47.103  40.357  1.00  0.00     0.213 HD
ENDBRANCH  28  29
BRANCH  28  31
HETATM   31  O4  UNL     1      59.055  45.667  39.045  1.00  0.00    -0.366 OA
ATOM     32  H4  UNL     1      58.549  45.838  38.260  1.00  0.00     0.213 HD
ENDBRANCH  28  31
ENDBRANCH   5  28
BRANCH   8  33
HETATM   33  O9  UNL     1      63.506  43.239  37.813  1.00  0.00    -0.365 OA
ATOM     34  H9  UNL     1      63.927  42.463  37.464  1.00  0.00     0.212 HD
ENDBRANCH   8  33
BRANCH   6  35
HETATM   35  C8  UNL     1      61.681  46.975  36.111  1.00  0.00     0.210 C 
HETATM   36  O5  UNL     1      62.610  47.765  36.004  1.00  0.00    -0.644 OA
HETATM   37  O6  UNL     1      60.473  47.413  35.524  1.00  0.00    -0.644 OA
ENDBRANCH   6  35
BRANCH   7  38
HETATM   38  O7  UNL     1      63.581  44.653  35.883  1.00  0.00    -0.377 OA
ATOM     39  H7  UNL     1      64.017  43.808  35.874  1.00  0.00     0.211 HD
ENDBRANCH   7  38
BRANCH   7  40
HETATM   40  C10 UNL     1      61.600  43.901  34.926  1.00  0.00     0.212 C 
BRANCH  40  41
HETATM   41  O8  UNL     1      60.298  44.320  34.790  1.00  0.00    -0.397 OA
ATOM     42  H8  UNL     1      59.891  43.971  34.006  1.00  0.00     0.209 HD
ENDBRANCH  40  41
ENDBRANCH   7  40
TORSDOF 15
ENDMDL
MODEL 4
REMARK VINA RESULT: -6.652393124      2.411      4.645
REMARK  15 active torsions:
REMARK  status: ('A' for Active; 'I' for Inactive)
REMARK    1  A    between atoms: N1_1  and  N2_4 
REMARK       I    between atoms: N2_4  and  C1_6 
REMARK    2  A    between atoms: C1_6  and  C2_8 
REMARK    3  A    between atoms: C2_8  and  N3_9 
REMARK    4  A    between atoms: N3_9  and  C3_11 
REMARK    5  A    between atoms: C5_15  and  C6_16 
REMARK    6  A    between atoms: C6_16  and  O3_17 
REMARK    7  A    between atoms: C6_16  and  O4_19 
REMARK    8  A    between atoms: C7_21  and  C8_22 
REMARK    9  A    between atoms: C9_25  and  O7_26 
REMARK   10  A    between atoms: C9_25  and  C10_28 
REMARK   11  A    between atoms: C10_28  and  O8_29 
REMARK   12  A    between atoms: C11_31  and  O9_32 
REMARK   13  A    between atoms: C12_34  and  O10_35 
REMARK   14  A    between atoms: C13_37  and  O11_38 
REMARK   15  A    between atoms: O11_38  and  S1_39 
ROOT
HETATM    1  C3  UNL     1      60.480  42.608  39.727  1.00  0.00     0.207 C 
HETATM    2  C4  UNL     1      60.653  43.141  38.349  1.00  0.00     0.252 C 
HETATM    3  O2  UNL     1      60.838  42.385  37.338  1.00  0.00    -0.270 OA
HETATM    4  N4  UNL     1      60.617  44.540  38.106  1.00  0.00    -0.275 N 
HETATM    5  C5  UNL     1      61.276  45.441  37.176  1.00  0.00     0.088 C 
HETATM    6  C7  UNL     1      60.980  46.703  37.427  1.00  0.00     0.087 C 
HETATM    7  C9  UNL     1      60.144  46.722  38.650  1.00  0.00     0.167 C 
HETATM    8  C11 UNL     1      59.714  45.310  38.906  1.00  0.00     0.208 C 
HETATM    9  C12 UNL     1      59.767  44.859  40.331  1.00  0.00     0.210 C 
HETATM   10  C13 UNL     1      59.349  43.375  40.362  1.00  0.00     0.210 C 
ENDROOT
BRANCH   1  11
HETATM   11  N3  UNL     1      60.367  41.201  39.826  1.00  0.00    -0.379 N 
ATOM     12  H3  UNL     1      59.565  40.665  39.492  1.00  0.00     0.160 HD
BRANCH  11  13
HETATM   13  C2  UNL     1      61.518  40.621  40.455  1.00  0.00     0.160 C 
BRANCH  13  14
HETATM   14  C1  UNL     1      62.395  39.782  39.668  1.00  0.00     0.274 C 
HETATM   15  N2  UNL     1      62.603  39.917  38.284  1.00  0.00    -0.272 N 
ATOM     16  H2  UNL     1      62.112  40.649  37.772  1.00  0.00     0.189 HD
HETATM   17  O1  UNL     1      63.024  38.858  40.238  1.00  0.00    -0.265 OA
BRANCH  15  18
HETATM   18  N1  UNL     1      63.490  39.045  37.583  1.00  0.00    -0.342 N 
ATOM     19  H12 UNL     1      63.814  38.201  38.055  1.00  0.00     0.176 HD
ATOM     20  H11 UNL     1      63.796  39.256  36.633  1.00  0.00     0.176 HD
ENDBRANCH  15  18
ENDBRANCH  13  14
ENDBRANCH  11  13
ENDBRANCH   1  11
BRANCH  10  21
HETATM   21  O11 UNL     1      58.178  43.122  39.720  1.00  0.00    -0.246 OA
BRANCH  21  22
HETATM   22  S1  UNL     1      57.178  42.191  40.708  1.00  0.00     0.252 S 
HETATM   23  O12 UNL     1      55.734  42.422  40.310  1.00  0.00    -0.572 OA
HETATM   24  O13 UNL     1      57.411  42.618  42.121  1.00  0.00    -0.572 OA
HETATM   25  O14 UNL     1      57.492  40.554  40.588  1.00  0.00    -0.572 OA
ENDBRANCH  21  22
ENDBRANCH  10  21
BRANCH   9  26
HETATM   26  O10 UNL     1      61.045  44.840  40.890  1.00  0.00    -0.388 OA
ATOM     27  H10 UNL     1      61.464  45.691  40.953  1.00  0.00     0.210 HD
ENDBRANCH   9  26
BRANCH   5  28
HETATM   28  C6  UNL     1      62.135  44.832  36.123  1.00  0.00     0.306 C 
BRANCH  28  29
HETATM   29  O3  UNL     1      61.513  43.999  35.239  1.00  0.00    -0.366 OA
ATOM     30  H3  UNL     1      62.075  43.415  34.742  1.00  0.00     0.213 HD
ENDBRANCH  28  29
BRANCH  28  31
HETATM   31  O4  UNL     1      63.182  44.090  36.725  1.00  0.00    -0.366 OA
ATOM     32  H4  UNL     1      62.835  43.292  37.107  1.00  0.00     0.213 HD
ENDBRANCH  28  31
ENDBRANCH   5  28
BRANCH   8  33
HETATM   33  O9  UNL     1      58.390  45.117  38.467  1.00  0.00    -0.365 OA
ATOM     34  H9  UNL     1      57.808  45.734  38.896  1.00  0.00     0.212 HD
ENDBRANCH   8  33
BRANCH   6  35
HETATM   35  C8  UNL     1      61.449  47.881  36.685  1.00  0.00     0.210 C 
HETATM   36  O5  UNL     1      62.340  47.949  35.847  1.00  0.00    -0.644 OA
HETATM   37  O6  UNL     1      60.800  49.108  36.945  1.00  0.00    -0.644 OA
ENDBRANCH   6  35
BRANCH   7  38
HETATM   38  O7  UNL     1      58.966  47.436  38.323  1.00  0.00    -0.377 OA
ATOM     39  H7  UNL     1      59.240  48.208  37.842  1.00  0.00     0.211 HD
ENDBRANCH   7  38
BRANCH   7  40
HETATM   40  C10 UNL     1      60.713  47.370  39.856  1.00  0.00     0.212 C 
BRANCH  40  41
HETATM   41  O8  UNL     1      60.404  48.708  39.917  1.00  0.00    -0.397 OA
ATOM     42  H8  UNL     1      60.415  49.036  40.809  1.00  0.00     0.209 HD
ENDBRANCH  40  41
ENDBRANCH   7  40
TORSDOF 15
ENDMDL
MODEL 5
REMARK VINA RESULT: -6.649835797      2.825      5.042
REMARK  15 active torsions:
REMARK  status: ('A' for Active; 'I' for Inactive)
REMARK    1  A    between atoms: N1_1  and  N2_4 
REMARK       I    between atoms: N2_4  and  C1_6 
REMARK    2  A    between atoms: C1_6  and  C2_8 
REMARK    3  A    between atoms: C2_8  and  N3_9 
REMARK    4  A    between atoms: N3_9  and  C3_11 
REMARK    5  A    between atoms: C5_15  and  C6_16 
REMARK    6  A    between atoms: C6_16  and  O3_17 
REMARK    7  A    between atoms: C6_16  and  O4_19 
REMARK    8  A    between atoms: C7_21  and  C8_22 
REMARK    9  A    between atoms: C9_25  and  O7_26 
REMARK   10  A    between atoms: C9_25  and  C10_28 
REMARK   11  A    between atoms: C10_28  and  O8_29 
REMARK   12  A    between atoms: C11_31  and  O9_32 
REMARK   13  A    between atoms: C12_34  and  O10_35 
REMARK   14  A    between atoms: C13_37  and  O11_38 
REMARK   15  A    between atoms: O11_38  and  S1_39 
ROOT
HETATM    1  C3  UNL     1      60.422  43.156  39.461  1.00  0.00     0.207 C 
HETATM    2  C4  UNL     1      60.371  44.112  38.324  1.00  0.00     0.252 C 
HETATM    3  O2  UNL     1      60.494  43.743  37.108  1.00  0.00    -0.270 OA
HETATM    4  N4  UNL     1      60.181  45.501  38.556  1.00  0.00    -0.275 N 
HETATM    5  C5  UNL     1      60.634  46.724  37.916  1.00  0.00     0.088 C 
HETATM    6  C7  UNL     1      60.261  47.795  38.592  1.00  0.00     0.087 C 
HETATM    7  C9  UNL     1      59.588  47.324  39.824  1.00  0.00     0.167 C 
HETATM    8  C11 UNL     1      59.321  45.861  39.642  1.00  0.00     0.208 C 
HETATM    9  C12 UNL     1      59.594  44.994  40.830  1.00  0.00     0.210 C 
HETATM   10  C13 UNL     1      59.317  43.536  40.412  1.00  0.00     0.210 C 
ENDROOT
BRANCH   1  11
HETATM   11  N3  UNL     1      60.447  41.786  39.104  1.00  0.00    -0.379 N 
ATOM     12  H3  UNL     1      59.635  41.264  38.775  1.00  0.00     0.160 HD
BRANCH  11  13
HETATM   13  C2  UNL     1      61.757  41.223  39.263  1.00  0.00     0.160 C 
BRANCH  13  14
HETATM   14  C1  UNL     1      62.545  40.944  38.082  1.00  0.00     0.274 C 
HETATM   15  N2  UNL     1      62.336  41.533  36.823  1.00  0.00    -0.272 N 
ATOM     16  H2  UNL     1      61.582  42.209  36.703  1.00  0.00     0.189 HD
HETATM   17  O1  UNL     1      63.485  40.118  38.161  1.00  0.00    -0.265 OA
BRANCH  15  18
HETATM   18  N1  UNL     1      63.164  41.202  35.708  1.00  0.00    -0.342 N 
ATOM     19  H12 UNL     1      63.956  41.808  35.493  1.00  0.00     0.176 HD
ATOM     20  H11 UNL     1      62.973  40.379  35.136  1.00  0.00     0.176 HD
ENDBRANCH  15  18
ENDBRANCH  13  14
ENDBRANCH  11  13
ENDBRANCH   1  11
BRANCH  10  21
HETATM   21  O11 UNL     1      58.101  43.354  39.831  1.00  0.00    -0.246 OA
BRANCH  21  22
HETATM   22  S1  UNL     1      57.244  42.166  40.668  1.00  0.00     0.252 S 
HETATM   23  O12 UNL     1      57.897  40.821  40.425  1.00  0.00    -0.572 OA
HETATM   24  O13 UNL     1      55.841  42.173  40.155  1.00  0.00    -0.572 OA
HETATM   25  O14 UNL     1      57.210  42.435  42.317  1.00  0.00    -0.572 OA
ENDBRANCH  21  22
ENDBRANCH  10  21
BRANCH   9  26
HETATM   26  O10 UNL     1      60.928  44.959  41.233  1.00  0.00    -0.388 OA
ATOM     27  H10 UNL     1      61.494  44.424  40.689  1.00  0.00     0.210 HD
ENDBRANCH   9  26
BRANCH   5  28
HETATM   28  C6  UNL     1      61.404  46.591  36.648  1.00  0.00     0.306 C 
BRANCH  28  29
HETATM   29  O3  UNL     1      62.623  47.204  36.610  1.00  0.00    -0.366 OA
ATOM     30  H3  UNL     1      62.658  48.047  36.174  1.00  0.00     0.213 HD
ENDBRANCH  28  29
BRANCH  28  31
HETATM   31  O4  UNL     1      60.647  47.110  35.567  1.00  0.00    -0.366 OA
ATOM     32  H4  UNL     1      60.061  47.789  35.880  1.00  0.00     0.213 HD
ENDBRANCH  28  31
ENDBRANCH   5  28
BRANCH   8  33
HETATM   33  O9  UNL     1      57.974  45.652  39.286  1.00  0.00    -0.365 OA
ATOM     34  H9  UNL     1      57.653  44.847  39.674  1.00  0.00     0.212 HD
ENDBRANCH   8  33
BRANCH   6  35
HETATM   35  C8  UNL     1      60.527  49.197  38.236  1.00  0.00     0.210 C 
HETATM   36  O5  UNL     1      60.823  49.663  37.144  1.00  0.00    -0.644 OA
HETATM   37  O6  UNL     1      60.426  50.154  39.269  1.00  0.00    -0.644 OA
ENDBRANCH   6  35
BRANCH   7  38
HETATM   38  O7  UNL     1      58.320  47.951  39.858  1.00  0.00    -0.377 OA
ATOM     39  H7  UNL     1      58.380  48.654  40.494  1.00  0.00     0.211 HD
ENDBRANCH   7  38
BRANCH   7  40
HETATM   40  C10 UNL     1      60.245  47.625  41.119  1.00  0.00     0.212 C 
BRANCH  40  41
HETATM   41  O8  UNL     1      61.541  48.052  40.953  1.00  0.00    -0.397 OA
ATOM     42  H8  UNL     1      62.142  47.328  40.827  1.00  0.00     0.209 HD
ENDBRANCH  40  41
ENDBRANCH   7  40
TORSDOF 15
ENDMDL
