MODEL 1
REMARK VINA RESULT: -8.474779083      0.000      0.000
REMARK  12 active torsions:
REMARK  status: ('A' for Active; 'I' for Inactive)
REMARK    1  A    between atoms: C2_5  and  C3_6 
REMARK    2  A    between atoms: C3_6  and  N3_7 
REMARK    3  A    between atoms: C3_6  and  C4_11 
REMARK    4  A    between atoms: C4_11  and  N4_12 
REMARK    5  A    between atoms: C4_11  and  C12_36 
REMARK       I    between atoms: N4_12  and  C5_14 
REMARK       I    between atoms: C5_14  and  N5_16 
REMARK    6  A    between atoms: N5_16  and  C6_18 
REMARK    7  A    between atoms: C7_22  and  O2_23 
REMARK    8  A    between atoms: C8_25  and  C9_26 
REMARK    9  A    between atoms: C11_31  and  O3_32 
REMARK   10  A    between atoms: C12_36  and  O6_37 
REMARK   11  A    between atoms: C12_36  and  C13_39 
REMARK   12  A    between atoms: C13_39  and  O7_40 
ROOT
HETATM    1  N4  UNL     1      61.422  41.790  37.176  1.00  0.00    -0.334 N 
ATOM      2  H4  UNL     1      60.670  41.181  37.496  1.00  0.00     0.164 HD
HETATM    3  C5  UNL     1      62.751  41.312  37.226  1.00  0.00     0.319 C 
HETATM    4  O1  UNL     1      63.709  42.027  36.841  1.00  0.00    -0.247 OA
HETATM    5  N5  UNL     1      63.047  40.008  37.714  1.00  0.00    -0.294 N 
ATOM      6  H5  UNL     1      62.279  39.416  38.030  1.00  0.00     0.168 HD
ENDROOT
BRANCH   1   7
HETATM    7  C4  UNL     1      61.083  43.122  36.685  1.00  0.00     0.151 C 
BRANCH   7   8
HETATM    8  C3  UNL     1      60.124  43.791  37.657  1.00  0.00     0.258 C 
BRANCH   8   9
HETATM    9  C2  UNL     1      60.308  45.260  37.811  1.00  0.00     0.274 C 
HETATM   10  N2  UNL     1      59.146  45.980  37.416  1.00  0.00    -0.352 N 
HETATM   11  C1  UNL     1      59.064  47.254  37.326  1.00  0.00     0.107 C 
ATOM     12  H2  UNL     1      58.313  45.439  37.188  1.00  0.00     0.163 HD
HETATM   13  N1  UNL     1      57.897  47.953  36.932  1.00  0.00    -0.087 NA
HETATM   14  C14 UNL     1      60.278  48.036  37.658  1.00  0.00     0.243 C 
HETATM   15  S1  UNL     1      61.630  47.231  36.831  1.00  0.00     0.273 S 
HETATM   16  O8  UNL     1      61.463  45.584  37.056  1.00  0.00    -0.247 OA
HETATM   17  O9  UNL     1      62.955  47.660  37.391  1.00  0.00    -0.198 OA
HETATM   18  O10 UNL     1      61.513  47.592  35.370  1.00  0.00    -0.198 OA
ENDBRANCH   8   9
BRANCH   8  19
HETATM   19  N3  UNL     1      60.327  43.203  38.989  1.00  0.00    -0.069 N 
ATOM     20  H33 UNL     1      61.025  42.459  38.999  1.00  0.00     0.275 HD
ATOM     21  H32 UNL     1      60.800  43.831  39.640  1.00  0.00     0.275 HD
ATOM     22  H31 UNL     1      59.409  42.901  39.315  1.00  0.00     0.275 HD
ENDBRANCH   8  19
ENDBRANCH   7   8
BRANCH   7  23
HETATM   23  C12 UNL     1      60.617  43.033  35.285  1.00  0.00     0.166 C 
BRANCH  23  24
HETATM   24  O6  UNL     1      60.140  41.825  34.874  1.00  0.00    -0.391 OA
ATOM     25  H6  UNL     1      59.646  41.814  34.063  1.00  0.00     0.210 HD
ENDBRANCH  23  24
BRANCH  23  26
HETATM   26  C13 UNL     1      61.627  43.509  34.269  1.00  0.00     0.197 C 
BRANCH  26  27
HETATM   27  O7  UNL     1      62.858  43.808  34.789  1.00  0.00    -0.398 OA
ATOM     28  H7  UNL     1      62.884  44.608  35.301  1.00  0.00     0.209 HD
ENDBRANCH  26  27
ENDBRANCH  23  26
ENDBRANCH   7  23
ENDBRANCH   1   7
BRANCH   5  29
HETATM   29  C6  UNL     1      64.400  39.492  37.776  1.00  0.00     0.436 C 
HETATM   30  N6  UNL     1      64.373  38.150  37.211  1.00  0.00    -0.002 N 
HETATM   31  C7  UNL     1      65.297  37.404  38.087  1.00  0.00     0.357 C 
ATOM     32  H62 UNL     1      63.442  37.742  37.127  1.00  0.00     0.285 HD
ATOM     33  H61 UNL     1      64.596  38.101  36.217  1.00  0.00     0.285 HD
HETATM   34  C8  UNL     1      65.009  38.113  39.390  1.00  0.00     0.238 C 
HETATM   35  O5  UNL     1      64.942  39.437  39.025  1.00  0.00    -0.329 OA
BRANCH  31  36
HETATM   36  O2  UNL     1      64.868  36.094  38.200  1.00  0.00    -0.368 OA
ATOM     37  H2  UNL     1      64.160  36.046  38.831  1.00  0.00     0.212 HD
ENDBRANCH  31  36
BRANCH  34  38
HETATM   38  C9  UNL     1      63.751  37.585  40.049  1.00  0.00     0.357 C 
HETATM   39  N7  UNL     1      63.327  38.588  40.994  1.00  0.00    -0.042 N 
HETATM   40  C10 UNL     1      63.559  38.083  42.308  1.00  0.00     0.295 C 
ATOM     41  H72 UNL     1      63.772  39.493  40.835  1.00  0.00     0.280 HD
ATOM     42  H71 UNL     1      62.362  38.883  40.850  1.00  0.00     0.280 HD
HETATM   43  C11 UNL     1      64.376  36.832  42.070  1.00  0.00     0.285 C 
HETATM   44  O4  UNL     1      64.114  36.445  40.765  1.00  0.00    -0.325 OA
BRANCH  43  45
HETATM   45  O3  UNL     1      63.999  35.785  42.901  1.00  0.00    -0.369 OA
ATOM     46  H3  UNL     1      64.457  35.798  43.733  1.00  0.00     0.212 HD
ENDBRANCH  43  45
ENDBRANCH  34  38
ENDBRANCH   5  29
TORSDOF 12
ENDMDL
MODEL 2
REMARK VINA RESULT: -8.275240951      1.472      1.669
REMARK  12 active torsions:
REMARK  status: ('A' for Active; 'I' for Inactive)
REMARK    1  A    between atoms: C2_5  and  C3_6 
REMARK    2  A    between atoms: C3_6  and  N3_7 
REMARK    3  A    between atoms: C3_6  and  C4_11 
REMARK    4  A    between atoms: C4_11  and  N4_12 
REMARK    5  A    between atoms: C4_11  and  C12_36 
REMARK       I    between atoms: N4_12  and  C5_14 
REMARK       I    between atoms: C5_14  and  N5_16 
REMARK    6  A    between atoms: N5_16  and  C6_18 
REMARK    7  A    between atoms: C7_22  and  O2_23 
REMARK    8  A    between atoms: C8_25  and  C9_26 
REMARK    9  A    between atoms: C11_31  and  O3_32 
REMARK   10  A    between atoms: C12_36  and  O6_37 
REMARK   11  A    between atoms: C12_36  and  C13_39 
REMARK   12  A    between atoms: C13_39  and  O7_40 
ROOT
HETATM    1  N4  UNL     1      61.446  41.781  37.226  1.00  0.00    -0.334 N 
ATOM      2  H4  UNL     1      60.695  41.198  37.592  1.00  0.00     0.164 HD
HETATM    3  C5  UNL     1      62.768  41.281  37.250  1.00  0.00     0.319 C 
HETATM    4  O1  UNL     1      63.725  41.964  36.809  1.00  0.00    -0.247 OA
HETATM    5  N5  UNL     1      63.057  39.990  37.774  1.00  0.00    -0.294 N 
ATOM      6  H5  UNL     1      62.290  39.423  38.137  1.00  0.00     0.168 HD
ENDROOT
BRANCH   1   7
HETATM    7  C4  UNL     1      61.114  43.101  36.698  1.00  0.00     0.151 C 
BRANCH   7   8
HETATM    8  C3  UNL     1      60.242  43.842  37.700  1.00  0.00     0.258 C 
BRANCH   8   9
HETATM    9  C2  UNL     1      59.941  45.256  37.346  1.00  0.00     0.274 C 
HETATM   10  N2  UNL     1      61.070  45.907  36.773  1.00  0.00    -0.352 N 
HETATM   11  C1  UNL     1      61.137  47.153  36.490  1.00  0.00     0.107 C 
ATOM     12  H2  UNL     1      61.889  45.335  36.572  1.00  0.00     0.163 HD
HETATM   13  N1  UNL     1      62.270  47.782  35.918  1.00  0.00    -0.087 NA
HETATM   14  C14 UNL     1      59.944  47.980  36.786  1.00  0.00     0.243 C 
HETATM   15  S1  UNL     1      59.418  47.528  38.423  1.00  0.00     0.273 S 
HETATM   16  O8  UNL     1      59.481  45.862  38.541  1.00  0.00    -0.247 OA
HETATM   17  O9  UNL     1      58.012  47.976  38.697  1.00  0.00    -0.198 OA
HETATM   18  O10 UNL     1      60.392  48.174  39.378  1.00  0.00    -0.198 OA
ENDBRANCH   8   9
BRANCH   8  19
HETATM   19  N3  UNL     1      60.944  43.876  38.992  1.00  0.00    -0.069 N 
ATOM     20  H33 UNL     1      61.519  43.050  39.160  1.00  0.00     0.275 HD
ATOM     21  H32 UNL     1      61.697  44.564  39.024  1.00  0.00     0.275 HD
ATOM     22  H31 UNL     1      60.230  44.023  39.705  1.00  0.00     0.275 HD
ENDBRANCH   8  19
ENDBRANCH   7   8
BRANCH   7  23
HETATM   23  C12 UNL     1      60.553  42.967  35.338  1.00  0.00     0.166 C 
BRANCH  23  24
HETATM   24  O6  UNL     1      60.103  41.732  34.979  1.00  0.00    -0.391 OA
ATOM     25  H6  UNL     1      59.365  41.702  34.383  1.00  0.00     0.210 HD
ENDBRANCH  23  24
BRANCH  23  26
HETATM   26  C13 UNL     1      61.463  43.470  34.244  1.00  0.00     0.197 C 
BRANCH  26  27
HETATM   27  O7  UNL     1      62.702  43.864  34.673  1.00  0.00    -0.398 OA
ATOM     28  H7  UNL     1      62.903  44.778  34.509  1.00  0.00     0.209 HD
ENDBRANCH  26  27
ENDBRANCH  23  26
ENDBRANCH   7  23
ENDBRANCH   1   7
BRANCH   5  29
HETATM   29  C6  UNL     1      64.402  39.451  37.811  1.00  0.00     0.436 C 
HETATM   30  N6  UNL     1      64.342  38.109  37.249  1.00  0.00    -0.002 N 
HETATM   31  C7  UNL     1      65.270  37.349  38.108  1.00  0.00     0.357 C 
ATOM     32  H62 UNL     1      63.402  37.716  37.184  1.00  0.00     0.285 HD
ATOM     33  H61 UNL     1      64.544  38.055  36.251  1.00  0.00     0.285 HD
HETATM   34  C8  UNL     1      65.019  38.064  39.415  1.00  0.00     0.238 C 
HETATM   35  O5  UNL     1      64.967  39.389  39.049  1.00  0.00    -0.329 OA
BRANCH  31  36
HETATM   36  O2  UNL     1      64.821  36.047  38.231  1.00  0.00    -0.368 OA
ATOM     37  H2  UNL     1      65.075  35.551  37.462  1.00  0.00     0.212 HD
ENDBRANCH  31  36
BRANCH  34  38
HETATM   38  C9  UNL     1      63.766  37.558  40.099  1.00  0.00     0.357 C 
HETATM   39  N7  UNL     1      63.377  38.570  41.051  1.00  0.00    -0.042 N 
HETATM   40  C10 UNL     1      63.625  38.063  42.360  1.00  0.00     0.295 C 
ATOM     41  H72 UNL     1      63.833  39.467  40.881  1.00  0.00     0.280 HD
ATOM     42  H71 UNL     1      62.414  38.881  40.924  1.00  0.00     0.280 HD
HETATM   43  C11 UNL     1      64.417  36.798  42.109  1.00  0.00     0.285 C 
HETATM   44  O4  UNL     1      64.123  36.413  40.810  1.00  0.00    -0.325 OA
BRANCH  43  45
HETATM   45  O3  UNL     1      64.040  35.759  42.949  1.00  0.00    -0.369 OA
ATOM     46  H3  UNL     1      64.573  35.713  43.734  1.00  0.00     0.212 HD
ENDBRANCH  43  45
ENDBRANCH  34  38
ENDBRANCH   5  29
TORSDOF 12
ENDMDL
MODEL 3
REMARK VINA RESULT: -8.241621590      1.113      1.282
REMARK  12 active torsions:
REMARK  status: ('A' for Active; 'I' for Inactive)
REMARK    1  A    between atoms: C2_5  and  C3_6 
REMARK    2  A    between atoms: C3_6  and  N3_7 
REMARK    3  A    between atoms: C3_6  and  C4_11 
REMARK    4  A    between atoms: C4_11  and  N4_12 
REMARK    5  A    between atoms: C4_11  and  C12_36 
REMARK       I    between atoms: N4_12  and  C5_14 
REMARK       I    between atoms: C5_14  and  N5_16 
REMARK    6  A    between atoms: N5_16  and  C6_18 
REMARK    7  A    between atoms: C7_22  and  O2_23 
REMARK    8  A    between atoms: C8_25  and  C9_26 
REMARK    9  A    between atoms: C11_31  and  O3_32 
REMARK   10  A    between atoms: C12_36  and  O6_37 
REMARK   11  A    between atoms: C12_36  and  C13_39 
REMARK   12  A    between atoms: C13_39  and  O7_40 
ROOT
HETATM    1  N4  UNL     1      61.556  41.962  37.039  1.00  0.00    -0.334 N 
ATOM      2  H4  UNL     1      60.786  41.367  37.342  1.00  0.00     0.164 HD
HETATM    3  C5  UNL     1      62.874  41.455  37.109  1.00  0.00     0.319 C 
HETATM    4  O1  UNL     1      63.853  42.151  36.745  1.00  0.00    -0.247 OA
HETATM    5  N5  UNL     1      63.133  40.142  37.593  1.00  0.00    -0.294 N 
ATOM      6  H5  UNL     1      62.347  39.564  37.892  1.00  0.00     0.168 HD
ENDROOT
BRANCH   1   7
HETATM    7  C4  UNL     1      61.254  43.304  36.550  1.00  0.00     0.151 C 
BRANCH   7   8
HETATM    8  C3  UNL     1      60.208  43.946  37.447  1.00  0.00     0.258 C 
BRANCH   8   9
HETATM    9  C2  UNL     1      60.484  45.358  37.824  1.00  0.00     0.274 C 
HETATM   10  N2  UNL     1      59.553  45.838  38.787  1.00  0.00    -0.352 N 
HETATM   11  C1  UNL     1      59.474  47.048  39.197  1.00  0.00     0.107 C 
ATOM     12  H2  UNL     1      58.897  45.165  39.182  1.00  0.00     0.163 HD
HETATM   13  N1  UNL     1      58.539  47.506  40.159  1.00  0.00    -0.087 NA
HETATM   14  C14 UNL     1      60.428  48.022  38.620  1.00  0.00     0.243 C 
HETATM   15  S1  UNL     1      60.428  47.740  36.865  1.00  0.00     0.273 S 
HETATM   16  O8  UNL     1      60.475  46.089  36.610  1.00  0.00    -0.247 OA
HETATM   17  O9  UNL     1      61.623  48.362  36.203  1.00  0.00    -0.198 OA
HETATM   18  O10 UNL     1      59.143  48.332  36.337  1.00  0.00    -0.198 OA
ENDBRANCH   8   9
BRANCH   8  19
HETATM   19  N3  UNL     1      60.142  43.184  38.703  1.00  0.00    -0.069 N 
ATOM     20  H33 UNL     1      60.469  43.712  39.513  1.00  0.00     0.275 HD
ATOM     21  H32 UNL     1      59.189  43.026  39.030  1.00  0.00     0.275 HD
ATOM     22  H31 UNL     1      60.664  42.322  38.547  1.00  0.00     0.275 HD
ENDBRANCH   8  19
ENDBRANCH   7   8
BRANCH   7  23
HETATM   23  C12 UNL     1      60.916  43.246  35.112  1.00  0.00     0.166 C 
BRANCH  23  24
HETATM   24  O6  UNL     1      60.060  44.198  34.646  1.00  0.00    -0.391 OA
ATOM     25  H6  UNL     1      60.167  44.462  33.740  1.00  0.00     0.210 HD
ENDBRANCH  23  24
BRANCH  23  26
HETATM   26  C13 UNL     1      60.415  41.899  34.651  1.00  0.00     0.197 C 
BRANCH  26  27
HETATM   27  O7  UNL     1      61.290  41.211  33.853  1.00  0.00    -0.398 OA
ATOM     28  H7  UNL     1      60.884  40.756  33.125  1.00  0.00     0.209 HD
ENDBRANCH  26  27
ENDBRANCH  23  26
ENDBRANCH   7  23
ENDBRANCH   1   7
BRANCH   5  29
HETATM   29  C6  UNL     1      64.473  39.597  37.675  1.00  0.00     0.436 C 
HETATM   30  N6  UNL     1      64.425  38.255  37.111  1.00  0.00    -0.002 N 
HETATM   31  C7  UNL     1      65.320  37.490  38.001  1.00  0.00     0.357 C 
ATOM     32  H62 UNL     1      63.487  37.867  37.014  1.00  0.00     0.285 HD
ATOM     33  H61 UNL     1      64.661  38.200  36.120  1.00  0.00     0.285 HD
HETATM   34  C8  UNL     1      65.028  38.206  39.299  1.00  0.00     0.238 C 
HETATM   35  O5  UNL     1      64.996  39.531  38.932  1.00  0.00    -0.329 OA
BRANCH  31  36
HETATM   36  O2  UNL     1      64.861  36.190  38.108  1.00  0.00    -0.368 OA
ATOM     37  H2  UNL     1      63.998  36.191  38.507  1.00  0.00     0.212 HD
ENDBRANCH  31  36
BRANCH  34  38
HETATM   38  C9  UNL     1      63.750  37.707  39.940  1.00  0.00     0.357 C 
HETATM   39  N7  UNL     1      63.336  38.719  40.880  1.00  0.00    -0.042 N 
HETATM   40  C10 UNL     1      63.537  38.208  42.196  1.00  0.00     0.295 C 
ATOM     41  H72 UNL     1      63.803  39.613  40.728  1.00  0.00     0.280 HD
ATOM     42  H71 UNL     1      62.379  39.036  40.722  1.00  0.00     0.280 HD
HETATM   43  C11 UNL     1      64.329  36.939  41.969  1.00  0.00     0.285 C 
HETATM   44  O4  UNL     1      64.076  36.558  40.660  1.00  0.00    -0.325 OA
BRANCH  43  45
HETATM   45  O3  UNL     1      63.918  35.900  42.793  1.00  0.00    -0.369 OA
ATOM     46  H3  UNL     1      64.583  35.649  43.423  1.00  0.00     0.212 HD
ENDBRANCH  43  45
ENDBRANCH  34  38
ENDBRANCH   5  29
TORSDOF 12
ENDMDL
MODEL 4
REMARK VINA RESULT: -7.806845362      3.213      7.451
REMARK  12 active torsions:
REMARK  status: ('A' for Active; 'I' for Inactive)
REMARK    1  A    between atoms: C2_5  and  C3_6 
REMARK    2  A    between atoms: C3_6  and  N3_7 
REMARK    3  A    between atoms: C3_6  and  C4_11 
REMARK    4  A    between atoms: C4_11  and  N4_12 
REMARK    5  A    between atoms: C4_11  and  C12_36 
REMARK       I    between atoms: N4_12  and  C5_14 
REMARK       I    between atoms: C5_14  and  N5_16 
REMARK    6  A    between atoms: N5_16  and  C6_18 
REMARK    7  A    between atoms: C7_22  and  O2_23 
REMARK    8  A    between atoms: C8_25  and  C9_26 
REMARK    9  A    between atoms: C11_31  and  O3_32 
REMARK   10  A    between atoms: C12_36  and  O6_37 
REMARK   11  A    between atoms: C12_36  and  C13_39 
REMARK   12  A    between atoms: C13_39  and  O7_40 
ROOT
HETATM    1  N4  UNL     1      62.490  40.533  40.499  1.00  0.00    -0.334 N 
ATOM      2  H4  UNL     1      63.445  40.879  40.580  1.00  0.00     0.164 HD
HETATM    3  C5  UNL     1      61.780  40.773  39.300  1.00  0.00     0.319 C 
HETATM    4  O1  UNL     1      60.602  40.363  39.155  1.00  0.00    -0.247 OA
HETATM    5  N5  UNL     1      62.376  41.484  38.221  1.00  0.00    -0.294 N 
ATOM      6  H5  UNL     1      63.333  41.822  38.324  1.00  0.00     0.168 HD
ENDROOT
BRANCH   1   7
HETATM    7  C4  UNL     1      61.909  39.810  41.626  1.00  0.00     0.151 C 
BRANCH   7   8
HETATM    8  C3  UNL     1      61.609  40.786  42.753  1.00  0.00     0.258 C 
BRANCH   8   9
HETATM    9  C2  UNL     1      60.348  41.559  42.595  1.00  0.00     0.274 C 
HETATM   10  N2  UNL     1      59.342  40.796  41.938  1.00  0.00    -0.352 N 
HETATM   11  C1  UNL     1      58.205  41.246  41.559  1.00  0.00     0.107 C 
ATOM     12  H2  UNL     1      59.543  39.814  41.753  1.00  0.00     0.163 HD
HETATM   13  N1  UNL     1      57.216  40.470  40.906  1.00  0.00    -0.087 NA
HETATM   14  C14 UNL     1      57.919  42.674  41.828  1.00  0.00     0.243 C 
HETATM   15  S1  UNL     1      59.371  43.575  41.339  1.00  0.00     0.273 S 
HETATM   16  O8  UNL     1      60.705  42.744  41.906  1.00  0.00    -0.247 OA
HETATM   17  O9  UNL     1      59.386  44.959  41.918  1.00  0.00    -0.198 OA
HETATM   18  O10 UNL     1      59.361  43.615  39.830  1.00  0.00    -0.198 OA
ENDBRANCH   8   9
BRANCH   8  19
HETATM   19  N3  UNL     1      62.698  41.772  42.816  1.00  0.00    -0.069 N 
ATOM     20  H33 UNL     1      62.379  42.710  43.058  1.00  0.00     0.275 HD
ATOM     21  H32 UNL     1      63.318  41.638  43.615  1.00  0.00     0.275 HD
ATOM     22  H31 UNL     1      63.180  41.729  41.918  1.00  0.00     0.275 HD
ENDBRANCH   8  19
ENDBRANCH   7   8
BRANCH   7  23
HETATM   23  C12 UNL     1      62.775  38.666  41.984  1.00  0.00     0.166 C 
BRANCH  23  24
HETATM   24  O6  UNL     1      63.545  38.806  43.099  1.00  0.00    -0.391 OA
ATOM     25  H6  UNL     1      63.867  38.007  43.499  1.00  0.00     0.210 HD
ENDBRANCH  23  24
BRANCH  23  26
HETATM   26  C13 UNL     1      63.660  38.189  40.858  1.00  0.00     0.197 C 
BRANCH  26  27
HETATM   27  O7  UNL     1      63.882  36.838  40.844  1.00  0.00    -0.398 OA
ATOM     28  H7  UNL     1      64.760  36.586  40.584  1.00  0.00     0.209 HD
ENDBRANCH  26  27
ENDBRANCH  23  26
ENDBRANCH   7  23
ENDBRANCH   1   7
BRANCH   5  29
HETATM   29  C6  UNL     1      61.672  41.743  36.981  1.00  0.00     0.436 C 
HETATM   30  N6  UNL     1      62.680  42.000  35.962  1.00  0.00    -0.002 N 
HETATM   31  C7  UNL     1      62.078  43.090  35.169  1.00  0.00     0.357 C 
ATOM     32  H62 UNL     1      63.612  42.202  36.325  1.00  0.00     0.285 HD
ATOM     33  H61 UNL     1      62.957  41.181  35.420  1.00  0.00     0.285 HD
HETATM   34  C8  UNL     1      61.349  43.812  36.278  1.00  0.00     0.238 C 
HETATM   35  O5  UNL     1      60.801  42.791  37.018  1.00  0.00    -0.329 OA
BRANCH  31  36
HETATM   36  O2  UNL     1      63.077  43.918  34.693  1.00  0.00    -0.368 OA
ATOM     37  H2  UNL     1      63.035  44.755  35.140  1.00  0.00     0.212 HD
ENDBRANCH  31  36
BRANCH  34  38
HETATM   38  C9  UNL     1      62.277  44.718  37.061  1.00  0.00     0.357 C 
HETATM   39  N7  UNL     1      61.506  45.251  38.158  1.00  0.00    -0.042 N 
HETATM   40  C10 UNL     1      61.275  46.635  37.904  1.00  0.00     0.295 C 
ATOM     41  H72 UNL     1      60.645  44.730  38.323  1.00  0.00     0.280 HD
ATOM     42  H71 UNL     1      61.943  45.084  39.064  1.00  0.00     0.280 HD
HETATM   43  C11 UNL     1      61.737  46.817  36.474  1.00  0.00     0.285 C 
HETATM   44  O4  UNL     1      62.617  45.778  36.220  1.00  0.00    -0.325 OA
BRANCH  43  45
HETATM   45  O3  UNL     1      62.429  48.007  36.287  1.00  0.00    -0.369 OA
ATOM     46  H3  UNL     1      61.919  48.655  35.816  1.00  0.00     0.212 HD
ENDBRANCH  43  45
ENDBRANCH  34  38
ENDBRANCH   5  29
TORSDOF 12
ENDMDL
MODEL 5
REMARK VINA RESULT: -7.643678978      3.286      5.960
REMARK  12 active torsions:
REMARK  status: ('A' for Active; 'I' for Inactive)
REMARK    1  A    between atoms: C2_5  and  C3_6 
REMARK    2  A    between atoms: C3_6  and  N3_7 
REMARK    3  A    between atoms: C3_6  and  C4_11 
REMARK    4  A    between atoms: C4_11  and  N4_12 
REMARK    5  A    between atoms: C4_11  and  C12_36 
REMARK       I    between atoms: N4_12  and  C5_14 
REMARK       I    between atoms: C5_14  and  N5_16 
REMARK    6  A    between atoms: N5_16  and  C6_18 
REMARK    7  A    between atoms: C7_22  and  O2_23 
REMARK    8  A    between atoms: C8_25  and  C9_26 
REMARK    9  A    between atoms: C11_31  and  O3_32 
REMARK   10  A    between atoms: C12_36  and  O6_37 
REMARK   11  A    between atoms: C12_36  and  C13_39 
REMARK   12  A    between atoms: C13_39  and  O7_40 
ROOT
HETATM    1  N4  UNL     1      60.726  46.628  38.567  1.00  0.00    -0.334 N 
ATOM      2  H4  UNL     1      61.529  46.650  39.195  1.00  0.00     0.164 HD
HETATM    3  C5  UNL     1      59.700  45.687  38.812  1.00  0.00     0.319 C 
HETATM    4  O1  UNL     1      58.691  45.624  38.066  1.00  0.00    -0.247 OA
HETATM    5  N5  UNL     1      59.776  44.781  39.907  1.00  0.00    -0.294 N 
ATOM      6  H5  UNL     1      60.590  44.820  40.521  1.00  0.00     0.168 HD
ENDROOT
BRANCH   1   7
HETATM    7  C4  UNL     1      60.682  47.569  37.452  1.00  0.00     0.151 C 
BRANCH   7   8
HETATM    8  C3  UNL     1      61.914  47.381  36.582  1.00  0.00     0.258 C 
BRANCH   8   9
HETATM    9  C2  UNL     1      62.148  45.987  36.116  1.00  0.00     0.274 C 
HETATM   10  N2  UNL     1      60.967  45.411  35.567  1.00  0.00    -0.352 N 
HETATM   11  C1  UNL     1      60.843  44.190  35.206  1.00  0.00     0.107 C 
ATOM     12  H2  UNL     1      60.157  46.019  35.453  1.00  0.00     0.163 HD
HETATM   13  N1  UNL     1      59.659  43.635  34.660  1.00  0.00    -0.087 NA
HETATM   14  C14 UNL     1      62.022  43.310  35.375  1.00  0.00     0.243 C 
HETATM   15  S1  UNL     1      62.654  43.631  37.005  1.00  0.00     0.273 S 
HETATM   16  O8  UNL     1      62.654  45.286  37.239  1.00  0.00    -0.247 OA
HETATM   17  O9  UNL     1      64.058  43.124  37.166  1.00  0.00    -0.198 OA
HETATM   18  O10 UNL     1      61.714  42.949  37.970  1.00  0.00    -0.198 OA
ENDBRANCH   8   9
BRANCH   8  19
HETATM   19  N3  UNL     1      63.099  47.764  37.364  1.00  0.00    -0.069 N 
ATOM     20  H33 UNL     1      63.110  47.362  38.302  1.00  0.00     0.275 HD
ATOM     21  H32 UNL     1      63.960  47.331  37.030  1.00  0.00     0.275 HD
ATOM     22  H31 UNL     1      63.130  48.783  37.361  1.00  0.00     0.275 HD
ENDBRANCH   8  19
ENDBRANCH   7   8
BRANCH   7  23
HETATM   23  C12 UNL     1      60.463  48.938  37.965  1.00  0.00     0.166 C 
BRANCH  23  24
HETATM   24  O6  UNL     1      61.077  49.950  37.290  1.00  0.00    -0.391 OA
ATOM     25  H6  UNL     1      61.522  50.606  37.814  1.00  0.00     0.210 HD
ENDBRANCH  23  24
BRANCH  23  26
HETATM   26  C13 UNL     1      60.769  49.102  39.434  1.00  0.00     0.197 C 
BRANCH  26  27
HETATM   27  O7  UNL     1      62.104  49.180  39.730  1.00  0.00    -0.398 OA
ATOM     28  H7  UNL     1      62.646  49.508  39.022  1.00  0.00     0.209 HD
ENDBRANCH  26  27
ENDBRANCH  23  26
ENDBRANCH   7  23
ENDBRANCH   1   7
BRANCH   5  29
HETATM   29  C6  UNL     1      58.739  43.807  40.181  1.00  0.00     0.436 C 
HETATM   30  N6  UNL     1      58.441  43.887  41.604  1.00  0.00    -0.002 N 
HETATM   31  C7  UNL     1      58.239  42.474  41.980  1.00  0.00     0.357 C 
ATOM     32  H62 UNL     1      59.141  44.380  42.159  1.00  0.00     0.285 HD
ATOM     33  H61 UNL     1      57.667  44.507  41.843  1.00  0.00     0.285 HD
HETATM   34  C8  UNL     1      59.240  41.838  41.045  1.00  0.00     0.238 C 
HETATM   35  O5  UNL     1      59.056  42.520  39.866  1.00  0.00    -0.329 OA
BRANCH  31  36
HETATM   36  O2  UNL     1      58.668  42.278  43.279  1.00  0.00    -0.368 OA
ATOM     37  H2  UNL     1      59.425  42.827  43.449  1.00  0.00     0.212 HD
ENDBRANCH  31  36
BRANCH  34  38
HETATM   38  C9  UNL     1      60.649  41.917  41.596  1.00  0.00     0.357 C 
HETATM   39  N7  UNL     1      61.541  41.715  40.480  1.00  0.00    -0.042 N 
HETATM   40  C10 UNL     1      62.152  40.435  40.630  1.00  0.00     0.295 C 
ATOM     41  H72 UNL     1      61.077  41.828  39.579  1.00  0.00     0.280 HD
ATOM     42  H71 UNL     1      62.222  42.467  40.379  1.00  0.00     0.280 HD
HETATM   43  C11 UNL     1      61.374  39.798  41.761  1.00  0.00     0.285 C 
HETATM   44  O4  UNL     1      60.806  40.844  42.472  1.00  0.00    -0.325 OA
BRANCH  43  45
HETATM   45  O3  UNL     1      62.189  39.092  42.636  1.00  0.00    -0.369 OA
ATOM     46  H3  UNL     1      62.896  39.623  42.983  1.00  0.00     0.212 HD
ENDBRANCH  43  45
ENDBRANCH  34  38
ENDBRANCH   5  29
TORSDOF 12
ENDMDL
