MODEL 1
REMARK VINA RESULT: -6.434096465      0.000      0.000
REMARK  14 active torsions:
REMARK  status: ('A' for Active; 'I' for Inactive)
REMARK    1  A    between atoms: C2_2  and  O1_3 
REMARK    2  A    between atoms: C2_2  and  C3_5 
REMARK    3  A    between atoms: C3_5  and  N1_6 
REMARK    4  A    between atoms: C3_5  and  C5_12 
REMARK    5  A    between atoms: N1_6  and  C4_8 
REMARK    6  A    between atoms: C8_15  and  O2_16 
REMARK    7  A    between atoms: O2_16  and  C9_17 
REMARK    8  A    between atoms: C9_17  and  C10_18 
REMARK    9  A    between atoms: C10_18  and  N3_19 
REMARK   10  A    between atoms: C10_18  and  O3_23 
REMARK   11  A    between atoms: O3_23  and  C11_24 
REMARK   12  A    between atoms: C15_28  and  C16_29 
REMARK   13  A    between atoms: C16_29  and  C17_30 
REMARK   14  A    between atoms: C17_30  and  O4_31 
ROOT
HETATM    1  O2  UNL     1      47.053  48.006  67.910  1.00  0.00    -0.347 OA
ENDROOT
BRANCH   1   2
HETATM    2  C8  UNL     1      46.026  48.422  68.749  1.00  0.00     0.069 A 
HETATM    3  C7  UNL     1      45.312  47.472  69.445  1.00  0.00     0.037 A 
HETATM    4  C6  UNL     1      44.282  47.856  70.288  1.00  0.00     0.012 A 
HETATM    5  C5  UNL     1      43.925  49.177  70.471  1.00  0.00    -0.033 A 
HETATM    6  C19 UNL     1      44.656  50.104  69.762  1.00  0.00     0.012 A 
HETATM    7  C18 UNL     1      45.690  49.737  68.913  1.00  0.00     0.037 A 
BRANCH   5   8
HETATM    8  C3  UNL     1      42.819  49.637  71.332  1.00  0.00     0.143 C 
BRANCH   8   9
HETATM    9  C2  UNL     1      42.761  48.929  72.652  1.00  0.00     0.141 C 
HETATM   10  C1  UNL     1      43.610  49.699  73.657  1.00  0.00     0.042 C 
BRANCH   9  11
HETATM   11  O1  UNL     1      41.470  48.913  73.157  1.00  0.00    -0.394 OA
ATOM     12  H1  UNL     1      40.887  48.980  72.410  1.00  0.00     0.210 HD
ENDBRANCH   9  11
ENDBRANCH   8   9
BRANCH   8  13
HETATM   13  N1  UNL     1      42.804  51.069  71.478  1.00  0.00    -0.375 N 
ATOM     14  H1  UNL     1      43.695  51.522  71.685  1.00  0.00     0.161 HD
BRANCH  13  15
HETATM   15  C4  UNL     1      41.669  51.908  71.360  1.00  0.00     0.169 C 
HETATM   16  N2  UNL     1      40.653  51.820  72.171  1.00  0.00    -0.396 N 
ATOM     17  H22 UNL     1      40.692  51.118  72.910  1.00  0.00     0.156 HD
ATOM     18  H21 UNL     1      39.835  52.425  72.086  1.00  0.00     0.156 HD
ENDBRANCH  13  15
ENDBRANCH   8  13
ENDBRANCH   5   8
ENDBRANCH   1   2
BRANCH   1  19
HETATM   19  C9  UNL     1      47.698  46.756  68.069  1.00  0.00     0.236 C 
BRANCH  19  20
HETATM   20  C10 UNL     1      49.016  46.998  68.744  1.00  0.00     0.345 C 
BRANCH  20  21
HETATM   21  N3  UNL     1      48.856  47.511  70.092  1.00  0.00    -0.051 N 
ATOM     22  H33 UNL     1      48.176  48.270  70.119  1.00  0.00     0.277 HD
ATOM     23  H32 UNL     1      48.372  46.838  70.687  1.00  0.00     0.277 HD
ATOM     24  H31 UNL     1      49.744  47.796  70.504  1.00  0.00     0.277 HD
ENDBRANCH  20  21
BRANCH  20  25
HETATM   25  O3  UNL     1      49.899  47.759  68.072  1.00  0.00    -0.327 OA
BRANCH  25  26
HETATM   26  C11 UNL     1      51.234  47.572  68.326  1.00  0.00     0.263 C 
HETATM   27  C12 UNL     1      51.833  48.552  69.278  1.00  0.00     0.061 C 
HETATM   28  C13 UNL     1      52.461  47.876  70.483  1.00  0.00     0.007 C 
HETATM   29  C14 UNL     1      53.347  46.700  70.054  1.00  0.00     0.032 C 
HETATM   30  C15 UNL     1      52.684  45.897  68.972  1.00  0.00     0.126 C 
HETATM   31  O5  UNL     1      51.352  46.305  68.908  1.00  0.00    -0.356 OA
BRANCH  30  32
HETATM   32  C16 UNL     1      52.705  44.421  69.213  1.00  0.00     0.058 C 
BRANCH  32  33
HETATM   33  C17 UNL     1      53.591  43.666  68.263  1.00  0.00     0.166 C 
BRANCH  33  34
HETATM   34  O4  UNL     1      52.796  42.657  67.684  1.00  0.00    -0.401 OA
ATOM     35  H4  UNL     1      52.889  41.888  68.234  1.00  0.00     0.209 HD
ENDBRANCH  33  34
ENDBRANCH  32  33
ENDBRANCH  30  32
ENDBRANCH  25  26
ENDBRANCH  20  25
ENDBRANCH  19  20
ENDBRANCH   1  19
TORSDOF 14
ENDMDL
MODEL 2
REMARK VINA RESULT: -6.255277673      3.809      9.908
REMARK  14 active torsions:
REMARK  status: ('A' for Active; 'I' for Inactive)
REMARK    1  A    between atoms: C2_2  and  O1_3 
REMARK    2  A    between atoms: C2_2  and  C3_5 
REMARK    3  A    between atoms: C3_5  and  N1_6 
REMARK    4  A    between atoms: C3_5  and  C5_12 
REMARK    5  A    between atoms: N1_6  and  C4_8 
REMARK    6  A    between atoms: C8_15  and  O2_16 
REMARK    7  A    between atoms: O2_16  and  C9_17 
REMARK    8  A    between atoms: C9_17  and  C10_18 
REMARK    9  A    between atoms: C10_18  and  N3_19 
REMARK   10  A    between atoms: C10_18  and  O3_23 
REMARK   11  A    between atoms: O3_23  and  C11_24 
REMARK   12  A    between atoms: C15_28  and  C16_29 
REMARK   13  A    between atoms: C16_29  and  C17_30 
REMARK   14  A    between atoms: C17_30  and  O4_31 
ROOT
HETATM    1  O2  UNL     1      51.452  47.864  69.904  1.00  0.00    -0.347 OA
ENDROOT
BRANCH   1   2
HETATM    2  C8  UNL     1      52.577  47.853  70.721  1.00  0.00     0.069 A 
HETATM    3  C7  UNL     1      53.728  47.254  70.258  1.00  0.00     0.037 A 
HETATM    4  C6  UNL     1      54.865  47.227  71.049  1.00  0.00     0.012 A 
HETATM    5  C5  UNL     1      54.905  47.784  72.311  1.00  0.00    -0.033 A 
HETATM    6  C19 UNL     1      53.741  48.376  72.748  1.00  0.00     0.012 A 
HETATM    7  C18 UNL     1      52.593  48.412  71.969  1.00  0.00     0.037 A 
BRANCH   5   8
HETATM    8  C3  UNL     1      56.079  47.757  73.204  1.00  0.00     0.143 C 
BRANCH   8   9
HETATM    9  C2  UNL     1      55.863  48.491  74.492  1.00  0.00     0.141 C 
HETATM   10  C1  UNL     1      56.456  47.668  75.630  1.00  0.00     0.042 C 
BRANCH   9  11
HETATM   11  O1  UNL     1      56.531  49.707  74.495  1.00  0.00    -0.394 OA
ATOM     12  H1  UNL     1      55.933  50.342  74.871  1.00  0.00     0.210 HD
ENDBRANCH   9  11
ENDBRANCH   8   9
BRANCH   8  13
HETATM   13  N1  UNL     1      56.570  46.420  73.412  1.00  0.00    -0.375 N 
ATOM     14  H1  UNL     1      56.128  45.875  74.153  1.00  0.00     0.161 HD
BRANCH  13  15
HETATM   15  C4  UNL     1      57.610  45.790  72.685  1.00  0.00     0.169 C 
HETATM   16  N2  UNL     1      57.377  44.857  71.805  1.00  0.00    -0.396 N 
ATOM     17  H22 UNL     1      56.407  44.583  71.647  1.00  0.00     0.156 HD
ATOM     18  H21 UNL     1      58.126  44.403  71.282  1.00  0.00     0.156 HD
ENDBRANCH  13  15
ENDBRANCH   8  13
ENDBRANCH   5   8
ENDBRANCH   1   2
BRANCH   1  19
HETATM   19  C9  UNL     1      51.519  47.560  68.523  1.00  0.00     0.236 C 
BRANCH  19  20
HETATM   20  C10 UNL     1      50.135  47.678  67.957  1.00  0.00     0.345 C 
BRANCH  20  21
HETATM   21  N3  UNL     1      49.578  49.005  68.140  1.00  0.00    -0.051 N 
ATOM     22  H33 UNL     1      50.119  49.705  67.633  1.00  0.00     0.277 HD
ATOM     23  H32 UNL     1      48.688  49.102  67.651  1.00  0.00     0.277 HD
ATOM     24  H31 UNL     1      49.486  49.253  69.125  1.00  0.00     0.277 HD
ENDBRANCH  20  21
BRANCH  20  25
HETATM   25  O3  UNL     1      49.244  46.754  68.362  1.00  0.00    -0.327 OA
BRANCH  25  26
HETATM   26  C11 UNL     1      47.917  46.978  68.096  1.00  0.00     0.263 C 
HETATM   27  C12 UNL     1      47.107  45.745  67.877  1.00  0.00     0.061 C 
HETATM   28  C13 UNL     1      45.939  45.643  68.840  1.00  0.00     0.007 C 
HETATM   29  C14 UNL     1      45.172  46.968  68.918  1.00  0.00     0.032 C 
HETATM   30  C15 UNL     1      46.120  48.133  68.969  1.00  0.00     0.126 C 
HETATM   31  O5  UNL     1      47.393  47.622  69.222  1.00  0.00    -0.356 OA
BRANCH  30  32
HETATM   32  C16 UNL     1      45.799  49.129  70.036  1.00  0.00     0.058 C 
BRANCH  32  33
HETATM   33  C17 UNL     1      46.428  50.476  69.814  1.00  0.00     0.166 C 
BRANCH  33  34
HETATM   34  O4  UNL     1      46.971  50.458  68.515  1.00  0.00    -0.401 OA
ATOM     35  H4  UNL     1      46.251  50.281  67.921  1.00  0.00     0.209 HD
ENDBRANCH  33  34
ENDBRANCH  32  33
ENDBRANCH  30  32
ENDBRANCH  25  26
ENDBRANCH  20  25
ENDBRANCH  19  20
ENDBRANCH   1  19
TORSDOF 14
ENDMDL
MODEL 3
REMARK VINA RESULT: -6.252772085      3.534      5.053
REMARK  14 active torsions:
REMARK  status: ('A' for Active; 'I' for Inactive)
REMARK    1  A    between atoms: C2_2  and  O1_3 
REMARK    2  A    between atoms: C2_2  and  C3_5 
REMARK    3  A    between atoms: C3_5  and  N1_6 
REMARK    4  A    between atoms: C3_5  and  C5_12 
REMARK    5  A    between atoms: N1_6  and  C4_8 
REMARK    6  A    between atoms: C8_15  and  O2_16 
REMARK    7  A    between atoms: O2_16  and  C9_17 
REMARK    8  A    between atoms: C9_17  and  C10_18 
REMARK    9  A    between atoms: C10_18  and  N3_19 
REMARK   10  A    between atoms: C10_18  and  O3_23 
REMARK   11  A    between atoms: O3_23  and  C11_24 
REMARK   12  A    between atoms: C15_28  and  C16_29 
REMARK   13  A    between atoms: C16_29  and  C17_30 
REMARK   14  A    between atoms: C17_30  and  O4_31 
ROOT
HETATM    1  O2  UNL     1      51.120  46.739  68.670  1.00  0.00    -0.347 OA
ENDROOT
BRANCH   1   2
HETATM    2  C8  UNL     1      49.839  47.206  68.941  1.00  0.00     0.069 A 
HETATM    3  C7  UNL     1      48.832  46.944  68.037  1.00  0.00     0.037 A 
HETATM    4  C6  UNL     1      47.546  47.396  68.279  1.00  0.00     0.012 A 
HETATM    5  C5  UNL     1      47.211  48.115  69.409  1.00  0.00    -0.033 A 
HETATM    6  C19 UNL     1      48.236  48.363  70.293  1.00  0.00     0.012 A 
HETATM    7  C18 UNL     1      49.531  47.917  70.067  1.00  0.00     0.037 A 
BRANCH   5   8
HETATM    8  C3  UNL     1      45.865  48.645  69.699  1.00  0.00     0.143 C 
BRANCH   8   9
HETATM    9  C2  UNL     1      45.754  50.126  69.500  1.00  0.00     0.141 C 
HETATM   10  C1  UNL     1      45.468  50.402  68.029  1.00  0.00     0.042 C 
BRANCH   9  11
HETATM   11  O1  UNL     1      44.686  50.650  70.214  1.00  0.00    -0.394 OA
ATOM     12  H1  UNL     1      44.399  49.968  70.809  1.00  0.00     0.210 HD
ENDBRANCH   9  11
ENDBRANCH   8   9
BRANCH   8  13
HETATM   13  N1  UNL     1      44.835  47.920  69.001  1.00  0.00    -0.375 N 
ATOM     14  H1  UNL     1      44.502  48.321  68.124  1.00  0.00     0.161 HD
BRANCH  13  15
HETATM   15  C4  UNL     1      44.242  46.704  69.418  1.00  0.00     0.169 C 
HETATM   16  N2  UNL     1      44.043  45.711  68.598  1.00  0.00    -0.396 N 
ATOM     17  H22 UNL     1      44.329  45.830  67.627  1.00  0.00     0.156 HD
ATOM     18  H21 UNL     1      43.615  44.834  68.899  1.00  0.00     0.156 HD
ENDBRANCH  13  15
ENDBRANCH   8  13
ENDBRANCH   5   8
ENDBRANCH   1   2
BRANCH   1  19
HETATM   19  C9  UNL     1      52.256  47.581  68.718  1.00  0.00     0.236 C 
BRANCH  19  20
HETATM   20  C10 UNL     1      53.304  46.896  69.545  1.00  0.00     0.345 C 
BRANCH  20  21
HETATM   21  N3  UNL     1      53.286  45.456  69.370  1.00  0.00    -0.051 N 
ATOM     22  H33 UNL     1      54.020  45.153  68.729  1.00  0.00     0.277 HD
ATOM     23  H32 UNL     1      53.602  44.978  70.214  1.00  0.00     0.277 HD
ATOM     24  H31 UNL     1      52.373  45.114  69.072  1.00  0.00     0.277 HD
ENDBRANCH  20  21
BRANCH  20  25
HETATM   25  O3  UNL     1      53.317  47.192  70.857  1.00  0.00    -0.327 OA
BRANCH  25  26
HETATM   26  C11 UNL     1      54.495  47.626  71.408  1.00  0.00     0.263 C 
HETATM   27  C12 UNL     1      54.341  48.480  72.622  1.00  0.00     0.061 C 
HETATM   28  C13 UNL     1      55.066  47.909  73.826  1.00  0.00     0.007 C 
HETATM   29  C14 UNL     1      56.493  47.483  73.458  1.00  0.00     0.032 C 
HETATM   30  C15 UNL     1      56.516  46.777  72.132  1.00  0.00     0.126 C 
HETATM   31  O5  UNL     1      55.195  46.478  71.797  1.00  0.00    -0.356 OA
BRANCH  30  32
HETATM   32  C16 UNL     1      57.293  45.499  72.139  1.00  0.00     0.058 C 
BRANCH  32  33
HETATM   33  C17 UNL     1      58.608  45.596  72.859  1.00  0.00     0.166 C 
BRANCH  33  34
HETATM   34  O4  UNL     1      59.576  45.925  71.890  1.00  0.00    -0.401 OA
ATOM     35  H4  UNL     1      59.840  46.821  72.062  1.00  0.00     0.209 HD
ENDBRANCH  33  34
ENDBRANCH  32  33
ENDBRANCH  30  32
ENDBRANCH  25  26
ENDBRANCH  20  25
ENDBRANCH  19  20
ENDBRANCH   1  19
TORSDOF 14
ENDMDL
MODEL 4
REMARK VINA RESULT: -6.245021568      3.400      4.824
REMARK  14 active torsions:
REMARK  status: ('A' for Active; 'I' for Inactive)
REMARK    1  A    between atoms: C2_2  and  O1_3 
REMARK    2  A    between atoms: C2_2  and  C3_5 
REMARK    3  A    between atoms: C3_5  and  N1_6 
REMARK    4  A    between atoms: C3_5  and  C5_12 
REMARK    5  A    between atoms: N1_6  and  C4_8 
REMARK    6  A    between atoms: C8_15  and  O2_16 
REMARK    7  A    between atoms: O2_16  and  C9_17 
REMARK    8  A    between atoms: C9_17  and  C10_18 
REMARK    9  A    between atoms: C10_18  and  N3_19 
REMARK   10  A    between atoms: C10_18  and  O3_23 
REMARK   11  A    between atoms: O3_23  and  C11_24 
REMARK   12  A    between atoms: C15_28  and  C16_29 
REMARK   13  A    between atoms: C16_29  and  C17_30 
REMARK   14  A    between atoms: C17_30  and  O4_31 
ROOT
HETATM    1  O2  UNL     1      51.013  46.694  68.642  1.00  0.00    -0.347 OA
ENDROOT
BRANCH   1   2
HETATM    2  C8  UNL     1      49.693  47.126  68.699  1.00  0.00     0.069 A 
HETATM    3  C7  UNL     1      49.406  48.297  69.366  1.00  0.00     0.037 A 
HETATM    4  C6  UNL     1      48.101  48.753  69.440  1.00  0.00     0.012 A 
HETATM    5  C5  UNL     1      47.044  48.077  68.864  1.00  0.00    -0.033 A 
HETATM    6  C19 UNL     1      47.360  46.911  68.204  1.00  0.00     0.012 A 
HETATM    7  C18 UNL     1      48.662  46.439  68.121  1.00  0.00     0.037 A 
BRANCH   5   8
HETATM    8  C3  UNL     1      45.634  48.504  68.938  1.00  0.00     0.143 C 
BRANCH   8   9
HETATM    9  C2  UNL     1      44.848  47.777  69.987  1.00  0.00     0.141 C 
HETATM   10  C1  UNL     1      44.009  48.789  70.759  1.00  0.00     0.042 C 
BRANCH   9  11
HETATM   11  O1  UNL     1      43.956  46.882  69.415  1.00  0.00    -0.394 OA
ATOM     12  H1  UNL     1      43.435  47.379  68.795  1.00  0.00     0.210 HD
ENDBRANCH   9  11
ENDBRANCH   8   9
BRANCH   8  13
HETATM   13  N1  UNL     1      45.505  49.934  69.051  1.00  0.00    -0.375 N 
ATOM     14  H1  UNL     1      45.389  50.315  69.990  1.00  0.00     0.161 HD
BRANCH  13  15
HETATM   15  C4  UNL     1      45.525  50.861  67.980  1.00  0.00     0.169 C 
HETATM   16  N2  UNL     1      46.510  51.694  67.801  1.00  0.00    -0.396 N 
ATOM     17  H22 UNL     1      47.286  51.665  68.463  1.00  0.00     0.156 HD
ATOM     18  H21 UNL     1      46.525  52.362  67.029  1.00  0.00     0.156 HD
ENDBRANCH  13  15
ENDBRANCH   8  13
ENDBRANCH   5   8
ENDBRANCH   1   2
BRANCH   1  19
HETATM   19  C9  UNL     1      52.106  47.588  68.740  1.00  0.00     0.236 C 
BRANCH  19  20
HETATM   20  C10 UNL     1      53.202  46.898  69.496  1.00  0.00     0.345 C 
BRANCH  20  21
HETATM   21  N3  UNL     1      53.232  45.471  69.240  1.00  0.00    -0.051 N 
ATOM     22  H33 UNL     1      53.167  45.274  68.241  1.00  0.00     0.277 HD
ATOM     23  H32 UNL     1      54.157  45.083  69.421  1.00  0.00     0.277 HD
ATOM     24  H31 UNL     1      52.513  44.970  69.761  1.00  0.00     0.277 HD
ENDBRANCH  20  21
BRANCH  20  25
HETATM   25  O3  UNL     1      53.242  47.121  70.823  1.00  0.00    -0.327 OA
BRANCH  25  26
HETATM   26  C11 UNL     1      54.404  47.616  71.358  1.00  0.00     0.263 C 
HETATM   27  C12 UNL     1      54.220  48.482  72.559  1.00  0.00     0.061 C 
HETATM   28  C13 UNL     1      54.978  47.963  73.766  1.00  0.00     0.007 C 
HETATM   29  C14 UNL     1      56.420  47.597  73.394  1.00  0.00     0.032 C 
HETATM   30  C15 UNL     1      56.466  46.872  72.079  1.00  0.00     0.126 C 
HETATM   31  O5  UNL     1      55.158  46.508  71.759  1.00  0.00    -0.356 OA
BRANCH  30  32
HETATM   32  C16 UNL     1      57.301  45.631  72.099  1.00  0.00     0.058 C 
BRANCH  32  33
HETATM   33  C17 UNL     1      58.758  45.888  72.362  1.00  0.00     0.166 C 
BRANCH  33  34
HETATM   34  O4  UNL     1      59.420  44.654  72.203  1.00  0.00    -0.401 OA
ATOM     35  H4  UNL     1      58.813  44.075  71.757  1.00  0.00     0.209 HD
ENDBRANCH  33  34
ENDBRANCH  32  33
ENDBRANCH  30  32
ENDBRANCH  25  26
ENDBRANCH  20  25
ENDBRANCH  19  20
ENDBRANCH   1  19
TORSDOF 14
ENDMDL
MODEL 5
REMARK VINA RESULT: -6.239875308      2.316      9.810
REMARK  14 active torsions:
REMARK  status: ('A' for Active; 'I' for Inactive)
REMARK    1  A    between atoms: C2_2  and  O1_3 
REMARK    2  A    between atoms: C2_2  and  C3_5 
REMARK    3  A    between atoms: C3_5  and  N1_6 
REMARK    4  A    between atoms: C3_5  and  C5_12 
REMARK    5  A    between atoms: N1_6  and  C4_8 
REMARK    6  A    between atoms: C8_15  and  O2_16 
REMARK    7  A    between atoms: O2_16  and  C9_17 
REMARK    8  A    between atoms: C9_17  and  C10_18 
REMARK    9  A    between atoms: C10_18  and  N3_19 
REMARK   10  A    between atoms: C10_18  and  O3_23 
REMARK   11  A    between atoms: O3_23  and  C11_24 
REMARK   12  A    between atoms: C15_28  and  C16_29 
REMARK   13  A    between atoms: C16_29  and  C17_30 
REMARK   14  A    between atoms: C17_30  and  O4_31 
ROOT
HETATM    1  O2  UNL     1      44.690  47.661  69.122  1.00  0.00    -0.347 OA
ENDROOT
BRANCH   1   2
HETATM    2  C8  UNL     1      46.066  47.628  68.930  1.00  0.00     0.069 A 
HETATM    3  C7  UNL     1      46.789  48.788  69.106  1.00  0.00     0.037 A 
HETATM    4  C6  UNL     1      48.161  48.787  68.921  1.00  0.00     0.012 A 
HETATM    5  C5  UNL     1      48.861  47.653  68.560  1.00  0.00    -0.033 A 
HETATM    6  C19 UNL     1      48.114  46.509  68.391  1.00  0.00     0.012 A 
HETATM    7  C18 UNL     1      46.738  46.493  68.572  1.00  0.00     0.037 A 
BRANCH   5   8
HETATM    8  C3  UNL     1      50.316  47.605  68.322  1.00  0.00     0.143 C 
BRANCH   8   9
HETATM    9  C2  UNL     1      50.899  48.929  67.931  1.00  0.00     0.141 C 
HETATM   10  C1  UNL     1      51.360  49.652  69.191  1.00  0.00     0.042 C 
BRANCH   9  11
HETATM   11  O1  UNL     1      52.023  48.768  67.135  1.00  0.00    -0.394 OA
ATOM     12  H1  UNL     1      52.754  48.631  67.727  1.00  0.00     0.210 HD
ENDBRANCH   9  11
ENDBRANCH   8   9
BRANCH   8  13
HETATM   13  N1  UNL     1      51.025  46.998  69.419  1.00  0.00    -0.375 N 
ATOM     14  H1  UNL     1      50.698  47.219  70.360  1.00  0.00     0.161 HD
BRANCH  13  15
HETATM   15  C4  UNL     1      52.133  46.122  69.314  1.00  0.00     0.169 C 
HETATM   16  N2  UNL     1      53.356  46.558  69.199  1.00  0.00    -0.396 N 
ATOM     17  H22 UNL     1      53.502  47.567  69.185  1.00  0.00     0.156 HD
ATOM     18  H21 UNL     1      54.154  45.927  69.123  1.00  0.00     0.156 HD
ENDBRANCH  13  15
ENDBRANCH   8  13
ENDBRANCH   5   8
ENDBRANCH   1   2
BRANCH   1  19
HETATM   19  C9  UNL     1      44.084  47.224  70.325  1.00  0.00     0.236 C 
BRANCH  19  20
HETATM   20  C10 UNL     1      43.786  48.434  71.159  1.00  0.00     0.345 C 
BRANCH  20  21
HETATM   21  N3  UNL     1      43.235  48.086  72.455  1.00  0.00    -0.051 N 
ATOM     22  H33 UNL     1      43.968  48.017  73.161  1.00  0.00     0.277 HD
ATOM     23  H32 UNL     1      42.702  48.860  72.849  1.00  0.00     0.277 HD
ATOM     24  H31 UNL     1      42.676  47.233  72.420  1.00  0.00     0.277 HD
ENDBRANCH  20  21
BRANCH  20  25
HETATM   25  O3  UNL     1      43.024  49.382  70.584  1.00  0.00    -0.327 OA
BRANCH  25  26
HETATM   26  C11 UNL     1      42.679  50.476  71.336  1.00  0.00     0.263 C 
HETATM   27  C12 UNL     1      42.669  51.769  70.592  1.00  0.00     0.061 C 
HETATM   28  C13 UNL     1      41.321  52.461  70.655  1.00  0.00     0.007 C 
HETATM   29  C14 UNL     1      40.782  52.487  72.090  1.00  0.00     0.032 C 
HETATM   30  C15 UNL     1      41.008  51.167  72.771  1.00  0.00     0.126 C 
HETATM   31  O5  UNL     1      41.374  50.249  71.786  1.00  0.00    -0.356 OA
BRANCH  30  32
HETATM   32  C16 UNL     1      39.803  50.634  73.477  1.00  0.00     0.058 C 
BRANCH  32  33
HETATM   33  C17 UNL     1      40.130  49.761  74.655  1.00  0.00     0.166 C 
BRANCH  33  34
HETATM   34  O4  UNL     1      40.774  48.617  74.144  1.00  0.00    -0.401 OA
ATOM     35  H4  UNL     1      41.667  48.641  74.465  1.00  0.00     0.209 HD
ENDBRANCH  33  34
ENDBRANCH  32  33
ENDBRANCH  30  32
ENDBRANCH  25  26
ENDBRANCH  20  25
ENDBRANCH  19  20
ENDBRANCH   1  19
TORSDOF 14
ENDMDL
