MODEL 1
REMARK VINA RESULT: -6.289256683      0.000      0.000
REMARK  5 active torsions:
REMARK  status: ('A' for Active; 'I' for Inactive)
REMARK    1  A    between atoms: N1_2  and  C2_5 
REMARK    2  A    between atoms: C2_5  and  C3_6 
REMARK    3  A    between atoms: C3_6  and  C4_7 
REMARK    4  A    between atoms: C4_7  and  N2_8 
REMARK    5  A    between atoms: N2_8  and  C5_11 
ROOT
HETATM    1  N2  UNL     1      66.985  34.659  71.609  1.00  0.00    -0.070 N 
ATOM      2  H21 UNL     1      67.564  35.270  71.033  1.00  0.00     0.277 HD
ATOM      3  H22 UNL     1      67.034  35.159  72.497  1.00  0.00     0.277 HD
ENDROOT
BRANCH   1   4
HETATM    4  C4  UNL     1      67.599  33.349  71.731  1.00  0.00     0.234 C 
BRANCH   4   5
HETATM    5  C3  UNL     1      68.124  32.913  70.364  1.00  0.00     0.055 C 
BRANCH   5   6
HETATM    6  C2  UNL     1      69.096  31.724  70.632  1.00  0.00     0.233 C 
BRANCH   6   7
HETATM    7  N1  UNL     1      68.554  30.907  71.676  1.00  0.00    -0.079 N 
HETATM    8  C1  UNL     1      69.269  29.654  71.640  1.00  0.00     0.266 C 
ATOM      9  H12 UNL     1      67.542  30.795  71.613  1.00  0.00     0.276 HD
ATOM     10  H11 UNL     1      68.577  31.357  72.591  1.00  0.00     0.276 HD
ENDBRANCH   6   7
ENDBRANCH   5   6
ENDBRANCH   4   5
ENDBRANCH   1   4
BRANCH   1  11
HETATM   11  C5  UNL     1      65.632  34.636  71.117  1.00  0.00     0.194 C 
HETATM   12  C6  UNL     1      64.826  33.710  72.007  1.00  0.00     0.017 C 
HETATM   13  C7  UNL     1      64.559  34.425  73.348  1.00  0.00     0.011 C 
HETATM   14  C13 UNL     1      63.402  33.552  71.549  1.00  0.00     0.011 C 
HETATM   15  C8  UNL     1      63.680  35.542  72.828  1.00  0.00    -0.010 C 
HETATM   16  C9  UNL     1      64.622  36.603  72.273  1.00  0.00     0.011 C 
HETATM   17  C12 UNL     1      62.944  35.028  71.621  1.00  0.00    -0.010 C 
HETATM   18  C10 UNL     1      64.962  35.944  70.930  1.00  0.00     0.017 C 
HETATM   19  C11 UNL     1      63.570  35.674  70.391  1.00  0.00     0.011 C 
ENDBRANCH   1  11
TORSDOF 5
ENDMDL
MODEL 2
REMARK VINA RESULT: -6.147631671      3.388      6.413
REMARK  5 active torsions:
REMARK  status: ('A' for Active; 'I' for Inactive)
REMARK    1  A    between atoms: N1_2  and  C2_5 
REMARK    2  A    between atoms: C2_5  and  C3_6 
REMARK    3  A    between atoms: C3_6  and  C4_7 
REMARK    4  A    between atoms: C4_7  and  N2_8 
REMARK    5  A    between atoms: N2_8  and  C5_11 
ROOT
HETATM    1  N2  UNL     1      63.018  36.623  69.920  1.00  0.00    -0.070 N 
ATOM      2  H21 UNL     1      62.065  36.314  69.731  1.00  0.00     0.277 HD
ATOM      3  H22 UNL     1      62.841  37.271  70.689  1.00  0.00     0.277 HD
ENDROOT
BRANCH   1   4
HETATM    4  C4  UNL     1      63.558  37.332  68.775  1.00  0.00     0.234 C 
BRANCH   4   5
HETATM    5  C3  UNL     1      63.789  38.794  69.154  1.00  0.00     0.055 C 
BRANCH   5   6
HETATM    6  C2  UNL     1      63.273  39.640  67.951  1.00  0.00     0.233 C 
BRANCH   6   7
HETATM    7  N1  UNL     1      61.912  40.012  68.195  1.00  0.00    -0.079 N 
HETATM    8  C1  UNL     1      61.471  40.764  67.044  1.00  0.00     0.266 C 
ATOM      9  H12 UNL     1      61.783  40.512  69.075  1.00  0.00     0.276 HD
ATOM     10  H11 UNL     1      61.310  39.217  68.409  1.00  0.00     0.276 HD
ENDBRANCH   6   7
ENDBRANCH   5   6
ENDBRANCH   4   5
ENDBRANCH   1   4
BRANCH   1  11
HETATM   11  C5  UNL     1      63.825  35.518  70.369  1.00  0.00     0.194 C 
HETATM   12  C6  UNL     1      65.070  36.085  71.024  1.00  0.00     0.017 C 
HETATM   13  C7  UNL     1      64.685  36.650  72.408  1.00  0.00     0.011 C 
HETATM   14  C13 UNL     1      66.029  35.017  71.476  1.00  0.00     0.011 C 
HETATM   15  C8  UNL     1      64.293  35.348  73.073  1.00  0.00    -0.010 C 
HETATM   16  C9  UNL     1      62.867  35.052  72.625  1.00  0.00     0.011 C 
HETATM   17  C12 UNL     1      65.114  34.247  72.457  1.00  0.00    -0.010 C 
HETATM   18  C10 UNL     1      63.164  34.504  71.224  1.00  0.00     0.017 C 
HETATM   19  C11 UNL     1      64.193  33.439  71.551  1.00  0.00     0.011 C 
ENDBRANCH   1  11
TORSDOF 5
ENDMDL
MODEL 3
REMARK VINA RESULT: -6.136171116      3.088      5.813
REMARK  5 active torsions:
REMARK  status: ('A' for Active; 'I' for Inactive)
REMARK    1  A    between atoms: N1_2  and  C2_5 
REMARK    2  A    between atoms: C2_5  and  C3_6 
REMARK    3  A    between atoms: C3_6  and  C4_7 
REMARK    4  A    between atoms: C4_7  and  N2_8 
REMARK    5  A    between atoms: N2_8  and  C5_11 
ROOT
HETATM    1  N2  UNL     1      63.809  35.887  69.688  1.00  0.00    -0.070 N 
ATOM      2  H21 UNL     1      64.822  35.998  69.633  1.00  0.00     0.277 HD
ATOM      3  H22 UNL     1      63.649  35.333  68.847  1.00  0.00     0.277 HD
ENDROOT
BRANCH   1   4
HETATM    4  C4  UNL     1      63.152  37.177  69.579  1.00  0.00     0.234 C 
BRANCH   4   5
HETATM    5  C3  UNL     1      64.189  38.237  69.211  1.00  0.00     0.055 C 
BRANCH   5   6
HETATM    6  C2  UNL     1      63.456  39.259  68.289  1.00  0.00     0.233 C 
BRANCH   6   7
HETATM    7  N1  UNL     1      63.048  38.591  67.090  1.00  0.00    -0.079 N 
HETATM    8  C1  UNL     1      63.050  39.581  66.039  1.00  0.00     0.266 C 
ATOM      9  H12 UNL     1      62.155  38.107  67.184  1.00  0.00     0.276 HD
ATOM     10  H11 UNL     1      63.616  37.773  66.872  1.00  0.00     0.276 HD
ENDBRANCH   6   7
ENDBRANCH   5   6
ENDBRANCH   4   5
ENDBRANCH   1   4
BRANCH   1  11
HETATM   11  C5  UNL     1      63.449  35.135  70.863  1.00  0.00     0.194 C 
HETATM   12  C6  UNL     1      64.398  33.958  70.974  1.00  0.00     0.017 C 
HETATM   13  C7  UNL     1      65.769  34.476  71.459  1.00  0.00     0.011 C 
HETATM   14  C13 UNL     1      64.075  33.055  72.134  1.00  0.00     0.011 C 
HETATM   15  C8  UNL     1      65.350  34.940  72.838  1.00  0.00    -0.010 C 
HETATM   16  C9  UNL     1      64.723  36.316  72.653  1.00  0.00     0.011 C 
HETATM   17  C12 UNL     1      64.212  34.069  73.294  1.00  0.00    -0.010 C 
HETATM   18  C10 UNL     1      63.345  35.884  72.137  1.00  0.00     0.017 C 
HETATM   19  C11 UNL     1      62.937  34.900  73.216  1.00  0.00     0.011 C 
ENDBRANCH   1  11
TORSDOF 5
ENDMDL
MODEL 4
REMARK VINA RESULT: -6.023338520      3.125      5.907
REMARK  5 active torsions:
REMARK  status: ('A' for Active; 'I' for Inactive)
REMARK    1  A    between atoms: N1_2  and  C2_5 
REMARK    2  A    between atoms: C2_5  and  C3_6 
REMARK    3  A    between atoms: C3_6  and  C4_7 
REMARK    4  A    between atoms: C4_7  and  N2_8 
REMARK    5  A    between atoms: N2_8  and  C5_11 
ROOT
HETATM    1  N2  UNL     1      63.007  36.388  70.336  1.00  0.00    -0.070 N 
ATOM      2  H21 UNL     1      61.988  36.365  70.363  1.00  0.00     0.277 HD
ATOM      3  H22 UNL     1      63.185  37.058  71.085  1.00  0.00     0.277 HD
ENDROOT
BRANCH   1   4
HETATM    4  C4  UNL     1      63.468  36.914  69.065  1.00  0.00     0.234 C 
BRANCH   4   5
HETATM    5  C3  UNL     1      64.127  38.273  69.295  1.00  0.00     0.055 C 
BRANCH   5   6
HETATM    6  C2  UNL     1      63.422  39.267  68.322  1.00  0.00     0.233 C 
BRANCH   6   7
HETATM    7  N1  UNL     1      63.084  38.574  67.115  1.00  0.00    -0.079 N 
HETATM    8  C1  UNL     1      63.108  39.551  66.052  1.00  0.00     0.266 C 
ATOM      9  H12 UNL     1      62.201  38.068  67.176  1.00  0.00     0.276 HD
ATOM     10  H11 UNL     1      63.683  37.768  66.934  1.00  0.00     0.276 HD
ENDBRANCH   6   7
ENDBRANCH   5   6
ENDBRANCH   4   5
ENDBRANCH   1   4
BRANCH   1  11
HETATM   11  C5  UNL     1      63.549  35.098  70.676  1.00  0.00     0.194 C 
HETATM   12  C6  UNL     1      65.048  35.250  70.846  1.00  0.00     0.017 C 
HETATM   13  C7  UNL     1      65.322  35.962  72.188  1.00  0.00     0.011 C 
HETATM   14  C13 UNL     1      65.738  33.946  71.139  1.00  0.00     0.011 C 
HETATM   15  C8  UNL     1      64.799  34.887  73.116  1.00  0.00    -0.010 C 
HETATM   16  C9  UNL     1      63.286  35.056  73.157  1.00  0.00     0.011 C 
HETATM   17  C12 UNL     1      65.007  33.556  72.446  1.00  0.00    -0.010 C 
HETATM   18  C10 UNL     1      62.932  34.389  71.822  1.00  0.00     0.017 C 
HETATM   19  C11 UNL     1      63.645  33.059  71.976  1.00  0.00     0.011 C 
ENDBRANCH   1  11
TORSDOF 5
ENDMDL
MODEL 5
REMARK VINA RESULT: -6.007795984      0.585      2.082
REMARK  5 active torsions:
REMARK  status: ('A' for Active; 'I' for Inactive)
REMARK    1  A    between atoms: N1_2  and  C2_5 
REMARK    2  A    between atoms: C2_5  and  C3_6 
REMARK    3  A    between atoms: C3_6  and  C4_7 
REMARK    4  A    between atoms: C4_7  and  N2_8 
REMARK    5  A    between atoms: N2_8  and  C5_11 
ROOT
HETATM    1  N2  UNL     1      66.796  33.962  70.965  1.00  0.00    -0.070 N 
ATOM      2  H21 UNL     1      66.241  33.580  70.199  1.00  0.00     0.277 HD
ATOM      3  H22 UNL     1      67.288  34.706  70.469  1.00  0.00     0.277 HD
ENDROOT
BRANCH   1   4
HETATM    4  C4  UNL     1      67.735  32.970  71.452  1.00  0.00     0.234 C 
BRANCH   4   5
HETATM    5  C3  UNL     1      68.923  32.892  70.494  1.00  0.00     0.055 C 
BRANCH   5   6
HETATM    6  C2  UNL     1      69.394  31.406  70.507  1.00  0.00     0.233 C 
BRANCH   6   7
HETATM    7  N1  UNL     1      68.668  30.697  71.518  1.00  0.00    -0.079 N 
HETATM    8  C1  UNL     1      69.441  29.522  71.842  1.00  0.00     0.266 C 
ATOM      9  H12 UNL     1      67.707  30.485  71.248  1.00  0.00     0.276 HD
ATOM     10  H11 UNL     1      68.449  31.271  72.333  1.00  0.00     0.276 HD
ENDBRANCH   6   7
ENDBRANCH   5   6
ENDBRANCH   4   5
ENDBRANCH   1   4
BRANCH   1  11
HETATM   11  C5  UNL     1      65.938  34.516  71.980  1.00  0.00     0.194 C 
HETATM   12  C6  UNL     1      65.368  35.818  71.452  1.00  0.00     0.017 C 
HETATM   13  C7  UNL     1      64.282  35.490  70.405  1.00  0.00     0.011 C 
HETATM   14  C13 UNL     1      64.502  36.528  72.458  1.00  0.00     0.011 C 
HETATM   15  C8  UNL     1      63.285  34.821  71.327  1.00  0.00    -0.010 C 
HETATM   16  C9  UNL     1      63.765  33.386  71.505  1.00  0.00     0.011 C 
HETATM   17  C12 UNL     1      63.432  35.436  72.692  1.00  0.00    -0.010 C 
HETATM   18  C10 UNL     1      64.882  33.632  72.527  1.00  0.00     0.017 C 
HETATM   19  C11 UNL     1      64.128  34.415  73.584  1.00  0.00     0.011 C 
ENDBRANCH   1  11
TORSDOF 5
ENDMDL
