MODEL 1
REMARK VINA RESULT: -7.698765087      0.000      0.000
REMARK  2 active torsions:
REMARK  status: ('A' for Active; 'I' for Inactive)
REMARK    1  A    between atoms: N2_5  and  C4_6 
REMARK    2  A    between atoms: C4_6  and  C5_7 
ROOT
HETATM    1  N1  UNL     1      22.146   0.873  -8.671  1.00  0.00    -0.190 NA
HETATM    2  C1  UNL     1      23.087   1.537  -8.781  1.00  0.00     0.119 C 
HETATM    3  C2  UNL     1      24.276   2.348  -8.925  1.00  0.00     0.132 A 
HETATM    4  C3  UNL     1      25.539   1.813  -8.821  1.00  0.00     0.136 A 
HETATM    5  N2  UNL     1      26.666   2.571  -8.956  1.00  0.00    -0.313 N 
HETATM    6  C11 UNL     1      26.469   3.877  -9.195  1.00  0.00     0.316 A 
HETATM    7  O1  UNL     1      27.491   4.601  -9.323  1.00  0.00    -0.262 OA
HETATM    8  C12 UNL     1      25.196   4.430  -9.302  1.00  0.00     0.315 A 
HETATM    9  O2  UNL     1      25.085   5.659  -9.527  1.00  0.00    -0.262 OA
HETATM   10  N3  UNL     1      24.102   3.660  -9.166  1.00  0.00    -0.309 N 
ATOM     11  H3  UNL     1      23.166   4.060  -9.243  1.00  0.00     0.170 HD
ENDROOT
BRANCH   5  12
HETATM   12  C4  UNL     1      27.954   1.947  -8.832  1.00  0.00     0.170 C 
BRANCH  12  13
HETATM   13  C5  UNL     1      28.473   1.833  -7.470  1.00  0.00    -0.040 A 
HETATM   14  C6  UNL     1      28.301   0.664  -6.732  1.00  0.00     0.009 A 
HETATM   15  C7  UNL     1      28.769   0.508  -5.463  1.00  0.00     0.001 A 
HETATM   16  C8  UNL     1      29.448   1.530  -4.851  1.00  0.00     0.000 A 
HETATM   17  C9  UNL     1      29.644   2.702  -5.540  1.00  0.00     0.001 A 
HETATM   18  C10 UNL     1      29.157   2.852  -6.847  1.00  0.00     0.009 A 
ENDBRANCH  12  13
ENDBRANCH   5  12
TORSDOF 2
ENDMDL
MODEL 2
REMARK VINA RESULT: -7.696698134      0.033      1.144
REMARK  2 active torsions:
REMARK  status: ('A' for Active; 'I' for Inactive)
REMARK    1  A    between atoms: N2_5  and  C4_6 
REMARK    2  A    between atoms: C4_6  and  C5_7 
ROOT
HETATM    1  N1  UNL     1      22.147   0.881  -8.668  1.00  0.00    -0.190 NA
HETATM    2  C1  UNL     1      23.089   1.543  -8.777  1.00  0.00     0.119 C 
HETATM    3  C2  UNL     1      24.280   2.350  -8.920  1.00  0.00     0.132 A 
HETATM    4  C3  UNL     1      25.542   1.812  -8.823  1.00  0.00     0.136 A 
HETATM    5  N2  UNL     1      26.671   2.568  -8.957  1.00  0.00    -0.313 N 
HETATM    6  C11 UNL     1      26.477   3.875  -9.189  1.00  0.00     0.316 A 
HETATM    7  O1  UNL     1      27.500   4.597  -9.316  1.00  0.00    -0.262 OA
HETATM    8  C12 UNL     1      25.206   4.432  -9.289  1.00  0.00     0.315 A 
HETATM    9  O2  UNL     1      25.097   5.662  -9.508  1.00  0.00    -0.262 OA
HETATM   10  N3  UNL     1      24.109   3.665  -9.154  1.00  0.00    -0.309 N 
ATOM     11  H3  UNL     1      23.175   4.068  -9.226  1.00  0.00     0.170 HD
ENDROOT
BRANCH   5  12
HETATM   12  C4  UNL     1      27.957   1.939  -8.840  1.00  0.00     0.170 C 
BRANCH  12  13
HETATM   13  C5  UNL     1      28.469   1.794  -7.478  1.00  0.00    -0.040 A 
HETATM   14  C6  UNL     1      29.157   2.833  -6.855  1.00  0.00     0.009 A 
HETATM   15  C7  UNL     1      29.649   2.749  -5.589  1.00  0.00     0.001 A 
HETATM   16  C8  UNL     1      29.477   1.600  -4.861  1.00  0.00     0.000 A 
HETATM   17  C9  UNL     1      28.804   0.547  -5.432  1.00  0.00     0.001 A 
HETATM   18  C10 UNL     1      28.301   0.645  -6.738  1.00  0.00     0.009 A 
ENDBRANCH  12  13
ENDBRANCH   5  12
TORSDOF 2
ENDMDL
MODEL 3
REMARK VINA RESULT: -7.630001764      1.976      2.646
REMARK  2 active torsions:
REMARK  status: ('A' for Active; 'I' for Inactive)
REMARK    1  A    between atoms: N2_5  and  C4_6 
REMARK    2  A    between atoms: C4_6  and  C5_7 
ROOT
HETATM    1  N1  UNL     1      23.539   4.918  -7.122  1.00  0.00    -0.190 NA
HETATM    2  C1  UNL     1      24.071   4.139  -7.791  1.00  0.00     0.119 C 
HETATM    3  C2  UNL     1      24.753   3.163  -8.611  1.00  0.00     0.132 A 
HETATM    4  C3  UNL     1      26.090   2.882  -8.450  1.00  0.00     0.136 A 
HETATM    5  N2  UNL     1      26.741   1.961  -9.219  1.00  0.00    -0.313 N 
HETATM    6  C11 UNL     1      25.997   1.343 -10.148  1.00  0.00     0.316 A 
HETATM    7  O1  UNL     1      26.571   0.488 -10.873  1.00  0.00    -0.262 OA
HETATM    8  C12 UNL     1      24.643   1.617 -10.321  1.00  0.00     0.315 A 
HETATM    9  O2  UNL     1      24.007   1.001 -11.209  1.00  0.00    -0.262 OA
HETATM   10  N3  UNL     1      24.025   2.529  -9.549  1.00  0.00    -0.309 N 
ATOM     11  H3  UNL     1      23.033   2.734  -9.671  1.00  0.00     0.170 HD
ENDROOT
BRANCH   5  12
HETATM   12  C4  UNL     1      28.140   1.722  -8.998  1.00  0.00     0.170 C 
BRANCH  12  13
HETATM   13  C5  UNL     1      28.562   1.686  -7.599  1.00  0.00    -0.040 A 
HETATM   14  C6  UNL     1      29.209   2.773  -7.016  1.00  0.00     0.009 A 
HETATM   15  C7  UNL     1      29.618   2.790  -5.718  1.00  0.00     0.001 A 
HETATM   16  C8  UNL     1      29.398   1.700  -4.915  1.00  0.00     0.000 A 
HETATM   17  C9  UNL     1      28.762   0.603  -5.445  1.00  0.00     0.001 A 
HETATM   18  C10 UNL     1      28.345   0.597  -6.784  1.00  0.00     0.009 A 
ENDBRANCH  12  13
ENDBRANCH   5  12
TORSDOF 2
ENDMDL
MODEL 4
REMARK VINA RESULT: -7.537782839      3.806      5.785
REMARK  2 active torsions:
REMARK  status: ('A' for Active; 'I' for Inactive)
REMARK    1  A    between atoms: N2_5  and  C4_6 
REMARK    2  A    between atoms: C4_6  and  C5_7 
ROOT
HETATM    1  N1  UNL     1      26.016   5.340  -6.991  1.00  0.00    -0.190 NA
HETATM    2  C1  UNL     1      25.397   4.553  -7.570  1.00  0.00     0.119 C 
HETATM    3  C2  UNL     1      24.644   3.560  -8.302  1.00  0.00     0.132 A 
HETATM    4  C3  UNL     1      25.175   2.890  -9.380  1.00  0.00     0.136 A 
HETATM    5  N2  UNL     1      24.470   1.951 -10.075  1.00  0.00    -0.313 N 
HETATM    6  C11 UNL     1      23.221   1.718  -9.646  1.00  0.00     0.316 A 
HETATM    7  O1  UNL     1      22.547   0.857 -10.269  1.00  0.00    -0.262 OA
HETATM    8  C12 UNL     1      22.671   2.389  -8.557  1.00  0.00     0.315 A 
HETATM    9  O2  UNL     1      21.496   2.122  -8.209  1.00  0.00    -0.262 OA
HETATM   10  N3  UNL     1      23.387   3.310  -7.888  1.00  0.00    -0.309 N 
ATOM     11  H3  UNL     1      22.990   3.805  -7.089  1.00  0.00     0.170 HD
ENDROOT
BRANCH   5  12
HETATM   12  C4  UNL     1      25.088   1.293 -11.193  1.00  0.00     0.170 C 
BRANCH  12  13
HETATM   13  C5  UNL     1      25.591   2.173 -12.246  1.00  0.00    -0.040 A 
HETATM   14  C6  UNL     1      24.717   2.885 -13.066  1.00  0.00     0.009 A 
HETATM   15  C7  UNL     1      25.136   3.719 -14.056  1.00  0.00     0.001 A 
HETATM   16  C8  UNL     1      26.477   3.892 -14.287  1.00  0.00     0.000 A 
HETATM   17  C9  UNL     1      27.378   3.211 -13.504  1.00  0.00     0.001 A 
HETATM   18  C10 UNL     1      26.935   2.354 -12.486  1.00  0.00     0.009 A 
ENDBRANCH  12  13
ENDBRANCH   5  12
TORSDOF 2
ENDMDL
MODEL 5
REMARK VINA RESULT: -7.447877334      1.018      1.524
REMARK  2 active torsions:
REMARK  status: ('A' for Active; 'I' for Inactive)
REMARK    1  A    between atoms: N2_5  and  C4_6 
REMARK    2  A    between atoms: C4_6  and  C5_7 
ROOT
HETATM    1  N1  UNL     1      22.305   2.361  -8.049  1.00  0.00    -0.190 NA
HETATM    2  C1  UNL     1      23.345   2.583  -8.503  1.00  0.00     0.119 C 
HETATM    3  C2  UNL     1      24.652   2.838  -9.066  1.00  0.00     0.132 A 
HETATM    4  C3  UNL     1      25.742   2.055  -8.763  1.00  0.00     0.136 A 
HETATM    5  N2  UNL     1      26.978   2.288  -9.291  1.00  0.00    -0.313 N 
HETATM    6  C11 UNL     1      27.071   3.334 -10.127  1.00  0.00     0.316 A 
HETATM    7  O1  UNL     1      28.200   3.574 -10.629  1.00  0.00    -0.262 OA
HETATM    8  C12 UNL     1      25.977   4.134 -10.441  1.00  0.00     0.315 A 
HETATM    9  O2  UNL     1      26.134   5.096 -11.230  1.00  0.00    -0.262 OA
HETATM   10  N3  UNL     1      24.768   3.882  -9.907  1.00  0.00    -0.309 N 
ATOM     11  H3  UNL     1      23.962   4.465 -10.134  1.00  0.00     0.170 HD
ENDROOT
BRANCH   5  12
HETATM   12  C4  UNL     1      28.072   1.431  -8.928  1.00  0.00     0.170 C 
BRANCH  12  13
HETATM   13  C5  UNL     1      28.542   1.555  -7.549  1.00  0.00    -0.040 A 
HETATM   14  C6  UNL     1      29.159   2.722  -7.103  1.00  0.00     0.009 A 
HETATM   15  C7  UNL     1      29.610   2.888  -5.829  1.00  0.00     0.001 A 
HETATM   16  C8  UNL     1      29.466   1.877  -4.913  1.00  0.00     0.000 A 
HETATM   17  C9  UNL     1      28.863   0.707  -5.306  1.00  0.00     0.001 A 
HETATM   18  C10 UNL     1      28.402   0.547  -6.622  1.00  0.00     0.009 A 
ENDBRANCH  12  13
ENDBRANCH   5  12
TORSDOF 2
ENDMDL
