MODEL 1
REMARK VINA RESULT: -4.623139115      0.000      0.000
REMARK  3 active torsions:
REMARK  status: ('A' for Active; 'I' for Inactive)
REMARK       I    between atoms: C1_4  and  N2_5 
REMARK       I    between atoms: C1_4  and  N4_10 
REMARK    1  A    between atoms: N2_5  and  N3_7 
REMARK    2  A    between atoms: N4_10  and  N5_11 
REMARK    3  A    between atoms: N4_10  and  C2_14 
ROOT
HETATM    1  N1  UNL     1      51.517  55.738  67.418  1.00  0.00    -0.231 N 
ATOM      2  H11 UNL     1      52.518  55.815  67.597  1.00  0.00     0.174 HD
ATOM      3  H12 UNL     1      51.060  54.871  67.138  1.00  0.00     0.174 HD
HETATM    4  C1  UNL     1      50.814  56.834  67.565  1.00  0.00     0.719 C 
HETATM    5  N2  UNL     1      49.434  56.728  67.318  1.00  0.00    -0.070 N 
ATOM      6  H2  UNL     1      48.955  57.475  66.818  1.00  0.00     0.212 HD
HETATM    7  N4  UNL     1      51.450  58.043  67.954  1.00  0.00    -0.060 N 
ENDROOT
BRANCH   7   8
HETATM    8  N5  UNL     1      52.747  58.302  67.508  1.00  0.00    -0.321 N 
ATOM      9  H52 UNL     1      53.443  57.561  67.427  1.00  0.00     0.178 HD
ATOM     10  H51 UNL     1      53.004  59.256  67.256  1.00  0.00     0.178 HD
ENDBRANCH   7   8
BRANCH   7  11
HETATM   11  C2  UNL     1      50.739  58.975  68.802  1.00  0.00     0.214 C 
HETATM   12  N6  UNL     1      50.051  58.681  69.856  1.00  0.00    -0.359 N 
HETATM   13  C3  UNL     1      49.468  59.833  70.476  1.00  0.00     0.142 C 
ATOM     14  H6  UNL     1      49.936  57.730  70.207  1.00  0.00     0.162 HD
HETATM   15  C4  UNL     1      50.219  60.989  69.843  1.00  0.00     0.142 C 
HETATM   16  N7  UNL     1      50.674  60.374  68.622  1.00  0.00    -0.359 N 
ATOM     17  H7  UNL     1      50.912  60.871  67.763  1.00  0.00     0.162 HD
ENDBRANCH   7  11
BRANCH   5  18
HETATM   18  N3  UNL     1      48.714  55.622  67.746  1.00  0.00    -0.024 N 
HETATM   19  O1  UNL     1      47.535  55.502  67.355  1.00  0.00    -0.516 OA
HETATM   20  O2  UNL     1      49.231  54.651  68.580  1.00  0.00    -0.516 OA
ENDBRANCH   5  18
TORSDOF 3
ENDMDL
MODEL 2
REMARK VINA RESULT: -4.383023210      2.800      4.873
REMARK  3 active torsions:
REMARK  status: ('A' for Active; 'I' for Inactive)
REMARK       I    between atoms: C1_4  and  N2_5 
REMARK       I    between atoms: C1_4  and  N4_10 
REMARK    1  A    between atoms: N2_5  and  N3_7 
REMARK    2  A    between atoms: N4_10  and  N5_11 
REMARK    3  A    between atoms: N4_10  and  C2_14 
ROOT
HETATM    1  N1  UNL     1      49.696  57.237  66.662  1.00  0.00    -0.231 N 
ATOM      2  H11 UNL     1      50.114  57.639  65.824  1.00  0.00     0.174 HD
ATOM      3  H12 UNL     1      48.790  57.523  67.032  1.00  0.00     0.174 HD
HETATM    4  C1  UNL     1      50.391  56.307  67.270  1.00  0.00     0.719 C 
HETATM    5  N2  UNL     1      49.814  55.752  68.426  1.00  0.00    -0.070 N 
ATOM      6  H2  UNL     1      50.402  55.556  69.236  1.00  0.00     0.212 HD
HETATM    7  N4  UNL     1      51.654  55.908  66.756  1.00  0.00    -0.060 N 
ENDROOT
BRANCH   7   8
HETATM    8  N5  UNL     1      52.468  56.862  66.143  1.00  0.00    -0.321 N 
ATOM      9  H52 UNL     1      52.096  57.527  65.466  1.00  0.00     0.178 HD
ATOM     10  H51 UNL     1      53.460  56.892  66.377  1.00  0.00     0.178 HD
ENDBRANCH   7   8
BRANCH   7  11
HETATM   11  C2  UNL     1      52.064  54.527  66.880  1.00  0.00     0.214 C 
HETATM   12  N6  UNL     1      53.263  54.102  67.109  1.00  0.00    -0.359 N 
HETATM   13  C3  UNL     1      53.341  52.672  67.177  1.00  0.00     0.142 C 
ATOM     14  H6  UNL     1      54.068  54.718  67.229  1.00  0.00     0.162 HD
HETATM   15  C4  UNL     1      51.892  52.250  67.325  1.00  0.00     0.142 C 
HETATM   16  N7  UNL     1      51.221  53.399  66.772  1.00  0.00    -0.359 N 
ATOM     17  H7  UNL     1      50.285  53.399  66.366  1.00  0.00     0.162 HD
ENDBRANCH   7  11
BRANCH   5  18
HETATM   18  N3  UNL     1      48.458  55.467  68.483  1.00  0.00    -0.024 N 
HETATM   19  O1  UNL     1      47.955  55.225  69.599  1.00  0.00    -0.516 OA
HETATM   20  O2  UNL     1      47.638  55.437  67.374  1.00  0.00    -0.516 OA
ENDBRANCH   5  18
TORSDOF 3
ENDMDL
MODEL 3
REMARK VINA RESULT: -4.376869051      1.216      1.718
REMARK  3 active torsions:
REMARK  status: ('A' for Active; 'I' for Inactive)
REMARK       I    between atoms: C1_4  and  N2_5 
REMARK       I    between atoms: C1_4  and  N4_10 
REMARK    1  A    between atoms: N2_5  and  N3_7 
REMARK    2  A    between atoms: N4_10  and  N5_11 
REMARK    3  A    between atoms: N4_10  and  C2_14 
ROOT
HETATM    1  N1  UNL     1      50.924  54.902  66.273  1.00  0.00    -0.231 N 
ATOM      2  H11 UNL     1      51.892  54.721  66.008  1.00  0.00     0.174 HD
ATOM      3  H12 UNL     1      50.187  54.198  66.229  1.00  0.00     0.174 HD
HETATM    4  C1  UNL     1      50.651  56.115  66.686  1.00  0.00     0.719 C 
HETATM    5  N2  UNL     1      49.316  56.364  67.052  1.00  0.00    -0.070 N 
ATOM      6  H2  UNL     1      48.881  57.248  66.789  1.00  0.00     0.212 HD
HETATM    7  N4  UNL     1      51.677  57.096  66.748  1.00  0.00    -0.060 N 
ENDROOT
BRANCH   7   8
HETATM    8  N5  UNL     1      52.690  57.079  65.788  1.00  0.00    -0.321 N 
ATOM      9  H52 UNL     1      52.553  56.651  64.873  1.00  0.00     0.178 HD
ATOM     10  H51 UNL     1      53.590  57.504  66.009  1.00  0.00     0.178 HD
ENDBRANCH   7   8
BRANCH   7  11
HETATM   11  C2  UNL     1      51.646  58.087  67.801  1.00  0.00     0.214 C 
HETATM   12  N6  UNL     1      52.649  58.780  68.229  1.00  0.00    -0.359 N 
HETATM   13  C3  UNL     1      52.289  59.680  69.285  1.00  0.00     0.142 C 
ATOM     14  H6  UNL     1      53.595  58.696  67.856  1.00  0.00     0.162 HD
HETATM   15  C4  UNL     1      50.775  59.718  69.212  1.00  0.00     0.142 C 
HETATM   16  N7  UNL     1      50.509  58.468  68.546  1.00  0.00    -0.359 N 
ATOM     17  H7  UNL     1      49.637  57.941  68.604  1.00  0.00     0.162 HD
ENDBRANCH   7  11
BRANCH   5  18
HETATM   18  N3  UNL     1      48.582  55.427  67.764  1.00  0.00    -0.024 N 
HETATM   19  O1  UNL     1      47.342  55.426  67.627  1.00  0.00    -0.516 OA
HETATM   20  O2  UNL     1      49.150  54.499  68.613  1.00  0.00    -0.516 OA
ENDBRANCH   5  18
TORSDOF 3
ENDMDL
MODEL 4
REMARK VINA RESULT: -4.195370782      4.068      5.060
REMARK  3 active torsions:
REMARK  status: ('A' for Active; 'I' for Inactive)
REMARK       I    between atoms: C1_4  and  N2_5 
REMARK       I    between atoms: C1_4  and  N4_10 
REMARK    1  A    between atoms: N2_5  and  N3_7 
REMARK    2  A    between atoms: N4_10  and  N5_11 
REMARK    3  A    between atoms: N4_10  and  C2_14 
ROOT
HETATM    1  N1  UNL     1      50.314  52.905  68.183  1.00  0.00    -0.231 N 
ATOM      2  H11 UNL     1      50.912  52.174  68.566  1.00  0.00     0.174 HD
ATOM      3  H12 UNL     1      49.364  53.083  68.508  1.00  0.00     0.174 HD
HETATM    4  C1  UNL     1      50.828  53.634  67.223  1.00  0.00     0.719 C 
HETATM    5  N2  UNL     1      50.002  54.642  66.694  1.00  0.00    -0.070 N 
ATOM      6  H2  UNL     1      49.994  54.808  65.688  1.00  0.00     0.212 HD
HETATM    7  N4  UNL     1      52.151  53.387  66.769  1.00  0.00    -0.060 N 
ENDROOT
BRANCH   7   8
HETATM    8  N5  UNL     1      52.628  52.075  66.753  1.00  0.00    -0.321 N 
ATOM      9  H52 UNL     1      53.222  51.712  67.498  1.00  0.00     0.178 HD
ATOM     10  H51 UNL     1      52.377  51.466  65.974  1.00  0.00     0.178 HD
ENDBRANCH   7   8
BRANCH   7  11
HETATM   11  C2  UNL     1      52.970  54.498  66.337  1.00  0.00     0.214 C 
HETATM   12  N6  UNL     1      53.677  55.269  67.096  1.00  0.00    -0.359 N 
HETATM   13  C3  UNL     1      54.377  56.280  66.359  1.00  0.00     0.142 C 
ATOM     14  H6  UNL     1      53.731  55.168  68.110  1.00  0.00     0.162 HD
HETATM   15  C4  UNL     1      54.294  55.790  64.926  1.00  0.00     0.142 C 
HETATM   16  N7  UNL     1      53.137  54.934  65.004  1.00  0.00    -0.359 N 
ATOM     17  H7  UNL     1      52.534  54.683  64.221  1.00  0.00     0.162 HD
ENDBRANCH   7  11
BRANCH   5  18
HETATM   18  N3  UNL     1      49.199  55.415  67.520  1.00  0.00    -0.024 N 
HETATM   19  O1  UNL     1      49.752  56.091  68.412  1.00  0.00    -0.516 OA
HETATM   20  O2  UNL     1      47.825  55.477  67.407  1.00  0.00    -0.516 OA
ENDBRANCH   5  18
TORSDOF 3
ENDMDL
MODEL 5
REMARK VINA RESULT: -4.186256480      3.911      4.966
REMARK  3 active torsions:
REMARK  status: ('A' for Active; 'I' for Inactive)
REMARK       I    between atoms: C1_4  and  N2_5 
REMARK       I    between atoms: C1_4  and  N4_10 
REMARK    1  A    between atoms: N2_5  and  N3_7 
REMARK    2  A    between atoms: N4_10  and  N5_11 
REMARK    3  A    between atoms: N4_10  and  C2_14 
ROOT
HETATM    1  N1  UNL     1      50.335  52.923  68.171  1.00  0.00    -0.231 N 
ATOM      2  H11 UNL     1      50.948  52.200  68.548  1.00  0.00     0.174 HD
ATOM      3  H12 UNL     1      49.386  53.087  68.507  1.00  0.00     0.174 HD
HETATM    4  C1  UNL     1      50.828  53.660  67.206  1.00  0.00     0.719 C 
HETATM    5  N2  UNL     1      49.982  54.656  66.688  1.00  0.00    -0.070 N 
ATOM      6  H2  UNL     1      49.961  54.823  65.682  1.00  0.00     0.212 HD
HETATM    7  N4  UNL     1      52.150  53.432  66.738  1.00  0.00    -0.060 N 
ENDROOT
BRANCH   7   8
HETATM    8  N5  UNL     1      52.645  52.127  66.715  1.00  0.00    -0.321 N 
ATOM      9  H52 UNL     1      53.647  51.935  66.718  1.00  0.00     0.178 HD
ATOM     10  H51 UNL     1      51.989  51.347  66.693  1.00  0.00     0.178 HD
ENDBRANCH   7   8
BRANCH   7  11
HETATM   11  C2  UNL     1      52.948  54.555  66.298  1.00  0.00     0.214 C 
HETATM   12  N6  UNL     1      53.169  54.903  65.073  1.00  0.00    -0.359 N 
HETATM   13  C3  UNL     1      54.002  56.065  64.970  1.00  0.00     0.142 C 
ATOM     14  H6  UNL     1      52.791  54.405  64.267  1.00  0.00     0.162 HD
HETATM   15  C4  UNL     1      53.977  56.639  66.373  1.00  0.00     0.142 C 
HETATM   16  N7  UNL     1      53.626  55.467  67.135  1.00  0.00    -0.359 N 
ATOM     17  H7  UNL     1      53.835  55.320  68.122  1.00  0.00     0.162 HD
ENDBRANCH   7  11
BRANCH   5  18
HETATM   18  N3  UNL     1      49.177  55.417  67.523  1.00  0.00    -0.024 N 
HETATM   19  O1  UNL     1      49.725  56.061  68.439  1.00  0.00    -0.516 OA
HETATM   20  O2  UNL     1      47.805  55.498  67.393  1.00  0.00    -0.516 OA
ENDBRANCH   5  18
TORSDOF 3
ENDMDL
