MODEL 1
REMARK VINA RESULT: -5.578367422      0.000      0.000
REMARK  2 active torsions:
REMARK  status: ('A' for Active; 'I' for Inactive)
REMARK    1  A    between atoms: C2_2  and  C3_3 
REMARK    2  A    between atoms: C3_3  and  C4_4 
REMARK       I    between atoms: N3_10  and  C6_12 
REMARK       I    between atoms: C6_12  and  N4_13 
ROOT
HETATM    1  C4  UNL     1      14.640   6.977  23.682  1.00  0.00     0.069 A 
HETATM    2  N1  UNL     1      15.287   7.973  23.097  1.00  0.00    -0.296 N 
ATOM      3  H1  UNL     1      15.702   8.713  23.664  1.00  0.00     0.187 HD
HETATM    4  N2  UNL     1      15.395   8.010  21.832  1.00  0.00    -0.279 N 
ATOM      5  H2  UNL     1      15.893   8.773  21.373  1.00  0.00     0.189 HD
HETATM    6  C5  UNL     1      14.842   7.023  21.114  1.00  0.00     0.180 A 
HETATM    7  N3  UNL     1      14.846   6.885  19.808  1.00  0.00    -0.169 N 
ATOM      8  H3  UNL     1      14.383   6.081  19.384  1.00  0.00     0.186 HD
HETATM    9  C6  UNL     1      15.487   7.841  18.985  1.00  0.00     0.681 C 
HETATM   10  N4  UNL     1      14.982   9.164  18.957  1.00  0.00    -0.166 N 
ATOM     11  H4  UNL     1      15.567   9.953  19.233  1.00  0.00     0.186 HD
HETATM   12  C7  UNL     1      13.768   9.343  18.575  1.00  0.00     0.215 C 
HETATM   13  N5  UNL     1      12.900   8.293  18.180  1.00  0.00    -0.066 NA
HETATM   14  N6  UNL     1      13.267  10.671  18.549  1.00  0.00    -0.066 NA
HETATM   15  N7  UNL     1      16.503   7.546  18.268  1.00  0.00    -0.230 N 
ATOM     16  H7  UNL     1      16.932   8.269  17.689  1.00  0.00     0.177 HD
HETATM   17  C8  UNL     1      17.063   6.200  18.259  1.00  0.00     0.165 C 
HETATM   18  S1  UNL     1      14.161   6.044  22.330  1.00  0.00    -0.037 SA
ENDROOT
BRANCH   1  19
HETATM   19  C3  UNL     1      14.401   6.751  25.156  1.00  0.00     0.066 C 
BRANCH  19  20
HETATM   20  C2  UNL     1      12.898   6.946  25.355  1.00  0.00     0.002 C 
HETATM   21  C1  UNL     1      12.403   7.722  24.162  1.00  0.00     0.005 C 
ENDBRANCH  19  20
ENDBRANCH   1  19
TORSDOF 2
ENDMDL
MODEL 2
REMARK VINA RESULT: -5.208529007      1.644      2.115
REMARK  2 active torsions:
REMARK  status: ('A' for Active; 'I' for Inactive)
REMARK    1  A    between atoms: C2_2  and  C3_3 
REMARK    2  A    between atoms: C3_3  and  C4_4 
REMARK       I    between atoms: N3_10  and  C6_12 
REMARK       I    between atoms: C6_12  and  N4_13 
ROOT
HETATM    1  C4  UNL     1      14.579   7.586  23.416  1.00  0.00     0.069 A 
HETATM    2  N1  UNL     1      14.464   8.843  23.018  1.00  0.00    -0.296 N 
ATOM      3  H1  UNL     1      14.615   9.603  23.682  1.00  0.00     0.187 HD
HETATM    4  N2  UNL     1      14.168   9.107  21.811  1.00  0.00    -0.279 N 
ATOM      5  H2  UNL     1      14.078  10.073  21.495  1.00  0.00     0.189 HD
HETATM    6  C5  UNL     1      13.978   8.088  20.962  1.00  0.00     0.180 A 
HETATM    7  N3  UNL     1      13.669   8.156  19.688  1.00  0.00    -0.169 N 
ATOM      8  H3  UNL     1      13.551   7.297  19.151  1.00  0.00     0.186 HD
HETATM    9  C6  UNL     1      13.498   9.409  19.054  1.00  0.00     0.681 C 
HETATM   10  N4  UNL     1      12.436  10.246  19.473  1.00  0.00    -0.166 N 
ATOM     11  H4  UNL     1      12.619  11.178  19.845  1.00  0.00     0.186 HD
HETATM   12  C7  UNL     1      11.234   9.799  19.372  1.00  0.00     0.215 C 
HETATM   13  N5  UNL     1      10.909   8.514  18.867  1.00  0.00    -0.066 NA
HETATM   14  N6  UNL     1      10.173  10.641  19.793  1.00  0.00    -0.066 NA
HETATM   15  N7  UNL     1      14.273   9.806  18.118  1.00  0.00    -0.230 N 
ATOM     16  H7  UNL     1      14.111  10.718  17.689  1.00  0.00     0.177 HD
HETATM   17  C8  UNL     1      15.382   8.985  17.648  1.00  0.00     0.165 C 
HETATM   18  S1  UNL     1      14.241   6.739  21.969  1.00  0.00    -0.037 SA
ENDROOT
BRANCH   1  19
HETATM   19  C3  UNL     1      14.919   7.065  24.794  1.00  0.00     0.066 C 
BRANCH  19  20
HETATM   20  C2  UNL     1      13.677   6.303  25.254  1.00  0.00     0.002 C 
HETATM   21  C1  UNL     1      12.566   7.317  25.363  1.00  0.00     0.005 C 
ENDBRANCH  19  20
ENDBRANCH   1  19
TORSDOF 2
ENDMDL
MODEL 3
REMARK VINA RESULT: -4.618967180      1.484      2.873
REMARK  2 active torsions:
REMARK  status: ('A' for Active; 'I' for Inactive)
REMARK    1  A    between atoms: C2_2  and  C3_3 
REMARK    2  A    between atoms: C3_3  and  C4_4 
REMARK       I    between atoms: N3_10  and  C6_12 
REMARK       I    between atoms: C6_12  and  N4_13 
ROOT
HETATM    1  C4  UNL     1      14.236   7.151  23.704  1.00  0.00     0.069 A 
HETATM    2  N1  UNL     1      14.057   6.384  22.640  1.00  0.00    -0.296 N 
ATOM      3  H1  UNL     1      14.038   5.369  22.742  1.00  0.00     0.187 HD
HETATM    4  N2  UNL     1      13.909   6.908  21.493  1.00  0.00    -0.279 N 
ATOM      5  H2  UNL     1      13.770   6.325  20.667  1.00  0.00     0.189 HD
HETATM    6  C5  UNL     1      13.937   8.244  21.391  1.00  0.00     0.180 A 
HETATM    7  N3  UNL     1      13.804   8.966  20.303  1.00  0.00    -0.169 N 
ATOM      8  H3  UNL     1      13.846   9.983  20.363  1.00  0.00     0.186 HD
HETATM    9  C6  UNL     1      13.601   8.345  19.047  1.00  0.00     0.681 C 
HETATM   10  N4  UNL     1      14.629   7.530  18.516  1.00  0.00    -0.166 N 
ATOM     11  H4  UNL     1      14.463   6.544  18.311  1.00  0.00     0.186 HD
HETATM   12  C7  UNL     1      15.778   8.065  18.299  1.00  0.00     0.215 C 
HETATM   13  N5  UNL     1      16.079   9.427  18.561  1.00  0.00    -0.066 NA
HETATM   14  N6  UNL     1      16.806   7.244  17.766  1.00  0.00    -0.066 NA
HETATM   15  N7  UNL     1      12.521   8.500  18.381  1.00  0.00    -0.230 N 
ATOM     16  H7  UNL     1      12.420   8.033  17.479  1.00  0.00     0.177 HD
HETATM   17  C8  UNL     1      11.430   9.328  18.881  1.00  0.00     0.165 C 
HETATM   18  S1  UNL     1      14.187   8.713  23.009  1.00  0.00    -0.037 SA
ENDROOT
BRANCH   1  19
HETATM   19  C3  UNL     1      14.431   6.730  25.143  1.00  0.00     0.066 C 
BRANCH  19  20
HETATM   20  C2  UNL     1      13.026   6.695  25.745  1.00  0.00     0.002 C 
HETATM   21  C1  UNL     1      12.120   7.397  24.765  1.00  0.00     0.005 C 
ENDBRANCH  19  20
ENDBRANCH   1  19
TORSDOF 2
ENDMDL
MODEL 4
REMARK VINA RESULT: -3.655502560      2.841      5.302
REMARK  2 active torsions:
REMARK  status: ('A' for Active; 'I' for Inactive)
REMARK    1  A    between atoms: C2_2  and  C3_3 
REMARK    2  A    between atoms: C3_3  and  C4_4 
REMARK       I    between atoms: N3_10  and  C6_12 
REMARK       I    between atoms: C6_12  and  N4_13 
ROOT
HETATM    1  C4  UNL     1      12.237  10.415  20.724  1.00  0.00     0.069 A 
HETATM    2  N1  UNL     1      11.917   9.143  20.902  1.00  0.00    -0.296 N 
ATOM      3  H1  UNL     1      10.966   8.826  20.713  1.00  0.00     0.187 HD
HETATM    4  N2  UNL     1      12.790   8.315  21.309  1.00  0.00    -0.279 N 
ATOM      5  H2  UNL     1      12.553   7.333  21.450  1.00  0.00     0.189 HD
HETATM    6  C5  UNL     1      14.031   8.760  21.548  1.00  0.00     0.180 A 
HETATM    7  N3  UNL     1      15.063   8.066  21.969  1.00  0.00    -0.169 N 
ATOM      8  H3  UNL     1      15.959   8.531  22.113  1.00  0.00     0.186 HD
HETATM    9  C6  UNL     1      14.942   6.680  22.224  1.00  0.00     0.681 C 
HETATM   10  N4  UNL     1      14.085   6.250  23.266  1.00  0.00    -0.166 N 
ATOM     11  H4  UNL     1      13.295   5.633  23.073  1.00  0.00     0.186 HD
HETATM   12  C7  UNL     1      14.327   6.660  24.460  1.00  0.00     0.215 C 
HETATM   13  N5  UNL     1      15.405   7.519  24.799  1.00  0.00    -0.066 NA
HETATM   14  N6  UNL     1      13.465   6.227  25.501  1.00  0.00    -0.066 NA
HETATM   15  N7  UNL     1      15.582   5.807  21.545  1.00  0.00    -0.230 N 
ATOM     16  H7  UNL     1      15.464   4.818  21.765  1.00  0.00     0.177 HD
HETATM   17  C8  UNL     1      16.478   6.193  20.462  1.00  0.00     0.165 C 
HETATM   18  S1  UNL     1      13.889  10.415  21.166  1.00  0.00    -0.037 SA
ENDROOT
BRANCH   1  19
HETATM   19  C3  UNL     1      11.354  11.547  20.252  1.00  0.00     0.066 C 
BRANCH  19  20
HETATM   20  C2  UNL     1       9.938  10.973  20.237  1.00  0.00     0.002 C 
HETATM   21  C1  UNL     1       9.803  10.191  18.955  1.00  0.00     0.005 C 
ENDBRANCH  19  20
ENDBRANCH   1  19
TORSDOF 2
ENDMDL
MODEL 5
REMARK VINA RESULT: -3.078146743      2.824      5.563
REMARK  2 active torsions:
REMARK  status: ('A' for Active; 'I' for Inactive)
REMARK    1  A    between atoms: C2_2  and  C3_3 
REMARK    2  A    between atoms: C3_3  and  C4_4 
REMARK       I    between atoms: N3_10  and  C6_12 
REMARK       I    between atoms: C6_12  and  N4_13 
ROOT
HETATM    1  C4  UNL     1      11.986  10.524  21.241  1.00  0.00     0.069 A 
HETATM    2  N1  UNL     1      13.189  10.527  21.794  1.00  0.00    -0.296 N 
ATOM      3  H1  UNL     1      13.791  11.345  21.699  1.00  0.00     0.187 HD
HETATM    4  N2  UNL     1      13.596   9.514  22.443  1.00  0.00    -0.279 N 
ATOM      5  H2  UNL     1      14.521   9.507  22.873  1.00  0.00     0.189 HD
HETATM    6  C5  UNL     1      12.782   8.455  22.552  1.00  0.00     0.180 A 
HETATM    7  N3  UNL     1      13.019   7.325  23.177  1.00  0.00    -0.169 N 
ATOM      8  H3  UNL     1      12.310   6.592  23.183  1.00  0.00     0.186 HD
HETATM    9  C6  UNL     1      14.251   7.114  23.841  1.00  0.00     0.681 C 
HETATM   10  N4  UNL     1      15.440   7.071  23.075  1.00  0.00    -0.166 N 
ATOM     11  H4  UNL     1      16.196   7.736  23.243  1.00  0.00     0.186 HD
HETATM   12  C7  UNL     1      15.543   6.172  22.161  1.00  0.00     0.215 C 
HETATM   13  N5  UNL     1      14.532   5.219  21.873  1.00  0.00    -0.066 NA
HETATM   14  N6  UNL     1      16.737   6.133  21.395  1.00  0.00    -0.066 NA
HETATM   15  N7  UNL     1      14.320   6.962  25.109  1.00  0.00    -0.230 N 
ATOM     16  H7  UNL     1      15.231   6.812  25.544  1.00  0.00     0.177 HD
HETATM   17  C8  UNL     1      13.127   6.997  25.945  1.00  0.00     0.165 C 
HETATM   18  S1  UNL     1      11.412   8.975  21.683  1.00  0.00    -0.037 SA
ENDROOT
BRANCH   1  19
HETATM   19  C3  UNL     1      11.321  11.617  20.436  1.00  0.00     0.066 C 
BRANCH  19  20
HETATM   20  C2  UNL     1      10.196  10.922  19.668  1.00  0.00     0.002 C 
HETATM   21  C1  UNL     1      10.818   9.742  18.966  1.00  0.00     0.005 C 
ENDBRANCH  19  20
ENDBRANCH   1  19
TORSDOF 2
ENDMDL
