MODEL 1
REMARK VINA RESULT: -8.323721049      0.000      0.000
REMARK  8 active torsions:
REMARK  status: ('A' for Active; 'I' for Inactive)
REMARK    1  A    between atoms: N1_1  and  C1_4 
REMARK    2  A    between atoms: N3_8  and  C3_9 
REMARK    3  A    between atoms: C3_9  and  C4_10 
REMARK    4  A    between atoms: C4_10  and  N4_11 
REMARK    5  A    between atoms: N4_11  and  N5_13 
REMARK    6  A    between atoms: N5_13  and  N6_15 
REMARK    7  A    between atoms: C5_17  and  C6_18 
REMARK    8  A    between atoms: N10_29  and  N11_31 
ROOT
HETATM    1  C4  UNL     1      23.370 -16.220  11.926  1.00  0.00     0.130 C 
HETATM    2  N10 UNL     1      23.086 -14.996  12.205  1.00  0.00    -0.293 N 
ATOM      3  H10 UNL     1      23.357 -14.658  13.129  1.00  0.00     0.187 HD
ENDROOT
BRANCH   1   4
HETATM    4  C3  UNL     1      23.036 -16.842  10.623  1.00  0.00     0.227 C 
BRANCH   4   5
HETATM    5  N3  UNL     1      24.142 -16.708   9.683  1.00  0.00    -0.172 N 
HETATM    6  C2  UNL     1      24.144 -15.629   8.844  1.00  0.00     0.218 A 
HETATM    7  N2  UNL     1      25.087 -15.426   7.937  1.00  0.00    -0.187 N 
HETATM    8  C1  UNL     1      26.089 -16.326   7.842  1.00  0.00     0.691 A 
ATOM      9  H2  UNL     1      25.057 -14.609   7.326  1.00  0.00     0.185 HD
HETATM   10  N13 UNL     1      26.134 -17.396   8.637  1.00  0.00    -0.023 N 
HETATM   11  C10 UNL     1      25.141 -17.576   9.565  1.00  0.00     0.693 A 
ATOM     12  H13 UNL     1      26.896 -18.069   8.556  1.00  0.00     0.203 HD
HETATM   13  N12 UNL     1      25.262 -18.604  10.304  1.00  0.00    -0.234 N 
ATOM     14 2H12 UNL     1      24.523 -18.738  10.995  1.00  0.00     0.174 HD
ATOM     15 1H12 UNL     1      26.029 -19.270  10.213  1.00  0.00     0.174 HD
BRANCH   8  16
HETATM   16  N1  UNL     1      27.029 -16.156   6.962  1.00  0.00    -0.234 N 
ATOM     17  H12 UNL     1      26.908 -15.446   6.239  1.00  0.00     0.174 HD
ATOM     18  H11 UNL     1      27.872 -16.728   7.003  1.00  0.00     0.174 HD
ENDBRANCH   8  16
ENDBRANCH   4   5
ENDBRANCH   1   4
BRANCH   1  19
HETATM   19  N4  UNL     1      24.025 -16.989  12.909  1.00  0.00    -0.272 N 
ATOM     20  H4  UNL     1      23.987 -18.007  12.847  1.00  0.00     0.190 HD
BRANCH  19  21
HETATM   21  N5  UNL     1      24.657 -16.460  13.863  1.00  0.00    -0.242 N 
ATOM     22  H5  UNL     1      24.252 -15.677  14.376  1.00  0.00     0.208 HD
BRANCH  21  23
HETATM   23  N6  UNL     1      25.905 -16.950  14.210  1.00  0.00    -0.296 N 
HETATM   24  C5  UNL     1      26.250 -18.153  13.925  1.00  0.00     0.129 C 
ATOM     25  H6  UNL     1      26.562 -16.344  14.700  1.00  0.00     0.187 HD
BRANCH  24  26
HETATM   26  C6  UNL     1      27.571 -18.606  14.315  1.00  0.00     0.090 A 
HETATM   27  C7  UNL     1      28.696 -17.961  13.816  1.00  0.00     0.137 A 
HETATM   28  N7  UNL     1      28.522 -16.875  12.938  1.00  0.00    -0.081 NA
HETATM   29  N8  UNL     1      29.926 -18.384  14.180  1.00  0.00    -0.296 N 
HETATM   30  C8  UNL     1      30.129 -19.416  15.016  1.00  0.00     0.328 A 
ATOM     31  H8  UNL     1      30.739 -17.897  13.802  1.00  0.00     0.171 HD
HETATM   32  O1  UNL     1      31.295 -19.787  15.338  1.00  0.00    -0.247 OA
HETATM   33  N9  UNL     1      29.043 -20.044  15.501  1.00  0.00    -0.275 N 
HETATM   34  C9  UNL     1      27.789 -19.661  15.169  1.00  0.00     0.264 A 
ATOM     35  H9  UNL     1      29.168 -20.830  16.139  1.00  0.00     0.173 HD
HETATM   36  O2  UNL     1      26.777 -20.262  15.635  1.00  0.00    -0.267 OA
ENDBRANCH  24  26
ENDBRANCH  21  23
ENDBRANCH  19  21
ENDBRANCH   1  19
BRANCH   2  37
HETATM   37  N11 UNL     1      22.456 -14.103  11.378  1.00  0.00    -0.344 N 
ATOM     38 2H11 UNL     1      23.014 -13.304  11.079  1.00  0.00     0.176 HD
ATOM     39 1H11 UNL     1      21.494 -14.168  11.043  1.00  0.00     0.176 HD
ENDBRANCH   2  37
TORSDOF 8
ENDMDL
MODEL 2
REMARK VINA RESULT: -8.228125186      1.055      1.618
REMARK  8 active torsions:
REMARK  status: ('A' for Active; 'I' for Inactive)
REMARK    1  A    between atoms: N1_1  and  C1_4 
REMARK    2  A    between atoms: N3_8  and  C3_9 
REMARK    3  A    between atoms: C3_9  and  C4_10 
REMARK    4  A    between atoms: C4_10  and  N4_11 
REMARK    5  A    between atoms: N4_11  and  N5_13 
REMARK    6  A    between atoms: N5_13  and  N6_15 
REMARK    7  A    between atoms: C5_17  and  C6_18 
REMARK    8  A    between atoms: N10_29  and  N11_31 
ROOT
HETATM    1  C4  UNL     1      23.321 -16.193  11.867  1.00  0.00     0.130 C 
HETATM    2  N10 UNL     1      23.045 -14.964  12.132  1.00  0.00    -0.293 N 
ATOM      3  H10 UNL     1      23.304 -14.622  13.058  1.00  0.00     0.187 HD
ENDROOT
BRANCH   1   4
HETATM    4  C3  UNL     1      23.003 -16.821  10.563  1.00  0.00     0.227 C 
BRANCH   4   5
HETATM    5  N3  UNL     1      24.123 -16.701   9.639  1.00  0.00    -0.172 N 
HETATM    6  C2  UNL     1      24.160 -15.611   8.814  1.00  0.00     0.218 A 
HETATM    7  N2  UNL     1      25.118 -15.417   7.922  1.00  0.00    -0.187 N 
HETATM    8  C1  UNL     1      26.101 -16.339   7.827  1.00  0.00     0.691 A 
ATOM      9  H2  UNL     1      25.114 -14.593   7.321  1.00  0.00     0.185 HD
HETATM   10  N13 UNL     1      26.112 -17.420   8.608  1.00  0.00    -0.023 N 
HETATM   11  C10 UNL     1      25.104 -17.589   9.521  1.00  0.00     0.693 A 
ATOM     12  H13 UNL     1      26.860 -18.109   8.527  1.00  0.00     0.203 HD
HETATM   13  N12 UNL     1      25.192 -18.629  10.248  1.00  0.00    -0.234 N 
ATOM     14 2H12 UNL     1      24.441 -18.755  10.928  1.00  0.00     0.174 HD
ATOM     15 1H12 UNL     1      25.945 -19.311  10.158  1.00  0.00     0.174 HD
BRANCH   8  16
HETATM   16  N1  UNL     1      27.056 -16.179   6.960  1.00  0.00    -0.234 N 
ATOM     17  H12 UNL     1      27.412 -15.239   6.785  1.00  0.00     0.174 HD
ATOM     18  H11 UNL     1      27.436 -16.988   6.469  1.00  0.00     0.174 HD
ENDBRANCH   8  16
ENDBRANCH   4   5
ENDBRANCH   1   4
BRANCH   1  19
HETATM   19  N4  UNL     1      23.953 -16.961  12.866  1.00  0.00    -0.272 N 
ATOM     20  H4  UNL     1      23.915 -17.979  12.805  1.00  0.00     0.190 HD
BRANCH  19  21
HETATM   21  N5  UNL     1      24.565 -16.431  13.833  1.00  0.00    -0.242 N 
ATOM     22  H5  UNL     1      24.134 -15.671  14.358  1.00  0.00     0.208 HD
BRANCH  21  23
HETATM   23  N6  UNL     1      25.825 -16.889  14.176  1.00  0.00    -0.296 N 
HETATM   24  C5  UNL     1      26.243 -18.039  13.789  1.00  0.00     0.129 C 
ATOM     25  H6  UNL     1      26.433 -16.301  14.747  1.00  0.00     0.187 HD
BRANCH  24  26
HETATM   26  C6  UNL     1      27.575 -18.461  14.182  1.00  0.00     0.090 A 
HETATM   27  C7  UNL     1      27.731 -19.560  15.017  1.00  0.00     0.137 A 
HETATM   28  N7  UNL     1      26.584 -20.242  15.464  1.00  0.00    -0.081 NA
HETATM   29  N8  UNL     1      28.971 -19.952  15.382  1.00  0.00    -0.296 N 
HETATM   30  C8  UNL     1      30.088 -19.325  14.975  1.00  0.00     0.328 A 
ATOM     31  H8  UNL     1      29.065 -20.761  15.996  1.00  0.00     0.171 HD
HETATM   32  O1  UNL     1      31.235 -19.717  15.334  1.00  0.00    -0.247 OA
HETATM   33  N9  UNL     1      29.941 -18.260  14.166  1.00  0.00    -0.275 N 
HETATM   34  C9  UNL     1      28.722 -17.825  13.771  1.00  0.00     0.264 A 
ATOM     35  H9  UNL     1      30.772 -17.765  13.842  1.00  0.00     0.173 HD
HETATM   36  O2  UNL     1      28.601 -16.821  13.009  1.00  0.00    -0.267 OA
ENDBRANCH  24  26
ENDBRANCH  21  23
ENDBRANCH  19  21
ENDBRANCH   1  19
BRANCH   2  37
HETATM   37  N11 UNL     1      22.436 -14.071  11.289  1.00  0.00    -0.344 N 
ATOM     38 2H11 UNL     1      21.442 -14.225  11.124  1.00  0.00     0.176 HD
ATOM     39 1H11 UNL     1      22.884 -13.282  10.822  1.00  0.00     0.176 HD
ENDBRANCH   2  37
TORSDOF 8
ENDMDL
MODEL 3
REMARK VINA RESULT: -8.154215843      3.246      7.061
REMARK  8 active torsions:
REMARK  status: ('A' for Active; 'I' for Inactive)
REMARK    1  A    between atoms: N1_1  and  C1_4 
REMARK    2  A    between atoms: N3_8  and  C3_9 
REMARK    3  A    between atoms: C3_9  and  C4_10 
REMARK    4  A    between atoms: C4_10  and  N4_11 
REMARK    5  A    between atoms: N4_11  and  N5_13 
REMARK    6  A    between atoms: N5_13  and  N6_15 
REMARK    7  A    between atoms: C5_17  and  C6_18 
REMARK    8  A    between atoms: N10_29  and  N11_31 
ROOT
HETATM    1  C4  UNL     1      24.687 -17.332  14.490  1.00  0.00     0.130 C 
HETATM    2  N10 UNL     1      23.955 -17.007  15.498  1.00  0.00    -0.293 N 
ATOM      3  H10 UNL     1      23.732 -16.017  15.606  1.00  0.00     0.187 HD
ENDROOT
BRANCH   1   4
HETATM    4  C3  UNL     1      25.088 -18.730  14.210  1.00  0.00     0.227 C 
BRANCH   4   5
HETATM    5  N3  UNL     1      26.453 -18.980  14.654  1.00  0.00    -0.172 N 
HETATM    6  C2  UNL     1      27.340 -17.940  14.618  1.00  0.00     0.218 A 
HETATM    7  N2  UNL     1      28.609 -18.065  14.975  1.00  0.00    -0.187 N 
HETATM    8  C1  UNL     1      29.040 -19.274  15.394  1.00  0.00     0.691 A 
ATOM      9  H2  UNL     1      29.244 -17.268  14.934  1.00  0.00     0.185 HD
HETATM   10  N13 UNL     1      28.216 -20.320  15.449  1.00  0.00    -0.023 N 
HETATM   11  C10 UNL     1      26.908 -20.156  15.071  1.00  0.00     0.693 A 
ATOM     12  H13 UNL     1      28.553 -21.229  15.768  1.00  0.00     0.203 HD
HETATM   13  N12 UNL     1      26.174 -21.191  15.173  1.00  0.00    -0.234 N 
ATOM     14 2H12 UNL     1      25.201 -21.068  14.891  1.00  0.00     0.174 HD
ATOM     15 1H12 UNL     1      26.524 -22.094  15.493  1.00  0.00     0.174 HD
BRANCH   8  16
HETATM   16  N1  UNL     1      30.280 -19.430  15.751  1.00  0.00    -0.234 N 
ATOM     17  H12 UNL     1      30.999 -19.482  15.030  1.00  0.00     0.174 HD
ATOM     18  H11 UNL     1      30.518 -19.496  16.740  1.00  0.00     0.174 HD
ENDBRANCH   8  16
ENDBRANCH   4   5
ENDBRANCH   1   4
BRANCH   1  19
HETATM   19  N4  UNL     1      25.117 -16.305  13.625  1.00  0.00    -0.272 N 
ATOM     20  H4  UNL     1      26.117 -16.125  13.530  1.00  0.00     0.190 HD
BRANCH  19  21
HETATM   21  N5  UNL     1      24.306 -15.601  12.965  1.00  0.00    -0.242 N 
ATOM     22  H5  UNL     1      23.566 -15.087  13.442  1.00  0.00     0.208 HD
BRANCH  21  23
HETATM   23  N6  UNL     1      24.428 -15.531  11.587  1.00  0.00    -0.296 N 
HETATM   24  C5  UNL     1      24.647 -16.582  10.885  1.00  0.00     0.129 C 
ATOM     25  H6  UNL     1      24.341 -14.627  11.123  1.00  0.00     0.187 HD
BRANCH  24  26
HETATM   26  C6  UNL     1      24.765 -16.442   9.446  1.00  0.00     0.090 A 
HETATM   27  C7  UNL     1      25.684 -17.217   8.751  1.00  0.00     0.137 A 
HETATM   28  N7  UNL     1      26.485 -18.126   9.466  1.00  0.00    -0.081 NA
HETATM   29  N8  UNL     1      25.792 -17.085   7.410  1.00  0.00    -0.296 N 
HETATM   30  C8  UNL     1      25.044 -16.228   6.695  1.00  0.00     0.328 A 
ATOM     31  H8  UNL     1      26.473 -17.663   6.918  1.00  0.00     0.171 HD
HETATM   32  O1  UNL     1      25.169 -16.129   5.440  1.00  0.00    -0.247 OA
HETATM   33  N9  UNL     1      24.152 -15.476   7.364  1.00  0.00    -0.275 N 
HETATM   34  C9  UNL     1      24.004 -15.567   8.706  1.00  0.00     0.264 A 
ATOM     35  H9  UNL     1      23.571 -14.817   6.845  1.00  0.00     0.173 HD
HETATM   36  O2  UNL     1      23.160 -14.852   9.321  1.00  0.00    -0.267 OA
ENDBRANCH  24  26
ENDBRANCH  21  23
ENDBRANCH  19  21
ENDBRANCH   1  19
BRANCH   2  37
HETATM   37  N11 UNL     1      23.448 -17.864  16.439  1.00  0.00    -0.344 N 
ATOM     38 2H11 UNL     1      24.000 -18.702  16.620  1.00  0.00     0.176 HD
ATOM     39 1H11 UNL     1      22.582 -17.739  16.964  1.00  0.00     0.176 HD
ENDBRANCH   2  37
TORSDOF 8
ENDMDL
MODEL 4
REMARK VINA RESULT: -8.148111114      3.028      7.017
REMARK  8 active torsions:
REMARK  status: ('A' for Active; 'I' for Inactive)
REMARK    1  A    between atoms: N1_1  and  C1_4 
REMARK    2  A    between atoms: N3_8  and  C3_9 
REMARK    3  A    between atoms: C3_9  and  C4_10 
REMARK    4  A    between atoms: C4_10  and  N4_11 
REMARK    5  A    between atoms: N4_11  and  N5_13 
REMARK    6  A    between atoms: N5_13  and  N6_15 
REMARK    7  A    between atoms: C5_17  and  C6_18 
REMARK    8  A    between atoms: N10_29  and  N11_31 
ROOT
HETATM    1  C4  UNL     1      24.715 -17.345  14.502  1.00  0.00     0.130 C 
HETATM    2  N10 UNL     1      23.977 -17.010  15.502  1.00  0.00    -0.293 N 
ATOM      3  H10 UNL     1      23.761 -16.018  15.604  1.00  0.00     0.187 HD
ENDROOT
BRANCH   1   4
HETATM    4  C3  UNL     1      25.107 -18.748  14.232  1.00  0.00     0.227 C 
BRANCH   4   5
HETATM    5  N3  UNL     1      26.470 -19.004  14.680  1.00  0.00    -0.172 N 
HETATM    6  C2  UNL     1      27.357 -17.964  14.662  1.00  0.00     0.218 A 
HETATM    7  N2  UNL     1      28.624 -18.093  15.025  1.00  0.00    -0.187 N 
HETATM    8  C1  UNL     1      29.053 -19.308  15.431  1.00  0.00     0.691 A 
ATOM      9  H2  UNL     1      29.259 -17.296  14.998  1.00  0.00     0.185 HD
HETATM   10  N13 UNL     1      28.228 -20.355  15.467  1.00  0.00    -0.023 N 
HETATM   11  C10 UNL     1      26.923 -20.186  15.085  1.00  0.00     0.693 A 
ATOM     12  H13 UNL     1      28.563 -21.267  15.776  1.00  0.00     0.203 HD
HETATM   13  N12 UNL     1      26.189 -21.221  15.168  1.00  0.00    -0.234 N 
ATOM     14 2H12 UNL     1      25.217 -21.095  14.883  1.00  0.00     0.174 HD
ATOM     15 1H12 UNL     1      26.536 -22.128  15.479  1.00  0.00     0.174 HD
BRANCH   8  16
HETATM   16  N1  UNL     1      30.291 -19.468  15.792  1.00  0.00    -0.234 N 
ATOM     17  H12 UNL     1      30.497 -19.695  16.765  1.00  0.00     0.174 HD
ATOM     18  H11 UNL     1      31.037 -19.368  15.105  1.00  0.00     0.174 HD
ENDBRANCH   8  16
ENDBRANCH   4   5
ENDBRANCH   1   4
BRANCH   1  19
HETATM   19  N4  UNL     1      25.161 -16.326  13.636  1.00  0.00    -0.272 N 
ATOM     20  H4  UNL     1      26.162 -16.149  13.555  1.00  0.00     0.190 HD
BRANCH  19  21
HETATM   21  N5  UNL     1      24.361 -15.625  12.957  1.00  0.00    -0.242 N 
ATOM     22  H5  UNL     1      23.618 -15.102  13.419  1.00  0.00     0.208 HD
BRANCH  21  23
HETATM   23  N6  UNL     1      24.501 -15.571  11.581  1.00  0.00    -0.296 N 
HETATM   24  C5  UNL     1      24.770 -16.624  10.898  1.00  0.00     0.129 C 
ATOM     25  H6  UNL     1      24.388 -14.678  11.101  1.00  0.00     0.187 HD
BRANCH  24  26
HETATM   26  C6  UNL     1      24.903 -16.501   9.458  1.00  0.00     0.090 A 
HETATM   27  C7  UNL     1      24.068 -15.638   8.761  1.00  0.00     0.137 A 
HETATM   28  N7  UNL     1      23.105 -14.899   9.474  1.00  0.00    -0.081 NA
HETATM   29  N8  UNL     1      24.193 -15.524   7.420  1.00  0.00    -0.296 N 
HETATM   30  C8  UNL     1      25.100 -16.213   6.707  1.00  0.00     0.328 A 
ATOM     31  H8  UNL     1      23.570 -14.885   6.926  1.00  0.00     0.171 HD
HETATM   32  O1  UNL     1      25.192 -16.084   5.453  1.00  0.00    -0.247 OA
HETATM   33  N9  UNL     1      25.911 -17.050   7.379  1.00  0.00    -0.275 N 
HETATM   34  C9  UNL     1      25.827 -17.202   8.721  1.00  0.00     0.264 A 
ATOM     35  H9  UNL     1      26.609 -17.585   6.863  1.00  0.00     0.173 HD
HETATM   36  O2  UNL     1      26.598 -17.994   9.339  1.00  0.00    -0.267 OA
ENDBRANCH  24  26
ENDBRANCH  21  23
ENDBRANCH  19  21
ENDBRANCH   1  19
BRANCH   2  37
HETATM   37  N11 UNL     1      23.455 -17.858  16.443  1.00  0.00    -0.344 N 
ATOM     38 2H11 UNL     1      23.149 -17.423  17.312  1.00  0.00     0.176 HD
ATOM     39 1H11 UNL     1      23.348 -18.869  16.349  1.00  0.00     0.176 HD
ENDBRANCH   2  37
TORSDOF 8
ENDMDL
MODEL 5
REMARK VINA RESULT: -7.773099100      1.394      1.786
REMARK  8 active torsions:
REMARK  status: ('A' for Active; 'I' for Inactive)
REMARK    1  A    between atoms: N1_1  and  C1_4 
REMARK    2  A    between atoms: N3_8  and  C3_9 
REMARK    3  A    between atoms: C3_9  and  C4_10 
REMARK    4  A    between atoms: C4_10  and  N4_11 
REMARK    5  A    between atoms: N4_11  and  N5_13 
REMARK    6  A    between atoms: N5_13  and  N6_15 
REMARK    7  A    between atoms: C5_17  and  C6_18 
REMARK    8  A    between atoms: N10_29  and  N11_31 
ROOT
HETATM    1  C4  UNL     1      23.765 -15.735  12.107  1.00  0.00     0.130 C 
HETATM    2  N10 UNL     1      23.043 -14.670  12.069  1.00  0.00    -0.293 N 
ATOM      3  H10 UNL     1      23.239 -13.954  12.769  1.00  0.00     0.187 HD
ENDROOT
BRANCH   1   4
HETATM    4  C3  UNL     1      23.589 -16.855  11.153  1.00  0.00     0.227 C 
BRANCH   4   5
HETATM    5  N3  UNL     1      24.504 -16.728  10.026  1.00  0.00    -0.172 N 
HETATM    6  C2  UNL     1      24.429 -15.595   9.263  1.00  0.00     0.218 A 
HETATM    7  N2  UNL     1      25.195 -15.391   8.204  1.00  0.00    -0.187 N 
HETATM    8  C1  UNL     1      26.091 -16.345   7.867  1.00  0.00     0.691 A 
ATOM      9  H2  UNL     1      25.112 -14.534   7.656  1.00  0.00     0.185 HD
HETATM   10  N13 UNL     1      26.204 -17.467   8.578  1.00  0.00    -0.023 N 
HETATM   11  C10 UNL     1      25.394 -17.647   9.669  1.00  0.00     0.693 A 
ATOM     12  H13 UNL     1      26.884 -18.180   8.314  1.00  0.00     0.203 HD
HETATM   13  N12 UNL     1      25.575 -18.729  10.313  1.00  0.00    -0.234 N 
ATOM     14 2H12 UNL     1      24.971 -18.863  11.125  1.00  0.00     0.174 HD
ATOM     15 1H12 UNL     1      26.258 -19.434  10.038  1.00  0.00     0.174 HD
BRANCH   8  16
HETATM   16  N1  UNL     1      26.857 -16.174   6.832  1.00  0.00    -0.234 N 
ATOM     17  H12 UNL     1      26.510 -16.441   5.910  1.00  0.00     0.174 HD
ATOM     18  H11 UNL     1      27.789 -15.778   6.951  1.00  0.00     0.174 HD
ENDBRANCH   8  16
ENDBRANCH   4   5
ENDBRANCH   1   4
BRANCH   1  19
HETATM   19  N4  UNL     1      24.759 -15.826  13.102  1.00  0.00    -0.272 N 
ATOM     20  H4  UNL     1      24.618 -15.339  13.988  1.00  0.00     0.190 HD
BRANCH  19  21
HETATM   21  N5  UNL     1      25.819 -16.489  12.933  1.00  0.00    -0.242 N 
ATOM     22  H5  UNL     1      26.498 -16.201  12.230  1.00  0.00     0.208 HD
BRANCH  21  23
HETATM   23  N6  UNL     1      26.051 -17.612  13.709  1.00  0.00    -0.296 N 
HETATM   24  C5  UNL     1      27.223 -18.127  13.800  1.00  0.00     0.129 C 
ATOM     25  H6  UNL     1      25.276 -18.037  14.218  1.00  0.00     0.187 HD
BRANCH  24  26
HETATM   26  C6  UNL     1      27.401 -19.303  14.630  1.00  0.00     0.090 A 
HETATM   27  C7  UNL     1      28.527 -19.414  15.435  1.00  0.00     0.137 A 
HETATM   28  N7  UNL     1      29.476 -18.375  15.423  1.00  0.00    -0.081 NA
HETATM   29  N8  UNL     1      28.692 -20.511  16.207  1.00  0.00    -0.296 N 
HETATM   30  C8  UNL     1      27.807 -21.522  16.244  1.00  0.00     0.328 A 
ATOM     31  H8  UNL     1      29.526 -20.574  16.790  1.00  0.00     0.171 HD
HETATM   32  O1  UNL     1      27.990 -22.534  16.979  1.00  0.00    -0.247 OA
HETATM   33  N9  UNL     1      26.714 -21.417  15.466  1.00  0.00    -0.275 N 
HETATM   34  C9  UNL     1      26.501 -20.342  14.674  1.00  0.00     0.264 A 
ATOM     35  H9  UNL     1      26.026 -22.170  15.475  1.00  0.00     0.173 HD
HETATM   36  O2  UNL     1      25.467 -20.259  13.948  1.00  0.00    -0.267 OA
ENDBRANCH  24  26
ENDBRANCH  21  23
ENDBRANCH  19  21
ENDBRANCH   1  19
BRANCH   2  37
HETATM   37  N11 UNL     1      22.035 -14.407  11.178  1.00  0.00    -0.344 N 
ATOM     38 2H11 UNL     1      22.114 -14.866  10.271  1.00  0.00     0.176 HD
ATOM     39 1H11 UNL     1      21.229 -13.804  11.342  1.00  0.00     0.176 HD
ENDBRANCH   2  37
TORSDOF 8
ENDMDL
