MODEL 1
REMARK VINA RESULT: -7.416596910      0.000      0.000
REMARK  5 active torsions:
REMARK  status: ('A' for Active; 'I' for Inactive)
REMARK    1  A    between atoms: O1_2  and  C2_3 
REMARK    2  A    between atoms: C2_3  and  C3_5 
REMARK    3  A    between atoms: C4_6  and  C5_7 
REMARK    4  A    between atoms: C5_7  and  N1_10 
REMARK    5  A    between atoms: C8_15  and  N2_16 
ROOT
HETATM    1  C3  UNL     1      25.577  30.369  34.415  1.00  0.00     0.084 A 
HETATM    2  C4  UNL     1      25.914  31.647  34.078  1.00  0.00     0.038 A 
HETATM    3  S1  UNL     1      27.283  32.310  34.895  1.00  0.00    -0.073 SA
HETATM    4  C8  UNL     1      28.010  31.256  36.005  1.00  0.00     0.086 A 
HETATM    5  C9  UNL     1      27.376  30.025  36.072  1.00  0.00     0.096 A 
HETATM    6  C10 UNL     1      27.766  28.965  36.904  1.00  0.00     0.275 A 
HETATM    7  O3  UNL     1      28.738  28.928  37.726  1.00  0.00    -0.266 OA
HETATM    8  N3  UNL     1      26.924  27.972  36.682  1.00  0.00    -0.265 N 
ATOM      9  H3  UNL     1      26.950  27.061  37.140  1.00  0.00     0.190 HD
HETATM   10  N4  UNL     1      26.036  28.349  35.765  1.00  0.00    -0.296 N 
ATOM     11  H4  UNL     1      25.274  27.770  35.412  1.00  0.00     0.187 HD
HETATM   12  C11 UNL     1      26.296  29.610  35.376  1.00  0.00     0.084 A 
ENDROOT
BRANCH   2  13
HETATM   13  C5  UNL     1      25.231  32.522  33.074  1.00  0.00     0.150 C 
HETATM   14  C6  UNL     1      24.295  33.514  33.674  1.00  0.00     0.052 C 
HETATM   15  C7  UNL     1      26.409  33.417  32.508  1.00  0.00     0.052 C 
BRANCH  13  16
HETATM   16  N1  UNL     1      24.782  31.860  31.891  1.00  0.00    -0.066 N 
ATOM     17  H13 UNL     1      25.498  31.213  31.559  1.00  0.00     0.275 HD
ATOM     18  H12 UNL     1      24.037  31.202  32.120  1.00  0.00     0.275 HD
ATOM     19  H11 UNL     1      24.487  32.475  31.133  1.00  0.00     0.275 HD
ENDBRANCH  13  16
ENDBRANCH   2  13
BRANCH   1  20
HETATM   20  C2  UNL     1      24.416  29.767  33.782  1.00  0.00     0.296 C 
HETATM   21  O2  UNL     1      23.225  30.064  33.975  1.00  0.00    -0.259 OA
BRANCH  20  22
HETATM   22  O1  UNL     1      24.561  28.748  32.850  1.00  0.00    -0.322 OA
HETATM   23  C1  UNL     1      24.030  27.437  33.044  1.00  0.00     0.213 C 
ENDBRANCH  20  22
ENDBRANCH   1  20
BRANCH   4  24
HETATM   24  N2  UNL     1      29.042  31.581  36.703  1.00  0.00    -0.393 N 
ATOM     25  H22 UNL     1      29.107  32.421  37.278  1.00  0.00     0.156 HD
ATOM     26  H21 UNL     1      29.889  31.014  36.736  1.00  0.00     0.156 HD
ENDBRANCH   4  24
TORSDOF 5
ENDMDL
MODEL 2
REMARK VINA RESULT: -7.235663258      2.098      4.400
REMARK  5 active torsions:
REMARK  status: ('A' for Active; 'I' for Inactive)
REMARK    1  A    between atoms: O1_2  and  C2_3 
REMARK    2  A    between atoms: C2_3  and  C3_5 
REMARK    3  A    between atoms: C4_6  and  C5_7 
REMARK    4  A    between atoms: C5_7  and  N1_10 
REMARK    5  A    between atoms: C8_15  and  N2_16 
ROOT
HETATM    1  C3  UNL     1      27.423  30.660  35.704  1.00  0.00     0.084 A 
HETATM    2  C4  UNL     1      26.849  31.598  34.897  1.00  0.00     0.038 A 
HETATM    3  S1  UNL     1      25.425  31.102  34.054  1.00  0.00    -0.073 SA
HETATM    4  C8  UNL     1      24.952  29.505  34.364  1.00  0.00     0.086 A 
HETATM    5  C9  UNL     1      25.796  28.857  35.252  1.00  0.00     0.096 A 
HETATM    6  C10 UNL     1      25.642  27.532  35.686  1.00  0.00     0.275 A 
HETATM    7  O3  UNL     1      24.734  26.700  35.362  1.00  0.00    -0.266 OA
HETATM    8  N3  UNL     1      26.634  27.283  36.521  1.00  0.00    -0.265 N 
ATOM      9  H3  UNL     1      26.793  26.398  37.003  1.00  0.00     0.190 HD
HETATM   10  N4  UNL     1      27.395  28.369  36.632  1.00  0.00    -0.296 N 
ATOM     11  H4  UNL     1      28.230  28.445  37.214  1.00  0.00     0.187 HD
HETATM   12  C11 UNL     1      26.897  29.350  35.859  1.00  0.00     0.084 A 
ENDROOT
BRANCH   2  13
HETATM   13  C5  UNL     1      27.315  33.002  34.677  1.00  0.00     0.150 C 
HETATM   14  C6  UNL     1      28.174  33.173  33.471  1.00  0.00     0.052 C 
HETATM   15  C7  UNL     1      25.985  33.774  34.298  1.00  0.00     0.052 C 
BRANCH  13  16
HETATM   16  N1  UNL     1      27.725  33.702  35.852  1.00  0.00    -0.066 N 
ATOM     17  H13 UNL     1      27.894  33.041  36.611  1.00  0.00     0.275 HD
ATOM     18  H12 UNL     1      28.666  34.075  35.727  1.00  0.00     0.275 HD
ATOM     19  H11 UNL     1      27.094  34.440  36.164  1.00  0.00     0.275 HD
ENDBRANCH  13  16
ENDBRANCH   2  13
BRANCH   1  20
HETATM   20  C2  UNL     1      28.639  31.010  36.418  1.00  0.00     0.296 C 
HETATM   21  O2  UNL     1      29.767  31.180  35.926  1.00  0.00    -0.259 OA
BRANCH  20  22
HETATM   22  O1  UNL     1      28.629  31.194  37.794  1.00  0.00    -0.322 OA
HETATM   23  C1  UNL     1      29.628  31.945  38.484  1.00  0.00     0.213 C 
ENDBRANCH  20  22
ENDBRANCH   1  20
BRANCH   4  24
HETATM   24  N2  UNL     1      23.915  28.967  33.823  1.00  0.00    -0.393 N 
ATOM     25  H22 UNL     1      22.953  29.237  34.028  1.00  0.00     0.156 HD
ATOM     26  H21 UNL     1      23.977  28.216  33.136  1.00  0.00     0.156 HD
ENDBRANCH   4  24
TORSDOF 5
ENDMDL
MODEL 3
REMARK VINA RESULT: -6.755358275      2.454      3.795
REMARK  5 active torsions:
REMARK  status: ('A' for Active; 'I' for Inactive)
REMARK    1  A    between atoms: O1_2  and  C2_3 
REMARK    2  A    between atoms: C2_3  and  C3_5 
REMARK    3  A    between atoms: C4_6  and  C5_7 
REMARK    4  A    between atoms: C5_7  and  N1_10 
REMARK    5  A    between atoms: C8_15  and  N2_16 
ROOT
HETATM    1  C3  UNL     1      26.817  31.437  34.575  1.00  0.00     0.084 A 
HETATM    2  C4  UNL     1      25.840  31.571  33.634  1.00  0.00     0.038 A 
HETATM    3  S1  UNL     1      24.830  30.192  33.388  1.00  0.00    -0.073 SA
HETATM    4  C8  UNL     1      25.212  28.865  34.370  1.00  0.00     0.086 A 
HETATM    5  C9  UNL     1      26.284  29.112  35.215  1.00  0.00     0.096 A 
HETATM    6  C10 UNL     1      26.811  28.192  36.134  1.00  0.00     0.275 A 
HETATM    7  O3  UNL     1      26.426  27.000  36.361  1.00  0.00    -0.266 OA
HETATM    8  N3  UNL     1      27.813  28.794  36.747  1.00  0.00    -0.265 N 
ATOM      9  H3  UNL     1      28.397  28.379  37.473  1.00  0.00     0.190 HD
HETATM   10  N4  UNL     1      27.942  30.029  36.268  1.00  0.00    -0.296 N 
ATOM     11  H4  UNL     1      28.641  30.708  36.570  1.00  0.00     0.187 HD
HETATM   12  C11 UNL     1      27.010  30.245  35.323  1.00  0.00     0.084 A 
ENDROOT
BRANCH   2  13
HETATM   13  C5  UNL     1      25.549  32.783  32.806  1.00  0.00     0.150 C 
HETATM   14  C6  UNL     1      24.768  32.498  31.569  1.00  0.00     0.052 C 
HETATM   15  C7  UNL     1      24.536  33.605  33.703  1.00  0.00     0.052 C 
BRANCH  13  16
HETATM   16  N1  UNL     1      26.629  33.708  32.675  1.00  0.00    -0.066 N 
ATOM     17  H13 UNL     1      27.246  33.642  33.484  1.00  0.00     0.275 HD
ATOM     18  H12 UNL     1      27.265  33.401  31.939  1.00  0.00     0.275 HD
ATOM     19  H11 UNL     1      26.356  34.679  32.521  1.00  0.00     0.275 HD
ENDBRANCH  13  16
ENDBRANCH   2  13
BRANCH   1  20
HETATM   20  C2  UNL     1      27.717  32.555  34.806  1.00  0.00     0.296 C 
HETATM   21  O2  UNL     1      27.477  33.577  35.472  1.00  0.00    -0.259 OA
BRANCH  20  22
HETATM   22  O1  UNL     1      28.995  32.565  34.266  1.00  0.00    -0.322 OA
HETATM   23  C1  UNL     1      30.173  32.701  35.060  1.00  0.00     0.213 C 
ENDBRANCH  20  22
ENDBRANCH   1  20
BRANCH   4  24
HETATM   24  N2  UNL     1      24.565  27.753  34.324  1.00  0.00    -0.393 N 
ATOM     25  H22 UNL     1      24.371  27.235  33.466  1.00  0.00     0.156 HD
ATOM     26  H21 UNL     1      24.191  27.296  35.154  1.00  0.00     0.156 HD
ENDBRANCH   4  24
TORSDOF 5
ENDMDL
MODEL 4
REMARK VINA RESULT: -6.687889734      2.043      2.632
REMARK  5 active torsions:
REMARK  status: ('A' for Active; 'I' for Inactive)
REMARK    1  A    between atoms: O1_2  and  C2_3 
REMARK    2  A    between atoms: C2_3  and  C3_5 
REMARK    3  A    between atoms: C4_6  and  C5_7 
REMARK    4  A    between atoms: C5_7  and  N1_10 
REMARK    5  A    between atoms: C8_15  and  N2_16 
ROOT
HETATM    1  C3  UNL     1      25.786  31.052  34.183  1.00  0.00     0.084 A 
HETATM    2  C4  UNL     1      26.765  31.884  34.641  1.00  0.00     0.038 A 
HETATM    3  S1  UNL     1      27.852  31.208  35.800  1.00  0.00    -0.073 SA
HETATM    4  C8  UNL     1      27.533  29.591  36.195  1.00  0.00     0.086 A 
HETATM    5  C9  UNL     1      26.440  29.077  35.515  1.00  0.00     0.096 A 
HETATM    6  C10 UNL     1      25.954  27.768  35.647  1.00  0.00     0.275 A 
HETATM    7  O3  UNL     1      26.402  26.835  36.389  1.00  0.00    -0.266 OA
HETATM    8  N3  UNL     1      24.912  27.661  34.842  1.00  0.00    -0.265 N 
ATOM      9  H3  UNL     1      24.344  26.824  34.718  1.00  0.00     0.190 HD
HETATM   10  N4  UNL     1      24.721  28.821  34.218  1.00  0.00    -0.296 N 
ATOM     11  H4  UNL     1      23.982  29.010  33.540  1.00  0.00     0.187 HD
HETATM   12  C11 UNL     1      25.651  29.707  34.618  1.00  0.00     0.084 A 
ENDROOT
BRANCH   2  13
HETATM   13  C5  UNL     1      26.999  33.306  34.239  1.00  0.00     0.150 C 
HETATM   14  C6  UNL     1      25.842  34.207  34.502  1.00  0.00     0.052 C 
HETATM   15  C7  UNL     1      28.096  33.802  35.267  1.00  0.00     0.052 C 
BRANCH  13  16
HETATM   16  N1  UNL     1      27.673  33.486  32.993  1.00  0.00    -0.066 N 
ATOM     17  H13 UNL     1      28.007  32.588  32.643  1.00  0.00     0.275 HD
ATOM     18  H12 UNL     1      27.002  33.725  32.263  1.00  0.00     0.275 HD
ATOM     19  H11 UNL     1      28.436  34.163  33.004  1.00  0.00     0.275 HD
ENDBRANCH  13  16
ENDBRANCH   2  13
BRANCH   1  20
HETATM   20  C2  UNL     1      24.824  31.574  33.227  1.00  0.00     0.296 C 
HETATM   21  O2  UNL     1      23.621  31.807  33.435  1.00  0.00    -0.259 OA
BRANCH  20  22
HETATM   22  O1  UNL     1      25.202  31.870  31.925  1.00  0.00    -0.322 OA
HETATM   23  C1  UNL     1      24.629  32.941  31.174  1.00  0.00     0.213 C 
ENDBRANCH  20  22
ENDBRANCH   1  20
BRANCH   4  24
HETATM   24  N2  UNL     1      28.241  28.926  37.040  1.00  0.00    -0.393 N 
ATOM     25  H22 UNL     1      29.254  28.823  36.988  1.00  0.00     0.156 HD
ATOM     26  H21 UNL     1      27.836  28.442  37.841  1.00  0.00     0.156 HD
ENDBRANCH   4  24
TORSDOF 5
ENDMDL
MODEL 5
REMARK VINA RESULT: -6.683916982      1.444      4.739
REMARK  5 active torsions:
REMARK  status: ('A' for Active; 'I' for Inactive)
REMARK    1  A    between atoms: O1_2  and  C2_3 
REMARK    2  A    between atoms: C2_3  and  C3_5 
REMARK    3  A    between atoms: C4_6  and  C5_7 
REMARK    4  A    between atoms: C5_7  and  N1_10 
REMARK    5  A    between atoms: C8_15  and  N2_16 
ROOT
HETATM    1  C3  UNL     1      27.379  30.486  35.872  1.00  0.00     0.084 A 
HETATM    2  C4  UNL     1      27.718  31.702  35.357  1.00  0.00     0.038 A 
HETATM    3  S1  UNL     1      26.727  32.281  34.066  1.00  0.00    -0.073 SA
HETATM    4  C8  UNL     1      25.465  31.236  33.633  1.00  0.00     0.086 A 
HETATM    5  C9  UNL     1      25.441  30.079  34.395  1.00  0.00     0.096 A 
HETATM    6  C10 UNL     1      24.506  29.043  34.254  1.00  0.00     0.275 A 
HETATM    7  O3  UNL     1      23.537  28.966  33.431  1.00  0.00    -0.266 OA
HETATM    8  N3  UNL     1      24.810  28.125  35.153  1.00  0.00    -0.265 N 
ATOM      9  H3  UNL     1      24.309  27.248  35.295  1.00  0.00     0.190 HD
HETATM   10  N4  UNL     1      25.874  28.524  35.844  1.00  0.00    -0.296 N 
ATOM     11  H4  UNL     1      26.317  28.000  36.599  1.00  0.00     0.187 HD
HETATM   12  C11 UNL     1      26.279  29.725  35.394  1.00  0.00     0.084 A 
ENDROOT
BRANCH   2  13
HETATM   13  C5  UNL     1      28.845  32.583  35.796  1.00  0.00     0.150 C 
HETATM   14  C6  UNL     1      30.196  32.039  35.485  1.00  0.00     0.052 C 
HETATM   15  C7  UNL     1      28.721  33.840  34.841  1.00  0.00     0.052 C 
BRANCH  13  16
HETATM   16  N1  UNL     1      28.684  33.185  37.081  1.00  0.00    -0.066 N 
ATOM     17  H13 UNL     1      29.275  34.013  37.156  1.00  0.00     0.275 HD
ATOM     18  H12 UNL     1      27.762  33.615  37.153  1.00  0.00     0.275 HD
ATOM     19  H11 UNL     1      28.845  32.566  37.876  1.00  0.00     0.275 HD
ENDBRANCH  13  16
ENDBRANCH   2  13
BRANCH   1  20
HETATM   20  C2  UNL     1      28.194  29.934  36.941  1.00  0.00     0.296 C 
HETATM   21  O2  UNL     1      28.818  28.860  36.921  1.00  0.00    -0.259 OA
BRANCH  20  22
HETATM   22  O1  UNL     1      28.345  30.611  38.143  1.00  0.00    -0.322 OA
HETATM   23  C1  UNL     1      28.153  29.989  39.414  1.00  0.00     0.213 C 
ENDBRANCH  20  22
ENDBRANCH   1  20
BRANCH   4  24
HETATM   24  N2  UNL     1      24.628  31.505  32.693  1.00  0.00    -0.393 N 
ATOM     25  H22 UNL     1      24.849  31.474  31.698  1.00  0.00     0.156 HD
ATOM     26  H21 UNL     1      23.661  31.775  32.875  1.00  0.00     0.156 HD
ENDBRANCH   4  24
TORSDOF 5
ENDMDL
