MODEL 1
REMARK VINA RESULT: -8.971440458      0.000      0.000
REMARK  4 active torsions:
REMARK  status: ('A' for Active; 'I' for Inactive)
REMARK    1  A    between atoms: O1_2  and  C2_3 
REMARK    2  A    between atoms: C5_6  and  C6_7 
REMARK    3  A    between atoms: C7_10  and  N1_11 
REMARK    4  A    between atoms: C8_13  and  C9_14 
ROOT
HETATM    1  C2  UNL     1      28.397  30.153  37.094  1.00  0.00     0.143 A 
HETATM    2  C3  UNL     1      27.520  30.610  36.149  1.00  0.00    -0.002 A 
HETATM    3  C4  UNL     1      27.772  31.870  35.402  1.00  0.00     0.052 C 
HETATM    4  C5  UNL     1      26.379  29.880  35.890  1.00  0.00     0.093 A 
HETATM    5  C7  UNL     1      26.145  28.718  36.577  1.00  0.00     0.125 A 
HETATM    6  N4  UNL     1      26.998  28.267  37.502  1.00  0.00    -0.306 N 
ATOM      7  H4  UNL     1      26.811  27.401  38.007  1.00  0.00     0.170 HD
HETATM    8  C13 UNL     1      28.106  28.983  37.748  1.00  0.00     0.281 A 
HETATM    9  O5  UNL     1      28.898  28.523  38.636  1.00  0.00    -0.265 OA
ENDROOT
BRANCH   5  10
HETATM   10  N1  UNL     1      24.937  27.993  36.268  1.00  0.00    -0.352 N 
HETATM   11  C8  UNL     1      25.001  26.739  36.056  1.00  0.00     0.095 C 
ATOM     12  H1  UNL     1      24.042  28.479  36.221  1.00  0.00     0.166 HD
BRANCH  11  13
HETATM   13  C9  UNL     1      23.773  25.978  35.739  1.00  0.00     0.171 C 
HETATM   14  C10 UNL     1      23.442  25.085  36.889  1.00  0.00     0.058 C 
HETATM   15  C11 UNL     1      23.178  23.660  36.535  1.00  0.00     0.126 C 
HETATM   16  N2  UNL     1      22.499  23.551  35.259  1.00  0.00    -0.356 N 
HETATM   17  C12 UNL     1      23.085  24.269  34.172  1.00  0.00     0.213 C 
ATOM     18  H2  UNL     1      21.652  22.994  35.144  1.00  0.00     0.163 HD
HETATM   19  N3  UNL     1      22.766  23.995  32.961  1.00  0.00    -0.365 N 
HETATM   20  O4  UNL     1      24.007  25.263  34.523  1.00  0.00    -0.312 OA
ATOM     21  H32 UNL     1      22.094  23.272  32.705  1.00  0.00     0.159 HD
ATOM     22  H31 UNL     1      23.185  24.508  32.185  1.00  0.00     0.159 HD
ENDBRANCH  11  13
ENDBRANCH   5  10
BRANCH   4  23
HETATM   23  C6  UNL     1      25.416  30.364  34.865  1.00  0.00     0.213 C 
HETATM   24  O2  UNL     1      25.097  29.598  33.934  1.00  0.00    -0.644 OA
HETATM   25  O3  UNL     1      24.895  31.652  34.968  1.00  0.00    -0.644 OA
ENDBRANCH   4  23
BRANCH   1  26
HETATM   26  O1  UNL     1      29.540  30.825  37.398  1.00  0.00    -0.350 OA
HETATM   27  C1  UNL     1      30.801  30.607  36.807  1.00  0.00     0.210 C 
ENDBRANCH   1  26
TORSDOF 4
ENDMDL
MODEL 2
REMARK VINA RESULT: -8.055418276      2.706      4.174
REMARK  4 active torsions:
REMARK  status: ('A' for Active; 'I' for Inactive)
REMARK    1  A    between atoms: O1_2  and  C2_3 
REMARK    2  A    between atoms: C5_6  and  C6_7 
REMARK    3  A    between atoms: C7_10  and  N1_11 
REMARK    4  A    between atoms: C8_13  and  C9_14 
ROOT
HETATM    1  C2  UNL     1      28.581  30.866  40.834  1.00  0.00     0.143 A 
HETATM    2  C3  UNL     1      29.313  30.834  39.677  1.00  0.00    -0.002 A 
HETATM    3  C4  UNL     1      30.561  31.625  39.528  1.00  0.00     0.052 C 
HETATM    4  C5  UNL     1      28.875  30.047  38.633  1.00  0.00     0.093 A 
HETATM    5  C7  UNL     1      27.724  29.316  38.769  1.00  0.00     0.125 A 
HETATM    6  N4  UNL     1      27.005  29.345  39.895  1.00  0.00    -0.306 N 
ATOM      7  H4  UNL     1      26.148  28.796  39.983  1.00  0.00     0.170 HD
HETATM    8  C13 UNL     1      27.437  30.112  40.907  1.00  0.00     0.281 A 
HETATM    9  O5  UNL     1      26.727  30.115  41.966  1.00  0.00    -0.265 OA
ENDROOT
BRANCH   5  10
HETATM   10  N1  UNL     1      27.310  28.511  37.647  1.00  0.00    -0.352 N 
HETATM   11  C8  UNL     1      26.327  28.895  36.932  1.00  0.00     0.095 C 
ATOM     12  H1  UNL     1      27.798  27.642  37.428  1.00  0.00     0.166 HD
BRANCH  11  13
HETATM   13  C9  UNL     1      25.889  28.082  35.777  1.00  0.00     0.171 C 
HETATM   14  C10 UNL     1      25.213  28.969  34.785  1.00  0.00     0.058 C 
HETATM   15  C11 UNL     1      23.881  28.495  34.308  1.00  0.00     0.126 C 
HETATM   16  N2  UNL     1      23.846  27.050  34.194  1.00  0.00    -0.356 N 
HETATM   17  C12 UNL     1      24.293  26.319  35.337  1.00  0.00     0.213 C 
ATOM     18  H2  UNL     1      23.521  26.583  33.347  1.00  0.00     0.163 HD
HETATM   19  N3  UNL     1      24.012  25.075  35.467  1.00  0.00    -0.365 N 
HETATM   20  O4  UNL     1      25.038  27.046  36.274  1.00  0.00    -0.312 OA
ATOM     21  H32 UNL     1      23.470  24.545  34.785  1.00  0.00     0.159 HD
ATOM     22  H31 UNL     1      24.331  24.553  36.283  1.00  0.00     0.159 HD
ENDBRANCH  11  13
ENDBRANCH   5  10
BRANCH   4  23
HETATM   23  C6  UNL     1      29.659  30.001  37.371  1.00  0.00     0.213 C 
HETATM   24  O2  UNL     1      29.378  30.808  36.462  1.00  0.00    -0.644 OA
HETATM   25  O3  UNL     1      30.684  29.069  37.234  1.00  0.00    -0.644 OA
ENDBRANCH   4  23
BRANCH   1  26
HETATM   26  O1  UNL     1      28.957  31.621  41.900  1.00  0.00    -0.350 OA
HETATM   27  C1  UNL     1      29.832  31.211  42.927  1.00  0.00     0.210 C 
ENDBRANCH   1  26
TORSDOF 4
ENDMDL
MODEL 3
REMARK VINA RESULT: -8.037286752      1.961      2.824
REMARK  4 active torsions:
REMARK  status: ('A' for Active; 'I' for Inactive)
REMARK    1  A    between atoms: O1_2  and  C2_3 
REMARK    2  A    between atoms: C5_6  and  C6_7 
REMARK    3  A    between atoms: C7_10  and  N1_11 
REMARK    4  A    between atoms: C8_13  and  C9_14 
ROOT
HETATM    1  C2  UNL     1      26.557  32.267  35.526  1.00  0.00     0.143 A 
HETATM    2  C3  UNL     1      25.454  32.067  34.741  1.00  0.00    -0.002 A 
HETATM    3  C4  UNL     1      24.678  33.208  34.190  1.00  0.00     0.052 C 
HETATM    4  C5  UNL     1      25.061  30.775  34.459  1.00  0.00     0.093 A 
HETATM    5  C7  UNL     1      25.775  29.722  34.966  1.00  0.00     0.125 A 
HETATM    6  N4  UNL     1      26.853  29.911  35.734  1.00  0.00    -0.306 N 
ATOM      7  H4  UNL     1      27.376  29.117  36.106  1.00  0.00     0.170 HD
HETATM    8  C13 UNL     1      27.229  31.170  36.003  1.00  0.00     0.281 A 
HETATM    9  O5  UNL     1      28.262  31.314  36.738  1.00  0.00    -0.265 OA
ENDROOT
BRANCH   5  10
HETATM   10  N1  UNL     1      25.322  28.392  34.642  1.00  0.00    -0.352 N 
HETATM   11  C8  UNL     1      25.179  27.538  35.576  1.00  0.00     0.095 C 
ATOM     12  H1  UNL     1      25.119  28.138  33.675  1.00  0.00     0.166 HD
BRANCH  11  13
HETATM   13  C9  UNL     1      24.714  26.169  35.263  1.00  0.00     0.171 C 
HETATM   14  C10 UNL     1      24.627  26.011  33.781  1.00  0.00     0.058 C 
HETATM   15  C11 UNL     1      23.340  25.453  33.273  1.00  0.00     0.126 C 
HETATM   16  N2  UNL     1      22.799  24.463  34.183  1.00  0.00    -0.356 N 
HETATM   17  C12 UNL     1      22.705  24.854  35.554  1.00  0.00     0.213 C 
ATOM     18  H2  UNL     1      22.503  23.541  33.863  1.00  0.00     0.163 HD
HETATM   19  N3  UNL     1      21.966  24.199  36.370  1.00  0.00    -0.365 N 
HETATM   20  O4  UNL     1      23.461  25.974  35.922  1.00  0.00    -0.312 OA
ATOM     21  H32 UNL     1      21.416  23.383  36.103  1.00  0.00     0.159 HD
ATOM     22  H31 UNL     1      21.899  24.478  37.349  1.00  0.00     0.159 HD
ENDBRANCH  11  13
ENDBRANCH   5  10
BRANCH   4  23
HETATM   23  C6  UNL     1      23.865  30.543  33.607  1.00  0.00     0.213 C 
HETATM   24  O2  UNL     1      23.871  30.974  32.437  1.00  0.00    -0.644 OA
HETATM   25  O3  UNL     1      22.774  29.853  34.130  1.00  0.00    -0.644 OA
ENDBRANCH   4  23
BRANCH   1  26
HETATM   26  O1  UNL     1      26.997  33.514  35.841  1.00  0.00    -0.350 OA
HETATM   27  C1  UNL     1      27.913  34.276  35.087  1.00  0.00     0.210 C 
ENDBRANCH   1  26
TORSDOF 4
ENDMDL
MODEL 4
REMARK VINA RESULT: -8.008686757      2.102      4.170
REMARK  4 active torsions:
REMARK  status: ('A' for Active; 'I' for Inactive)
REMARK    1  A    between atoms: O1_2  and  C2_3 
REMARK    2  A    between atoms: C5_6  and  C6_7 
REMARK    3  A    between atoms: C7_10  and  N1_11 
REMARK    4  A    between atoms: C8_13  and  C9_14 
ROOT
HETATM    1  C2  UNL     1      25.182  32.279  33.803  1.00  0.00     0.143 A 
HETATM    2  C3  UNL     1      26.000  31.782  34.782  1.00  0.00    -0.002 A 
HETATM    3  C4  UNL     1      26.928  32.663  35.537  1.00  0.00     0.052 C 
HETATM    4  C5  UNL     1      25.956  30.434  35.066  1.00  0.00     0.093 A 
HETATM    5  C7  UNL     1      25.101  29.620  34.371  1.00  0.00     0.125 A 
HETATM    6  N4  UNL     1      24.300  30.099  33.414  1.00  0.00    -0.306 N 
ATOM      7  H4  UNL     1      23.668  29.482  32.903  1.00  0.00     0.170 HD
HETATM    8  C13 UNL     1      24.348  31.412  33.143  1.00  0.00     0.281 A 
HETATM    9  O5  UNL     1      23.570  31.835  32.226  1.00  0.00    -0.265 OA
ENDROOT
BRANCH   5  10
HETATM   10  N1  UNL     1      25.094  28.218  34.707  1.00  0.00    -0.352 N 
HETATM   11  C8  UNL     1      24.305  27.432  34.088  1.00  0.00     0.095 C 
ATOM     12  H1  UNL     1      25.714  27.859  35.433  1.00  0.00     0.166 HD
BRANCH  11  13
HETATM   13  C9  UNL     1      24.285  25.991  34.419  1.00  0.00     0.171 C 
HETATM   14  C10 UNL     1      24.159  25.202  33.157  1.00  0.00     0.058 C 
HETATM   15  C11 UNL     1      23.089  24.163  33.158  1.00  0.00     0.126 C 
HETATM   16  N2  UNL     1      22.953  23.547  34.463  1.00  0.00    -0.356 N 
HETATM   17  C12 UNL     1      22.826  24.442  35.570  1.00  0.00     0.213 C 
ATOM     18  H2  UNL     1      22.948  22.535  34.585  1.00  0.00     0.163 HD
HETATM   19  N3  UNL     1      22.389  24.025  36.700  1.00  0.00    -0.365 N 
HETATM   20  O4  UNL     1      23.204  25.769  35.328  1.00  0.00    -0.312 OA
ATOM     21  H32 UNL     1      22.114  23.059  36.876  1.00  0.00     0.159 HD
ATOM     22  H31 UNL     1      22.298  24.664  37.490  1.00  0.00     0.159 HD
ENDBRANCH  11  13
ENDBRANCH   5  10
BRANCH   4  23
HETATM   23  C6  UNL     1      26.839  29.880  36.126  1.00  0.00     0.213 C 
HETATM   24  O2  UNL     1      26.317  29.281  37.088  1.00  0.00    -0.644 OA
HETATM   25  O3  UNL     1      28.218  30.039  36.022  1.00  0.00    -0.644 OA
ENDBRANCH   4  23
BRANCH   1  26
HETATM   26  O1  UNL     1      25.176  33.598  33.474  1.00  0.00    -0.350 OA
HETATM   27  C1  UNL     1      24.253  34.556  33.941  1.00  0.00     0.210 C 
ENDBRANCH   1  26
TORSDOF 4
ENDMDL
MODEL 5
REMARK VINA RESULT: -7.921977978      1.995      6.851
REMARK  4 active torsions:
REMARK  status: ('A' for Active; 'I' for Inactive)
REMARK    1  A    between atoms: O1_2  and  C2_3 
REMARK    2  A    between atoms: C5_6  and  C6_7 
REMARK    3  A    between atoms: C7_10  and  N1_11 
REMARK    4  A    between atoms: C8_13  and  C9_14 
ROOT
HETATM    1  C2  UNL     1      23.406  25.889  34.832  1.00  0.00     0.143 A 
HETATM    2  C3  UNL     1      23.537  27.118  34.244  1.00  0.00    -0.002 A 
HETATM    3  C4  UNL     1      22.931  27.412  32.920  1.00  0.00     0.052 C 
HETATM    4  C5  UNL     1      24.249  28.100  34.902  1.00  0.00     0.093 A 
HETATM    5  C7  UNL     1      24.808  27.830  36.123  1.00  0.00     0.125 A 
HETATM    6  N4  UNL     1      24.684  26.632  36.702  1.00  0.00    -0.306 N 
ATOM      7  H4  UNL     1      25.106  26.444  37.612  1.00  0.00     0.170 HD
HETATM    8  C13 UNL     1      23.990  25.682  36.056  1.00  0.00     0.281 A 
HETATM    9  O5  UNL     1      23.891  24.552  36.637  1.00  0.00    -0.265 OA
ENDROOT
BRANCH   5  10
HETATM   10  N1  UNL     1      25.542  28.890  36.768  1.00  0.00    -0.352 N 
HETATM   11  C8  UNL     1      26.764  28.704  37.077  1.00  0.00     0.095 C 
ATOM     12  H1  UNL     1      25.088  29.780  36.975  1.00  0.00     0.166 HD
BRANCH  11  13
HETATM   13  C9  UNL     1      27.533  29.780  37.738  1.00  0.00     0.171 C 
HETATM   14  C10 UNL     1      28.738  30.096  36.915  1.00  0.00     0.058 C 
HETATM   15  C11 UNL     1      30.030  30.127  37.660  1.00  0.00     0.126 C 
HETATM   16  N2  UNL     1      29.854  30.659  38.998  1.00  0.00    -0.356 N 
HETATM   17  C12 UNL     1      28.807  30.074  39.773  1.00  0.00     0.213 C 
ATOM     18  H2  UNL     1      30.444  31.406  39.363  1.00  0.00     0.163 HD
HETATM   19  N3  UNL     1      28.768  30.235  41.045  1.00  0.00    -0.365 N 
HETATM   20  O4  UNL     1      27.857  29.335  39.058  1.00  0.00    -0.312 OA
ATOM     21  H32 UNL     1      29.459  30.774  41.566  1.00  0.00     0.159 HD
ATOM     22  H31 UNL     1      28.020  29.817  41.599  1.00  0.00     0.159 HD
ENDBRANCH  11  13
ENDBRANCH   5  10
BRANCH   4  23
HETATM   23  C6  UNL     1      24.400  29.439  34.276  1.00  0.00     0.213 C 
HETATM   24  O2  UNL     1      25.549  29.862  34.036  1.00  0.00    -0.644 OA
HETATM   25  O3  UNL     1      23.264  30.186  33.972  1.00  0.00    -0.644 OA
ENDBRANCH   4  23
BRANCH   1  26
HETATM   26  O1  UNL     1      22.718  24.879  34.237  1.00  0.00    -0.350 OA
HETATM   27  C1  UNL     1      23.279  23.866  33.433  1.00  0.00     0.210 C 
ENDBRANCH   1  26
TORSDOF 4
ENDMDL
