MODEL 1
REMARK VINA RESULT: -8.031617185      0.000      0.000
REMARK  4 active torsions:
REMARK  status: ('A' for Active; 'I' for Inactive)
REMARK    1  A    between atoms: C6_9  and  N3_10 
REMARK    2  A    between atoms: N3_10  and  N4_12 
REMARK    3  A    between atoms: N4_12  and  C7_14 
REMARK    4  A    between atoms: C10_23  and  C11_24 
ROOT
HETATM    1  C7  UNL     1      25.629  29.252  35.882  1.00  0.00     0.143 A 
HETATM    2  N5  UNL     1      24.859  29.819  34.910  1.00  0.00    -0.317 N 
ATOM      3  H5  UNL     1      23.982  29.377  34.635  1.00  0.00     0.170 HD
HETATM    4  C8  UNL     1      25.247  30.956  34.311  1.00  0.00     0.180 A 
HETATM    5  S1  UNL     1      24.314  31.633  33.143  1.00  0.00    -0.040 SA
HETATM    6  N6  UNL     1      26.395  31.573  34.641  1.00  0.00    -0.299 N 
ATOM      7  H6  UNL     1      26.670  32.436  34.172  1.00  0.00     0.171 HD
HETATM    8  C9  UNL     1      27.162  31.048  35.580  1.00  0.00     0.266 A 
HETATM    9  O1  UNL     1      28.250  31.612  35.909  1.00  0.00    -0.267 OA
HETATM   10  C10 UNL     1      26.812  29.863  36.242  1.00  0.00     0.142 A 
ENDROOT
BRANCH   1  11
HETATM   11  N4  UNL     1      25.233  28.047  36.514  1.00  0.00    -0.284 N 
ATOM     12  H4  UNL     1      25.864  27.595  37.176  1.00  0.00     0.188 HD
BRANCH  11  13
HETATM   13  N3  UNL     1      23.995  27.469  36.244  1.00  0.00    -0.295 N 
ATOM     14  H3  UNL     1      23.174  27.965  36.593  1.00  0.00     0.187 HD
BRANCH  13  15
HETATM   15  C6  UNL     1      23.758  26.278  35.542  1.00  0.00     0.095 A 
HETATM   16  C2  UNL     1      23.702  25.026  36.116  1.00  0.00     0.052 A 
HETATM   17  C1  UNL     1      23.882  24.753  37.566  1.00  0.00     0.072 C 
HETATM   18  N1  UNL     1      23.455  24.104  35.144  1.00  0.00    -0.301 N 
HETATM   19  N2  UNL     1      23.359  24.749  33.991  1.00  0.00    -0.299 N 
ATOM     20  H1  UNL     1      23.362  23.098  35.279  1.00  0.00     0.187 HD
HETATM   21  C3  UNL     1      23.103  24.155  32.702  1.00  0.00     0.177 C 
HETATM   22  C4  UNL     1      23.543  26.095  34.215  1.00  0.00     0.054 A 
HETATM   23  C5  UNL     1      23.497  27.095  33.143  1.00  0.00     0.072 C 
ENDBRANCH  13  15
ENDBRANCH  11  13
ENDBRANCH   1  11
BRANCH  10  24
HETATM   24  C11 UNL     1      27.685  29.328  37.268  1.00  0.00     0.274 C 
HETATM   25  N7  UNL     1      27.463  29.690  38.624  1.00  0.00    -0.057 NA
HETATM   26  O2  UNL     1      28.614  28.568  36.990  1.00  0.00    -0.271 OA
ENDBRANCH  10  24
TORSDOF 4
ENDMDL
MODEL 2
REMARK VINA RESULT: -7.892364724      0.917      1.952
REMARK  4 active torsions:
REMARK  status: ('A' for Active; 'I' for Inactive)
REMARK    1  A    between atoms: C6_9  and  N3_10 
REMARK    2  A    between atoms: N3_10  and  N4_12 
REMARK    3  A    between atoms: N4_12  and  C7_14 
REMARK    4  A    between atoms: C10_23  and  C11_24 
ROOT
HETATM    1  C7  UNL     1      26.207  29.472  36.059  1.00  0.00     0.143 A 
HETATM    2  N5  UNL     1      25.518  30.234  35.163  1.00  0.00    -0.317 N 
ATOM      3  H5  UNL     1      24.636  29.892  34.779  1.00  0.00     0.170 HD
HETATM    4  C8  UNL     1      25.990  31.431  34.782  1.00  0.00     0.180 A 
HETATM    5  S1  UNL     1      25.154  32.343  33.704  1.00  0.00    -0.040 SA
HETATM    6  N6  UNL     1      27.147  31.920  35.261  1.00  0.00    -0.299 N 
ATOM      7  H6  UNL     1      27.487  32.833  34.957  1.00  0.00     0.171 HD
HETATM    8  C9  UNL     1      27.837  31.205  36.132  1.00  0.00     0.266 A 
HETATM    9  O1  UNL     1      28.932  31.646  36.599  1.00  0.00    -0.267 OA
HETATM   10  C10 UNL     1      27.397  29.949  36.569  1.00  0.00     0.142 A 
ENDROOT
BRANCH   1  11
HETATM   11  N4  UNL     1      25.721  28.203  36.461  1.00  0.00    -0.284 N 
ATOM     12  H4  UNL     1      26.363  27.528  36.877  1.00  0.00     0.188 HD
BRANCH  11  13
HETATM   13  N3  UNL     1      24.381  27.863  36.297  1.00  0.00    -0.295 N 
ATOM     14  H3  UNL     1      23.699  28.451  36.776  1.00  0.00     0.187 HD
BRANCH  13  15
HETATM   15  C6  UNL     1      23.871  26.797  35.541  1.00  0.00     0.095 A 
HETATM   16  C2  UNL     1      23.518  26.876  34.210  1.00  0.00     0.052 A 
HETATM   17  C1  UNL     1      23.627  28.103  33.379  1.00  0.00     0.072 C 
HETATM   18  N1  UNL     1      23.064  25.659  33.800  1.00  0.00    -0.301 N 
HETATM   19  N2  UNL     1      23.127  24.835  34.836  1.00  0.00    -0.299 N 
ATOM     20  H1  UNL     1      22.735  25.424  32.864  1.00  0.00     0.187 HD
HETATM   21  C3  UNL     1      22.742  23.445  34.842  1.00  0.00     0.177 C 
HETATM   22  C4  UNL     1      23.623  25.519  35.922  1.00  0.00     0.054 A 
HETATM   23  C5  UNL     1      23.821  24.896  37.234  1.00  0.00     0.072 C 
ENDBRANCH  13  15
ENDBRANCH  11  13
ENDBRANCH   1  11
BRANCH  10  24
HETATM   24  C11 UNL     1      28.188  29.204  37.528  1.00  0.00     0.274 C 
HETATM   25  N7  UNL     1      27.821  29.234  38.901  1.00  0.00    -0.057 NA
HETATM   26  O2  UNL     1      29.171  28.547  37.180  1.00  0.00    -0.271 OA
ENDBRANCH  10  24
TORSDOF 4
ENDMDL
MODEL 3
REMARK VINA RESULT: -7.829340989      3.018      4.620
REMARK  4 active torsions:
REMARK  status: ('A' for Active; 'I' for Inactive)
REMARK    1  A    between atoms: C6_9  and  N3_10 
REMARK    2  A    between atoms: N3_10  and  N4_12 
REMARK    3  A    between atoms: N4_12  and  C7_14 
REMARK    4  A    between atoms: C10_23  and  C11_24 
ROOT
HETATM    1  C7  UNL     1      28.205  29.264  37.972  1.00  0.00     0.143 A 
HETATM    2  N5  UNL     1      27.386  29.418  39.051  1.00  0.00    -0.317 N 
ATOM      3  H5  UNL     1      26.471  28.966  39.061  1.00  0.00     0.170 HD
HETATM    4  C8  UNL     1      27.773  30.159  40.100  1.00  0.00     0.180 A 
HETATM    5  S1  UNL     1      26.782  30.338  41.395  1.00  0.00    -0.040 SA
HETATM    6  N6  UNL     1      28.970  30.773  40.130  1.00  0.00    -0.299 N 
ATOM      7  H6  UNL     1      29.243  31.332  40.938  1.00  0.00     0.171 HD
HETATM    8  C9  UNL     1      29.786  30.642  39.099  1.00  0.00     0.266 A 
HETATM    9  O1  UNL     1      30.920  31.211  39.104  1.00  0.00    -0.267 OA
HETATM   10  C10 UNL     1      29.439  29.882  37.974  1.00  0.00     0.142 A 
ENDROOT
BRANCH   1  11
HETATM   11  N4  UNL     1      27.802  28.491  36.855  1.00  0.00    -0.284 N 
ATOM     12  H4  UNL     1      28.503  28.163  36.191  1.00  0.00     0.188 HD
BRANCH  11  13
HETATM   13  N3  UNL     1      26.462  28.173  36.650  1.00  0.00    -0.295 N 
ATOM     14  H3  UNL     1      26.021  27.580  37.353  1.00  0.00     0.187 HD
BRANCH  13  15
HETATM   15  C6  UNL     1      25.655  28.582  35.578  1.00  0.00     0.095 A 
HETATM   16  C2  UNL     1      24.777  27.765  34.898  1.00  0.00     0.052 A 
HETATM   17  C1  UNL     1      24.554  26.327  35.203  1.00  0.00     0.072 C 
HETATM   18  N1  UNL     1      24.162  28.490  33.923  1.00  0.00    -0.301 N 
HETATM   19  N2  UNL     1      24.634  29.726  33.981  1.00  0.00    -0.299 N 
ATOM     20  H1  UNL     1      23.464  28.143  33.266  1.00  0.00     0.187 HD
HETATM   21  C3  UNL     1      24.254  30.823  33.126  1.00  0.00     0.177 C 
HETATM   22  C4  UNL     1      25.559  29.805  34.997  1.00  0.00     0.054 A 
HETATM   23  C5  UNL     1      26.274  31.041  35.332  1.00  0.00     0.072 C 
ENDBRANCH  13  15
ENDBRANCH  11  13
ENDBRANCH   1  11
BRANCH  10  24
HETATM   24  C11 UNL     1      30.371  29.765  36.870  1.00  0.00     0.274 C 
HETATM   25  N7  UNL     1      30.318  30.716  35.815  1.00  0.00    -0.057 NA
HETATM   26  O2  UNL     1      31.206  28.860  36.826  1.00  0.00    -0.271 OA
ENDBRANCH  10  24
TORSDOF 4
ENDMDL
MODEL 4
REMARK VINA RESULT: -7.676017975      2.913      4.527
REMARK  4 active torsions:
REMARK  status: ('A' for Active; 'I' for Inactive)
REMARK    1  A    between atoms: C6_9  and  N3_10 
REMARK    2  A    between atoms: N3_10  and  N4_12 
REMARK    3  A    between atoms: N4_12  and  C7_14 
REMARK    4  A    between atoms: C10_23  and  C11_24 
ROOT
HETATM    1  C7  UNL     1      28.192  29.314  38.054  1.00  0.00     0.143 A 
HETATM    2  N5  UNL     1      27.392  29.505  39.142  1.00  0.00    -0.317 N 
ATOM      3  H5  UNL     1      26.471  29.067  39.176  1.00  0.00     0.170 HD
HETATM    4  C8  UNL     1      27.807  30.263  40.168  1.00  0.00     0.180 A 
HETATM    5  S1  UNL     1      26.838  30.486  41.474  1.00  0.00    -0.040 SA
HETATM    6  N6  UNL     1      29.013  30.858  40.166  1.00  0.00    -0.299 N 
ATOM      7  H6  UNL     1      29.307  31.431  40.957  1.00  0.00     0.171 HD
HETATM    8  C9  UNL     1      29.811  30.691  39.126  1.00  0.00     0.266 A 
HETATM    9  O1  UNL     1      30.953  31.243  39.101  1.00  0.00    -0.267 OA
HETATM   10  C10 UNL     1      29.435  29.912  38.024  1.00  0.00     0.142 A 
ENDROOT
BRANCH   1  11
HETATM   11  N4  UNL     1      27.759  28.522  36.962  1.00  0.00    -0.284 N 
ATOM     12  H4  UNL     1      28.437  28.219  36.261  1.00  0.00     0.188 HD
BRANCH  11  13
HETATM   13  N3  UNL     1      26.424  28.152  36.829  1.00  0.00    -0.295 N 
ATOM     14  H3  UNL     1      26.001  27.677  37.626  1.00  0.00     0.187 HD
BRANCH  13  15
HETATM   15  C6  UNL     1      25.599  28.365  35.714  1.00  0.00     0.095 A 
HETATM   16  C2  UNL     1      25.548  29.535  34.987  1.00  0.00     0.052 A 
HETATM   17  C1  UNL     1      26.362  30.745  35.276  1.00  0.00     0.072 C 
HETATM   18  N1  UNL     1      24.645  29.390  33.978  1.00  0.00    -0.301 N 
HETATM   19  N2  UNL     1      24.139  28.169  34.062  1.00  0.00    -0.299 N 
ATOM     20  H1  UNL     1      24.401  30.096  33.283  1.00  0.00     0.187 HD
HETATM   21  C3  UNL     1      23.144  27.598  33.188  1.00  0.00     0.177 C 
HETATM   22  C4  UNL     1      24.715  27.518  35.129  1.00  0.00     0.054 A 
HETATM   23  C5  UNL     1      24.376  26.141  35.501  1.00  0.00     0.072 C 
ENDBRANCH  13  15
ENDBRANCH  11  13
ENDBRANCH   1  11
BRANCH  10  24
HETATM   24  C11 UNL     1      30.347  29.756  36.909  1.00  0.00     0.274 C 
HETATM   25  N7  UNL     1      30.296  30.686  35.836  1.00  0.00    -0.057 NA
HETATM   26  O2  UNL     1      31.166  28.834  36.871  1.00  0.00    -0.271 OA
ENDBRANCH  10  24
TORSDOF 4
ENDMDL
MODEL 5
REMARK VINA RESULT: -7.357178965      3.214      6.172
REMARK  4 active torsions:
REMARK  status: ('A' for Active; 'I' for Inactive)
REMARK    1  A    between atoms: C6_9  and  N3_10 
REMARK    2  A    between atoms: N3_10  and  N4_12 
REMARK    3  A    between atoms: N4_12  and  C7_14 
REMARK    4  A    between atoms: C10_23  and  C11_24 
ROOT
HETATM    1  C7  UNL     1      23.963  26.197  35.474  1.00  0.00     0.143 A 
HETATM    2  N5  UNL     1      23.911  26.607  34.174  1.00  0.00    -0.317 N 
ATOM      3  H5  UNL     1      24.263  27.530  33.920  1.00  0.00     0.170 HD
HETATM    4  C8  UNL     1      23.401  25.804  33.228  1.00  0.00     0.180 A 
HETATM    5  S1  UNL     1      23.344  26.304  31.665  1.00  0.00    -0.040 SA
HETATM    6  N6  UNL     1      22.926  24.580  33.518  1.00  0.00    -0.299 N 
ATOM      7  H6  UNL     1      22.542  23.988  32.782  1.00  0.00     0.171 HD
HETATM    8  C9  UNL     1      22.963  24.155  34.768  1.00  0.00     0.266 A 
HETATM    9  O1  UNL     1      22.521  23.004  35.067  1.00  0.00    -0.267 OA
HETATM   10  C10 UNL     1      23.483  24.946  35.802  1.00  0.00     0.142 A 
ENDROOT
BRANCH   1  11
HETATM   11  N4  UNL     1      24.491  27.040  36.483  1.00  0.00    -0.284 N 
ATOM     12  H4  UNL     1      23.886  27.359  37.240  1.00  0.00     0.188 HD
BRANCH  11  13
HETATM   13  N3  UNL     1      25.824  27.441  36.457  1.00  0.00    -0.295 N 
ATOM     14  H3  UNL     1      26.524  26.699  36.489  1.00  0.00     0.187 HD
BRANCH  13  15
HETATM   15  C6  UNL     1      26.305  28.757  36.390  1.00  0.00     0.095 A 
HETATM   16  C2  UNL     1      27.223  29.303  37.263  1.00  0.00     0.052 A 
HETATM   17  C1  UNL     1      27.840  28.576  38.403  1.00  0.00     0.072 C 
HETATM   18  N1  UNL     1      27.461  30.594  36.903  1.00  0.00    -0.301 N 
HETATM   19  N2  UNL     1      26.719  30.860  35.838  1.00  0.00    -0.299 N 
ATOM     20  H1  UNL     1      28.096  31.242  37.370  1.00  0.00     0.187 HD
HETATM   21  C3  UNL     1      26.665  32.116  35.130  1.00  0.00     0.177 C 
HETATM   22  C4  UNL     1      25.997  29.737  35.504  1.00  0.00     0.054 A 
HETATM   23  C5  UNL     1      25.073  29.692  34.367  1.00  0.00     0.072 C 
ENDBRANCH  13  15
ENDBRANCH  11  13
ENDBRANCH   1  11
BRANCH  10  24
HETATM   24  C11 UNL     1      23.505  24.433  37.157  1.00  0.00     0.274 C 
HETATM   25  N7  UNL     1      24.545  24.842  38.036  1.00  0.00    -0.057 NA
HETATM   26  O2  UNL     1      22.644  23.650  37.563  1.00  0.00    -0.271 OA
ENDBRANCH  10  24
TORSDOF 4
ENDMDL
