MODEL 1
REMARK VINA RESULT: -5.170874955      0.000      0.000
REMARK  11 active torsions:
REMARK  status: ('A' for Active; 'I' for Inactive)
REMARK    1  A    between atoms: N1_1  and  C1_4 
REMARK    2  A    between atoms: C2_7  and  C3_8 
REMARK    3  A    between atoms: C3_8  and  C4_9 
REMARK    4  A    between atoms: C3_8  and  N7_20 
REMARK    5  A    between atoms: C4_9  and  N3_10 
REMARK    6  A    between atoms: N7_20  and  C9_23 
REMARK    7  A    between atoms: C9_23  and  C10_24 
REMARK    8  A    between atoms: C10_24  and  C11_25 
REMARK    9  A    between atoms: C14_28  and  O1_29 
REMARK   10  A    between atoms: C15_31  and  O2_32 
REMARK   11  A    between atoms: C17_37  and  N9_38 
ROOT
HETATM    1  C3  UNL     1      57.652  10.930  28.431  1.00  0.00     0.268 C 
ENDROOT
BRANCH   1   2
HETATM    2  C2  UNL     1      58.851  10.071  28.569  1.00  0.00     0.145 A 
HETATM    3  N2  UNL     1      59.673   9.794  27.551  1.00  0.00    -0.178 N 
HETATM    4  C1  UNL     1      60.752   9.004  27.739  1.00  0.00     0.691 A 
ATOM      5  H2  UNL     1      59.483  10.182  26.627  1.00  0.00     0.185 HD
HETATM    6  N10 UNL     1      61.052   8.464  28.934  1.00  0.00    -0.023 N 
HETATM    7  C17 UNL     1      60.220   8.749  29.952  1.00  0.00     0.691 A 
ATOM      8  H10 UNL     1      61.870   7.868  29.062  1.00  0.00     0.203 HD
HETATM    9  N8  UNL     1      59.138   9.540  29.769  1.00  0.00    -0.178 N 
ATOM     10  H8  UNL     1      58.526   9.737  30.561  1.00  0.00     0.185 HD
BRANCH   4  11
HETATM   11  N1  UNL     1      61.504   8.772  26.725  1.00  0.00    -0.234 N 
ATOM     12  H12 UNL     1      61.356   9.283  25.855  1.00  0.00     0.174 HD
ATOM     13  H11 UNL     1      62.238   8.071  26.830  1.00  0.00     0.174 HD
ENDBRANCH   4  11
BRANCH   7  14
HETATM   14  N9  UNL     1      60.442   8.268  31.128  1.00  0.00    -0.234 N 
ATOM     15  H92 UNL     1      59.695   7.804  31.645  1.00  0.00     0.174 HD
ATOM     16  H91 UNL     1      61.376   8.364  31.527  1.00  0.00     0.174 HD
ENDBRANCH   7  14
ENDBRANCH   1   2
BRANCH   1  17
HETATM   17  C4  UNL     1      56.481  10.221  29.079  1.00  0.00     0.148 C 
BRANCH  17  18
HETATM   18  N3  UNL     1      55.567   9.896  28.003  1.00  0.00    -0.216 NA
HETATM   19  C5  UNL     1      54.145  10.088  28.439  1.00  0.00     0.227 A 
HETATM   20  N4  UNL     1      53.309   9.013  28.186  1.00  0.00    -0.368 N 
HETATM   21  C6  UNL     1      53.227   7.839  27.732  1.00  0.00     0.108 A 
ATOM     22  H4  UNL     1      52.375   9.281  28.493  1.00  0.00     0.161 HD
HETATM   23  N5  UNL     1      51.894   7.294  27.798  1.00  0.00    -0.086 NA
HETATM   24  C7  UNL     1      54.170   6.931  27.167  1.00  0.00     0.202 A 
HETATM   25  N6  UNL     1      55.567   7.415  26.994  1.00  0.00    -0.341 N 
HETATM   26  C8  UNL     1      55.585   8.648  27.505  1.00  0.00     0.020 A 
ATOM     27  H6  UNL     1      56.347   6.910  26.572  1.00  0.00     0.170 HD
ENDBRANCH  17  18
ENDBRANCH   1  17
BRANCH   1  28
HETATM   28  N7  UNL     1      57.933  12.188  29.056  1.00  0.00    -0.063 N 
ATOM     29  H72 UNL     1      58.923  12.427  28.993  1.00  0.00     0.278 HD
ATOM     30  H71 UNL     1      57.551  12.967  28.521  1.00  0.00     0.278 HD
BRANCH  28  31
HETATM   31  C9  UNL     1      57.467  12.200  30.426  1.00  0.00     0.238 C 
BRANCH  31  32
HETATM   32  C10 UNL     1      58.632  12.361  31.382  1.00  0.00     0.066 C 
BRANCH  32  33
HETATM   33  C11 UNL     1      58.773  13.774  31.790  1.00  0.00    -0.054 A 
HETATM   34  C12 UNL     1      59.993  14.391  31.679  1.00  0.00     0.010 A 
HETATM   35  C13 UNL     1      60.176  15.700  32.044  1.00  0.00     0.040 A 
HETATM   36  C14 UNL     1      59.139  16.438  32.533  1.00  0.00     0.098 A 
HETATM   37  C15 UNL     1      57.896  15.823  32.650  1.00  0.00     0.099 A 
HETATM   38  C16 UNL     1      57.722  14.511  32.282  1.00  0.00     0.046 A 
BRANCH  36  39
HETATM   39  O1  UNL     1      59.310  17.764  32.907  1.00  0.00    -0.358 OA
ATOM     40  H1  UNL     1      59.669  18.405  32.304  1.00  0.00     0.217 HD
ENDBRANCH  36  39
BRANCH  37  41
HETATM   41  O2  UNL     1      56.855  16.592  33.149  1.00  0.00    -0.358 OA
ATOM     42  H2  UNL     1      56.526  16.367  34.012  1.00  0.00     0.217 HD
ENDBRANCH  37  41
ENDBRANCH  32  33
ENDBRANCH  31  32
ENDBRANCH  28  31
ENDBRANCH   1  28
TORSDOF 11
ENDMDL
MODEL 2
REMARK VINA RESULT: -5.165184596      0.050      1.469
REMARK  11 active torsions:
REMARK  status: ('A' for Active; 'I' for Inactive)
REMARK    1  A    between atoms: N1_1  and  C1_4 
REMARK    2  A    between atoms: C2_7  and  C3_8 
REMARK    3  A    between atoms: C3_8  and  C4_9 
REMARK    4  A    between atoms: C3_8  and  N7_20 
REMARK    5  A    between atoms: C4_9  and  N3_10 
REMARK    6  A    between atoms: N7_20  and  C9_23 
REMARK    7  A    between atoms: C9_23  and  C10_24 
REMARK    8  A    between atoms: C10_24  and  C11_25 
REMARK    9  A    between atoms: C14_28  and  O1_29 
REMARK   10  A    between atoms: C15_31  and  O2_32 
REMARK   11  A    between atoms: C17_37  and  N9_38 
ROOT
HETATM    1  C3  UNL     1      57.647  10.892  28.454  1.00  0.00     0.268 C 
ENDROOT
BRANCH   1   2
HETATM    2  C2  UNL     1      58.831  10.023  28.642  1.00  0.00     0.145 A 
HETATM    3  N2  UNL     1      59.136   9.444  29.809  1.00  0.00    -0.178 N 
HETATM    4  C1  UNL     1      60.230   8.661  29.919  1.00  0.00     0.691 A 
ATOM      5  H2  UNL     1      58.538   9.597  30.621  1.00  0.00     0.185 HD
HETATM    6  N10 UNL     1      61.056   8.424  28.883  1.00  0.00    -0.023 N 
HETATM    7  C17 UNL     1      60.741   9.010  27.714  1.00  0.00     0.691 A 
ATOM      8  H10 UNL     1      61.879   7.830  28.980  1.00  0.00     0.203 HD
HETATM    9  N8  UNL     1      59.646   9.795  27.598  1.00  0.00    -0.178 N 
ATOM     10  H8  UNL     1      59.434  10.225  26.698  1.00  0.00     0.185 HD
BRANCH   4  11
HETATM   11  N1  UNL     1      60.472   8.133  31.064  1.00  0.00    -0.234 N 
ATOM     12  H12 UNL     1      60.107   7.207  31.284  1.00  0.00     0.174 HD
ATOM     13  H11 UNL     1      61.034   8.671  31.724  1.00  0.00     0.174 HD
ENDBRANCH   4  11
BRANCH   7  14
HETATM   14  N9  UNL     1      61.484   8.830  26.675  1.00  0.00    -0.234 N 
ATOM     15  H92 UNL     1      61.562   7.906  26.250  1.00  0.00     0.174 HD
ATOM     16  H91 UNL     1      61.987   9.629  26.291  1.00  0.00     0.174 HD
ENDBRANCH   7  14
ENDBRANCH   1   2
BRANCH   1  17
HETATM   17  C4  UNL     1      56.453  10.216  29.097  1.00  0.00     0.148 C 
BRANCH  17  18
HETATM   18  N3  UNL     1      55.547   9.895  28.013  1.00  0.00    -0.216 NA
HETATM   19  C5  UNL     1      54.122  10.084  28.439  1.00  0.00     0.227 A 
HETATM   20  N4  UNL     1      53.289   9.010  28.176  1.00  0.00    -0.368 N 
HETATM   21  C6  UNL     1      53.210   7.838  27.717  1.00  0.00     0.108 A 
ATOM     22  H4  UNL     1      52.352   9.276  28.478  1.00  0.00     0.161 HD
HETATM   23  N5  UNL     1      51.877   7.291  27.771  1.00  0.00    -0.086 NA
HETATM   24  C7  UNL     1      54.158   6.932  27.155  1.00  0.00     0.202 A 
HETATM   25  N6  UNL     1      55.556   7.418  26.993  1.00  0.00    -0.341 N 
HETATM   26  C8  UNL     1      55.569   8.649  27.510  1.00  0.00     0.020 A 
ATOM     27  H6  UNL     1      56.339   6.915  26.575  1.00  0.00     0.170 HD
ENDBRANCH  17  18
ENDBRANCH   1  17
BRANCH   1  28
HETATM   28  N7  UNL     1      57.931  12.163  29.051  1.00  0.00    -0.063 N 
ATOM     29  H72 UNL     1      58.921  12.399  28.982  1.00  0.00     0.278 HD
ATOM     30  H71 UNL     1      57.550  12.931  28.499  1.00  0.00     0.278 HD
BRANCH  28  31
HETATM   31  C9  UNL     1      57.465  12.208  30.420  1.00  0.00     0.238 C 
BRANCH  31  32
HETATM   32  C10 UNL     1      58.632  12.365  31.374  1.00  0.00     0.066 C 
BRANCH  32  33
HETATM   33  C11 UNL     1      58.777  13.777  31.784  1.00  0.00    -0.054 A 
HETATM   34  C12 UNL     1      59.999  14.390  31.677  1.00  0.00     0.010 A 
HETATM   35  C13 UNL     1      60.185  15.698  32.044  1.00  0.00     0.040 A 
HETATM   36  C14 UNL     1      59.149  16.439  32.532  1.00  0.00     0.098 A 
HETATM   37  C15 UNL     1      57.904  15.827  32.646  1.00  0.00     0.099 A 
HETATM   38  C16 UNL     1      57.727  14.516  32.275  1.00  0.00     0.046 A 
BRANCH  36  39
HETATM   39  O1  UNL     1      59.323  17.763  32.908  1.00  0.00    -0.358 OA
ATOM     40  H1  UNL     1      58.584  18.310  33.148  1.00  0.00     0.217 HD
ENDBRANCH  36  39
BRANCH  37  41
HETATM   41  O2  UNL     1      56.865  16.598  33.144  1.00  0.00    -0.358 OA
ATOM     42  H2  UNL     1      56.217  16.906  32.521  1.00  0.00     0.217 HD
ENDBRANCH  37  41
ENDBRANCH  32  33
ENDBRANCH  31  32
ENDBRANCH  28  31
ENDBRANCH   1  28
TORSDOF 11
ENDMDL
MODEL 3
REMARK VINA RESULT: -4.919293824      4.496      8.176
REMARK  11 active torsions:
REMARK  status: ('A' for Active; 'I' for Inactive)
REMARK    1  A    between atoms: N1_1  and  C1_4 
REMARK    2  A    between atoms: C2_7  and  C3_8 
REMARK    3  A    between atoms: C3_8  and  C4_9 
REMARK    4  A    between atoms: C3_8  and  N7_20 
REMARK    5  A    between atoms: C4_9  and  N3_10 
REMARK    6  A    between atoms: N7_20  and  C9_23 
REMARK    7  A    between atoms: C9_23  and  C10_24 
REMARK    8  A    between atoms: C10_24  and  C11_25 
REMARK    9  A    between atoms: C14_28  and  O1_29 
REMARK   10  A    between atoms: C15_31  and  O2_32 
REMARK   11  A    between atoms: C17_37  and  N9_38 
ROOT
HETATM    1  C3  UNL     1      55.418   9.608  28.819  1.00  0.00     0.268 C 
ENDROOT
BRANCH   1   2
HETATM    2  C2  UNL     1      55.453  10.894  28.083  1.00  0.00     0.145 A 
HETATM    3  N2  UNL     1      54.492  11.277  27.236  1.00  0.00    -0.178 N 
HETATM    4  C1  UNL     1      54.580  12.462  26.594  1.00  0.00     0.691 A 
ATOM      5  H2  UNL     1      53.689  10.671  27.073  1.00  0.00     0.185 HD
HETATM    6  N10 UNL     1      55.615  13.303  26.768  1.00  0.00    -0.023 N 
HETATM    7  C17 UNL     1      56.577  12.909  27.623  1.00  0.00     0.691 A 
ATOM      8  H10 UNL     1      55.669  14.195  26.277  1.00  0.00     0.203 HD
HETATM    9  N8  UNL     1      56.494  11.723  28.268  1.00  0.00    -0.178 N 
ATOM     10  H8  UNL     1      57.238  11.452  28.910  1.00  0.00     0.185 HD
BRANCH   4  11
HETATM   11  N1  UNL     1      53.628  12.777  25.792  1.00  0.00    -0.234 N 
ATOM     12  H12 UNL     1      52.772  12.223  25.776  1.00  0.00     0.174 HD
ATOM     13  H11 UNL     1      53.766  13.588  25.188  1.00  0.00     0.174 HD
ENDBRANCH   4  11
BRANCH   7  14
HETATM   14  N9  UNL     1      57.601  13.661  27.843  1.00  0.00    -0.234 N 
ATOM     15  H92 UNL     1      58.242  13.893  27.084  1.00  0.00     0.174 HD
ATOM     16  H91 UNL     1      57.754  14.014  28.787  1.00  0.00     0.174 HD
ENDBRANCH   7  14
ENDBRANCH   1   2
BRANCH   1  17
HETATM   17  C4  UNL     1      56.493   9.640  29.885  1.00  0.00     0.148 C 
BRANCH  17  18
HETATM   18  N3  UNL     1      57.506   8.697  29.457  1.00  0.00    -0.216 NA
HETATM   19  C5  UNL     1      58.418   8.346  30.595  1.00  0.00     0.227 A 
HETATM   20  N4  UNL     1      59.770   8.457  30.312  1.00  0.00    -0.368 N 
HETATM   21  C6  UNL     1      60.633   8.774  29.448  1.00  0.00     0.108 A 
ATOM     22  H4  UNL     1      60.276   8.160  31.146  1.00  0.00     0.161 HD
HETATM   23  N5  UNL     1      61.989   8.616  29.912  1.00  0.00    -0.086 NA
HETATM   24  C7  UNL     1      60.558   9.258  28.109  1.00  0.00     0.202 A 
HETATM   25  N6  UNL     1      59.203   9.399  27.507  1.00  0.00    -0.341 N 
HETATM   26  C8  UNL     1      58.345   9.064  28.474  1.00  0.00     0.020 A 
ATOM     27  H6  UNL     1      58.978   9.689  26.556  1.00  0.00     0.170 HD
ENDBRANCH  17  18
ENDBRANCH   1  17
BRANCH   1  28
HETATM   28  N7  UNL     1      54.108   9.453  29.379  1.00  0.00    -0.063 N 
ATOM     29  H72 UNL     1      54.066   9.796  30.338  1.00  0.00     0.278 HD
ATOM     30  H71 UNL     1      53.440  10.096  28.955  1.00  0.00     0.278 HD
BRANCH  28  31
HETATM   31  C9  UNL     1      53.664   8.079  29.282  1.00  0.00     0.238 C 
BRANCH  31  32
HETATM   32  C10 UNL     1      53.267   7.748  27.857  1.00  0.00     0.066 C 
BRANCH  32  33
HETATM   33  C11 UNL     1      54.316   6.939  27.204  1.00  0.00    -0.054 A 
HETATM   34  C12 UNL     1      54.136   5.587  27.060  1.00  0.00     0.010 A 
HETATM   35  C13 UNL     1      55.081   4.793  26.461  1.00  0.00     0.040 A 
HETATM   36  C14 UNL     1      56.240   5.328  25.984  1.00  0.00     0.098 A 
HETATM   37  C15 UNL     1      56.434   6.700  26.124  1.00  0.00     0.099 A 
HETATM   38  C16 UNL     1      55.483   7.488  26.726  1.00  0.00     0.046 A 
BRANCH  36  39
HETATM   39  O1  UNL     1      57.204   4.537  25.376  1.00  0.00    -0.358 OA
ATOM     40  H1  UNL     1      57.891   4.917  24.840  1.00  0.00     0.217 HD
ENDBRANCH  36  39
BRANCH  37  41
HETATM   41  O2  UNL     1      57.620   7.223  25.632  1.00  0.00    -0.358 OA
ATOM     42  H2  UNL     1      57.553   7.867  24.936  1.00  0.00     0.217 HD
ENDBRANCH  37  41
ENDBRANCH  32  33
ENDBRANCH  31  32
ENDBRANCH  28  31
ENDBRANCH   1  28
TORSDOF 11
ENDMDL
MODEL 4
REMARK VINA RESULT: -4.895185555      4.495      8.193
REMARK  11 active torsions:
REMARK  status: ('A' for Active; 'I' for Inactive)
REMARK    1  A    between atoms: N1_1  and  C1_4 
REMARK    2  A    between atoms: C2_7  and  C3_8 
REMARK    3  A    between atoms: C3_8  and  C4_9 
REMARK    4  A    between atoms: C3_8  and  N7_20 
REMARK    5  A    between atoms: C4_9  and  N3_10 
REMARK    6  A    between atoms: N7_20  and  C9_23 
REMARK    7  A    between atoms: C9_23  and  C10_24 
REMARK    8  A    between atoms: C10_24  and  C11_25 
REMARK    9  A    between atoms: C14_28  and  O1_29 
REMARK   10  A    between atoms: C15_31  and  O2_32 
REMARK   11  A    between atoms: C17_37  and  N9_38 
ROOT
HETATM    1  C3  UNL     1      55.438   9.625  28.848  1.00  0.00     0.268 C 
ENDROOT
BRANCH   1   2
HETATM    2  C2  UNL     1      55.523  10.920  28.132  1.00  0.00     0.145 A 
HETATM    3  N2  UNL     1      56.542  11.773  28.283  1.00  0.00    -0.178 N 
HETATM    4  C1  UNL     1      56.564  12.939  27.603  1.00  0.00     0.691 A 
ATOM      5  H2  UNL     1      57.307  11.541  28.916  1.00  0.00     0.185 HD
HETATM    6  N10 UNL     1      55.584  13.299  26.755  1.00  0.00    -0.023 N 
HETATM    7  C17 UNL     1      54.563  12.435  26.610  1.00  0.00     0.691 A 
ATOM      8  H10 UNL     1      55.612  14.183  26.248  1.00  0.00     0.203 HD
HETATM    9  N8  UNL     1      54.537  11.265  27.289  1.00  0.00    -0.178 N 
ATOM     10  H8  UNL     1      53.749  10.631  27.157  1.00  0.00     0.185 HD
BRANCH   4  11
HETATM   11  N1  UNL     1      57.568  13.718  27.788  1.00  0.00    -0.234 N 
ATOM     12  H12 UNL     1      58.221  13.533  28.549  1.00  0.00     0.174 HD
ATOM     13  H11 UNL     1      57.676  14.510  27.154  1.00  0.00     0.174 HD
ENDBRANCH   4  11
BRANCH   7  14
HETATM   14  N9  UNL     1      53.586  12.709  25.814  1.00  0.00    -0.234 N 
ATOM     15  H92 UNL     1      52.756  12.116  25.794  1.00  0.00     0.174 HD
ATOM     16  H91 UNL     1      53.662  13.527  25.211  1.00  0.00     0.174 HD
ENDBRANCH   7  14
ENDBRANCH   1   2
BRANCH   1  17
HETATM   17  C4  UNL     1      56.494   9.611  29.934  1.00  0.00     0.148 C 
BRANCH  17  18
HETATM   18  N3  UNL     1      57.516   8.688  29.483  1.00  0.00    -0.216 NA
HETATM   19  C5  UNL     1      58.442   8.333  30.608  1.00  0.00     0.227 A 
HETATM   20  N4  UNL     1      59.790   8.466  30.315  1.00  0.00    -0.368 N 
HETATM   21  C6  UNL     1      60.641   8.807  29.448  1.00  0.00     0.108 A 
ATOM     22  H4  UNL     1      60.307   8.164  31.140  1.00  0.00     0.161 HD
HETATM   23  N5  UNL     1      62.004   8.660  29.898  1.00  0.00    -0.086 NA
HETATM   24  C7  UNL     1      60.548   9.308  28.117  1.00  0.00     0.202 A 
HETATM   25  N6  UNL     1      59.186   9.440  27.529  1.00  0.00    -0.341 N 
HETATM   26  C8  UNL     1      58.342   9.080  28.498  1.00  0.00     0.020 A 
ATOM     27  H6  UNL     1      58.949   9.741  26.584  1.00  0.00     0.170 HD
ENDBRANCH  17  18
ENDBRANCH   1  17
BRANCH   1  28
HETATM   28  N7  UNL     1      54.115   9.500  29.382  1.00  0.00    -0.063 N 
ATOM     29  H72 UNL     1      54.058   9.856  30.336  1.00  0.00     0.278 HD
ATOM     30  H71 UNL     1      53.466  10.147  28.936  1.00  0.00     0.278 HD
BRANCH  28  31
HETATM   31  C9  UNL     1      53.650   8.132  29.294  1.00  0.00     0.238 C 
BRANCH  31  32
HETATM   32  C10 UNL     1      53.251   7.797  27.870  1.00  0.00     0.066 C 
BRANCH  32  33
HETATM   33  C11 UNL     1      54.297   6.980  27.220  1.00  0.00    -0.054 A 
HETATM   34  C12 UNL     1      54.110   5.629  27.078  1.00  0.00     0.010 A 
HETATM   35  C13 UNL     1      55.050   4.829  26.482  1.00  0.00     0.040 A 
HETATM   36  C14 UNL     1      56.213   5.357  26.005  1.00  0.00     0.098 A 
HETATM   37  C15 UNL     1      56.415   6.728  26.143  1.00  0.00     0.099 A 
HETATM   38  C16 UNL     1      55.467   7.522  26.742  1.00  0.00     0.046 A 
BRANCH  36  39
HETATM   39  O1  UNL     1      57.174   4.559  25.399  1.00  0.00    -0.358 OA
ATOM     40  H1  UNL     1      58.095   4.642  25.619  1.00  0.00     0.217 HD
ENDBRANCH  36  39
BRANCH  37  41
HETATM   41  O2  UNL     1      57.604   7.244  25.652  1.00  0.00    -0.358 OA
ATOM     42  H2  UNL     1      57.763   7.155  24.719  1.00  0.00     0.217 HD
ENDBRANCH  37  41
ENDBRANCH  32  33
ENDBRANCH  31  32
ENDBRANCH  28  31
ENDBRANCH   1  28
TORSDOF 11
ENDMDL
MODEL 5
REMARK VINA RESULT: -4.883705434      4.995      8.362
REMARK  11 active torsions:
REMARK  status: ('A' for Active; 'I' for Inactive)
REMARK    1  A    between atoms: N1_1  and  C1_4 
REMARK    2  A    between atoms: C2_7  and  C3_8 
REMARK    3  A    between atoms: C3_8  and  C4_9 
REMARK    4  A    between atoms: C3_8  and  N7_20 
REMARK    5  A    between atoms: C4_9  and  N3_10 
REMARK    6  A    between atoms: N7_20  and  C9_23 
REMARK    7  A    between atoms: C9_23  and  C10_24 
REMARK    8  A    between atoms: C10_24  and  C11_25 
REMARK    9  A    between atoms: C14_28  and  O1_29 
REMARK   10  A    between atoms: C15_31  and  O2_32 
REMARK   11  A    between atoms: C17_37  and  N9_38 
ROOT
HETATM    1  C3  UNL     1      55.509   9.619  28.810  1.00  0.00     0.268 C 
ENDROOT
BRANCH   1   2
HETATM    2  C2  UNL     1      55.510  10.910  28.085  1.00  0.00     0.145 A 
HETATM    3  N2  UNL     1      54.525  11.288  27.263  1.00  0.00    -0.178 N 
HETATM    4  C1  UNL     1      54.581  12.479  26.630  1.00  0.00     0.691 A 
ATOM      5  H2  UNL     1      53.726  10.672  27.114  1.00  0.00     0.185 HD
HETATM    6  N10 UNL     1      55.609  13.333  26.787  1.00  0.00    -0.023 N 
HETATM    7  C17 UNL     1      56.596  12.945  27.616  1.00  0.00     0.691 A 
ATOM      8  H10 UNL     1      55.640  14.229  26.302  1.00  0.00     0.203 HD
HETATM    9  N8  UNL     1      56.543  11.752  28.253  1.00  0.00    -0.178 N 
ATOM     10  H8  UNL     1      57.306  11.486  28.875  1.00  0.00     0.185 HD
BRANCH   4  11
HETATM   11  N1  UNL     1      53.607  12.788  25.853  1.00  0.00    -0.234 N 
ATOM     12  H12 UNL     1      52.646  12.649  26.163  1.00  0.00     0.174 HD
ATOM     13  H11 UNL     1      53.836  13.168  24.934  1.00  0.00     0.174 HD
ENDBRANCH   4  11
BRANCH   7  14
HETATM   14  N9  UNL     1      57.615  13.709  27.819  1.00  0.00    -0.234 N 
ATOM     15  H92 UNL     1      58.361  13.767  27.126  1.00  0.00     0.174 HD
ATOM     16  H91 UNL     1      57.656  14.248  28.683  1.00  0.00     0.174 HD
ENDBRANCH   7  14
ENDBRANCH   1   2
BRANCH   1  17
HETATM   17  C4  UNL     1      56.627   9.645  29.832  1.00  0.00     0.148 C 
BRANCH  17  18
HETATM   18  N3  UNL     1      57.656   8.764  29.319  1.00  0.00    -0.216 NA
HETATM   19  C5  UNL     1      58.568   8.317  30.422  1.00  0.00     0.227 A 
HETATM   20  N4  UNL     1      59.919   8.475  30.159  1.00  0.00    -0.368 N 
HETATM   21  C6  UNL     1      60.781   8.887  29.335  1.00  0.00     0.108 A 
ATOM     22  H4  UNL     1      60.427   8.105  30.962  1.00  0.00     0.161 HD
HETATM   23  N5  UNL     1      62.138   8.704  29.788  1.00  0.00    -0.086 NA
HETATM   24  C7  UNL     1      60.704   9.498  28.049  1.00  0.00     0.202 A 
HETATM   25  N6  UNL     1      59.350   9.678  27.456  1.00  0.00    -0.341 N 
HETATM   26  C8  UNL     1      58.494   9.237  28.381  1.00  0.00     0.020 A 
ATOM     27  H6  UNL     1      59.124  10.057  26.537  1.00  0.00     0.170 HD
ENDBRANCH  17  18
ENDBRANCH   1  17
BRANCH   1  28
HETATM   28  N7  UNL     1      54.224   9.454  29.422  1.00  0.00    -0.063 N 
ATOM     29  H72 UNL     1      54.252   9.664  30.420  1.00  0.00     0.278 HD
ATOM     30  H71 UNL     1      53.572  10.182  29.129  1.00  0.00     0.278 HD
BRANCH  28  31
HETATM   31  C9  UNL     1      53.697   8.130  29.169  1.00  0.00     0.238 C 
BRANCH  31  32
HETATM   32  C10 UNL     1      53.424   7.941  27.690  1.00  0.00     0.066 C 
BRANCH  32  33
HETATM   33  C11 UNL     1      54.376   6.972  27.110  1.00  0.00    -0.054 A 
HETATM   34  C12 UNL     1      55.607   7.403  26.687  1.00  0.00     0.010 A 
HETATM   35  C13 UNL     1      56.525   6.542  26.141  1.00  0.00     0.040 A 
HETATM   36  C14 UNL     1      56.240   5.217  26.001  1.00  0.00     0.098 A 
HETATM   37  C15 UNL     1      54.993   4.767  26.426  1.00  0.00     0.099 A 
HETATM   38  C16 UNL     1      54.079   5.636  26.972  1.00  0.00     0.046 A 
BRANCH  36  39
HETATM   39  O1  UNL     1      57.159   4.335  25.450  1.00  0.00    -0.358 OA
ATOM     40  H1  UNL     1      57.444   3.560  25.921  1.00  0.00     0.217 HD
ENDBRANCH  36  39
BRANCH  37  41
HETATM   41  O2  UNL     1      54.723   3.415  26.274  1.00  0.00    -0.358 OA
ATOM     42  H2  UNL     1      55.321   2.805  26.691  1.00  0.00     0.217 HD
ENDBRANCH  37  41
ENDBRANCH  32  33
ENDBRANCH  31  32
ENDBRANCH  28  31
ENDBRANCH   1  28
TORSDOF 11
ENDMDL
