MODEL 1
REMARK VINA RESULT: -2.280300935      0.000      0.000
REMARK  16 active torsions:
REMARK  status: ('A' for Active; 'I' for Inactive)
REMARK    1  A    between atoms: N1_1  and  C1_4 
REMARK    2  A    between atoms: C2_7  and  C3_8 
REMARK    3  A    between atoms: C3_8  and  C4_9 
REMARK    4  A    between atoms: C4_9  and  C5_10 
REMARK    5  A    between atoms: C5_10  and  C6_11 
REMARK    6  A    between atoms: C6_11  and  N3_12 
REMARK    7  A    between atoms: C8_19  and  N5_20 
REMARK    8  A    between atoms: C9_22  and  C10_23 
REMARK    9  A    between atoms: C10_23  and  C11_24 
REMARK   10  A    between atoms: C11_24  and  S1_25 
REMARK   11  A    between atoms: S1_25  and  C12_26 
REMARK   12  A    between atoms: C12_26  and  N6_27 
REMARK   13  A    between atoms: C12_26  and  O1_31 
REMARK   14  A    between atoms: C13_35  and  C14_36 
REMARK   15  A    between atoms: C14_36  and  O2_37 
REMARK   16  A    between atoms: C14_36  and  O3_39 
ROOT
HETATM    1  C1  UNL     1      55.248  10.894  28.358  1.00  0.00     0.115 A 
HETATM    2  N2  UNL     1      55.883  11.811  29.096  1.00  0.00    -0.321 N 
ATOM      3  H2  UNL     1      55.418  12.706  29.250  1.00  0.00     0.169 HD
HETATM    4  C2  UNL     1      57.094  11.631  29.648  1.00  0.00     0.163 A 
HETATM    5  N4  UNL     1      57.720  10.462  29.456  1.00  0.00    -0.331 N 
ATOM      6  H4  UNL     1      58.641  10.302  29.866  1.00  0.00     0.168 HD
HETATM    7  C7  UNL     1      57.136   9.500  28.726  1.00  0.00     0.095 A 
HETATM    8  C8  UNL     1      57.759   8.272  28.505  1.00  0.00     0.133 A 
HETATM    9  N7  UNL     1      57.093   7.333  27.741  1.00  0.00    -0.338 N 
ATOM     10  H7  UNL     1      57.549   6.435  27.581  1.00  0.00     0.167 HD
HETATM   11  C13 UNL     1      55.898   7.531  27.205  1.00  0.00     0.091 A 
HETATM   12  C15 UNL     1      55.241   8.727  27.393  1.00  0.00     0.090 A 
HETATM   13  N8  UNL     1      53.958   8.956  26.832  1.00  0.00    -0.099 NA
HETATM   14  C16 UNL     1      55.883   9.682  28.152  1.00  0.00     0.064 A 
ENDROOT
BRANCH   8  15
HETATM   15  N5  UNL     1      58.854   7.966  28.941  1.00  0.00    -0.354 N 
HETATM   16  C9  UNL     1      59.789   7.072  29.333  1.00  0.00     0.063 C 
ATOM     17  H5  UNL     1      59.310   8.867  29.091  1.00  0.00     0.166 HD
BRANCH  16  18
HETATM   18  C10 UNL     1      61.108   7.650  29.837  1.00  0.00     0.055 C 
BRANCH  18  19
HETATM   19  C11 UNL     1      61.260   8.990  29.152  1.00  0.00     0.083 C 
BRANCH  19  20
HETATM   20  S1  UNL     1      61.472   8.877  27.378  1.00  0.00    -0.110 SA
BRANCH  20  21
HETATM   21  C12 UNL     1      60.747  10.301  26.545  1.00  0.00     0.380 C 
BRANCH  21  22
HETATM   22  N6  UNL     1      61.698  11.368  26.329  1.00  0.00    -0.044 N 
ATOM     23  H63 UNL     1      61.727  11.999  27.130  1.00  0.00     0.278 HD
ATOM     24  H62 UNL     1      62.655  11.017  26.359  1.00  0.00     0.278 HD
ATOM     25  H61 UNL     1      61.526  11.883  25.465  1.00  0.00     0.278 HD
ENDBRANCH  21  22
BRANCH  21  26
HETATM   26  O1  UNL     1      59.677  10.827  27.277  1.00  0.00    -0.362 OA
ATOM     27  H1  UNL     1      59.672  10.497  28.167  1.00  0.00     0.213 HD
ENDBRANCH  21  26
ENDBRANCH  20  21
ENDBRANCH  19  20
ENDBRANCH  18  19
ENDBRANCH  16  18
ENDBRANCH   8  15
BRANCH  11  28
HETATM   28  C14 UNL     1      55.207   6.487  26.376  1.00  0.00     0.307 C 
BRANCH  28  29
HETATM   29  O2  UNL     1      56.176   5.497  26.089  1.00  0.00    -0.366 OA
ATOM     30  H2  UNL     1      55.697   4.723  25.818  1.00  0.00     0.213 HD
ENDBRANCH  28  29
BRANCH  28  31
HETATM   31  O3  UNL     1      54.206   5.833  27.084  1.00  0.00    -0.366 OA
ATOM     32  H3  UNL     1      54.165   4.908  26.874  1.00  0.00     0.213 HD
ENDBRANCH  28  31
ENDBRANCH  11  28
BRANCH   4  33
HETATM   33  C3  UNL     1      57.725  12.679  30.439  1.00  0.00    -0.030 C 
BRANCH  33  34
HETATM   34  C4  UNL     1      58.265  13.533  31.098  1.00  0.00    -0.097 C 
BRANCH  34  35
HETATM   35  C5  UNL     1      58.943  14.557  31.894  1.00  0.00     0.121 C 
BRANCH  35  36
HETATM   36  C6  UNL     1      57.880  15.474  32.500  1.00  0.00     0.241 C 
BRANCH  36  37
HETATM   37  N3  UNL     1      58.524  16.505  33.293  1.00  0.00    -0.079 N 
ATOM     38  H33 UNL     1      59.359  16.160  33.768  1.00  0.00     0.274 HD
ATOM     39  H32 UNL     1      58.969  17.216  32.713  1.00  0.00     0.274 HD
ATOM     40  H31 UNL     1      57.848  16.905  33.944  1.00  0.00     0.274 HD
ENDBRANCH  36  37
ENDBRANCH  35  36
ENDBRANCH  34  35
ENDBRANCH  33  34
ENDBRANCH   4  33
BRANCH   1  41
HETATM   41  N1  UNL     1      54.093  11.082  27.836  1.00  0.00    -0.385 N 
ATOM     42  H12 UNL     1      53.264  10.932  28.411  1.00  0.00     0.157 HD
ATOM     43  H11 UNL     1      53.952  11.374  26.869  1.00  0.00     0.157 HD
ENDBRANCH   1  41
TORSDOF 16
ENDMDL
MODEL 2
REMARK VINA RESULT: -2.013993412      1.625      2.131
REMARK  16 active torsions:
REMARK  status: ('A' for Active; 'I' for Inactive)
REMARK    1  A    between atoms: N1_1  and  C1_4 
REMARK    2  A    between atoms: C2_7  and  C3_8 
REMARK    3  A    between atoms: C3_8  and  C4_9 
REMARK    4  A    between atoms: C4_9  and  C5_10 
REMARK    5  A    between atoms: C5_10  and  C6_11 
REMARK    6  A    between atoms: C6_11  and  N3_12 
REMARK    7  A    between atoms: C8_19  and  N5_20 
REMARK    8  A    between atoms: C9_22  and  C10_23 
REMARK    9  A    between atoms: C10_23  and  C11_24 
REMARK   10  A    between atoms: C11_24  and  S1_25 
REMARK   11  A    between atoms: S1_25  and  C12_26 
REMARK   12  A    between atoms: C12_26  and  N6_27 
REMARK   13  A    between atoms: C12_26  and  O1_31 
REMARK   14  A    between atoms: C13_35  and  C14_36 
REMARK   15  A    between atoms: C14_36  and  O2_37 
REMARK   16  A    between atoms: C14_36  and  O3_39 
ROOT
HETATM    1  C1  UNL     1      55.267   9.780  29.515  1.00  0.00     0.115 A 
HETATM    2  N2  UNL     1      55.917  10.758  30.155  1.00  0.00    -0.321 N 
ATOM      3  H2  UNL     1      55.401  11.301  30.848  1.00  0.00     0.169 HD
HETATM    4  C2  UNL     1      57.205  11.073  29.945  1.00  0.00     0.163 A 
HETATM    5  N4  UNL     1      57.899  10.370  29.038  1.00  0.00    -0.331 N 
ATOM      6  H4  UNL     1      58.879  10.592  28.862  1.00  0.00     0.168 HD
HETATM    7  C7  UNL     1      57.304   9.376  28.363  1.00  0.00     0.095 A 
HETATM    8  C8  UNL     1      57.995   8.626  27.412  1.00  0.00     0.133 A 
HETATM    9  N7  UNL     1      57.313   7.617  26.757  1.00  0.00    -0.338 N 
ATOM     10  H7  UNL     1      57.819   7.068  26.063  1.00  0.00     0.167 HD
HETATM   11  C13 UNL     1      56.040   7.323  26.980  1.00  0.00     0.091 A 
HETATM   12  C15 UNL     1      55.314   8.035  27.909  1.00  0.00     0.090 A 
HETATM   13  N8  UNL     1      53.952   7.731  28.165  1.00  0.00    -0.099 NA
HETATM   14  C16 UNL     1      55.971   9.047  28.577  1.00  0.00     0.064 A 
ENDROOT
BRANCH   8  15
HETATM   15  N5  UNL     1      59.164   8.795  27.116  1.00  0.00    -0.354 N 
HETATM   16  C9  UNL     1      60.167   8.999  26.234  1.00  0.00     0.063 C 
ATOM     17  H5  UNL     1      59.642   8.769  28.017  1.00  0.00     0.166 HD
BRANCH  16  18
HETATM   18  C10 UNL     1      61.572   9.108  26.819  1.00  0.00     0.055 C 
BRANCH  18  19
HETATM   19  C11 UNL     1      61.414   9.839  28.135  1.00  0.00     0.083 C 
BRANCH  19  20
HETATM   20  S1  UNL     1      62.062   8.945  29.543  1.00  0.00    -0.110 SA
BRANCH  20  21
HETATM   21  C12 UNL     1      60.884   8.941  30.907  1.00  0.00     0.380 C 
BRANCH  21  22
HETATM   22  N6  UNL     1      59.698   8.165  30.621  1.00  0.00    -0.044 N 
ATOM     23  H63 UNL     1      59.138   8.610  29.893  1.00  0.00     0.278 HD
ATOM     24  H62 UNL     1      59.935   7.298  30.140  1.00  0.00     0.278 HD
ATOM     25  H61 UNL     1      59.137   7.980  31.452  1.00  0.00     0.278 HD
ENDBRANCH  21  22
BRANCH  21  26
HETATM   26  O1  UNL     1      60.476  10.239  31.230  1.00  0.00    -0.362 OA
ATOM     27  H1  UNL     1      59.794  10.543  30.643  1.00  0.00     0.213 HD
ENDBRANCH  21  26
ENDBRANCH  20  21
ENDBRANCH  19  20
ENDBRANCH  18  19
ENDBRANCH  16  18
ENDBRANCH   8  15
BRANCH  11  28
HETATM   28  C14 UNL     1      55.331   6.223  26.245  1.00  0.00     0.307 C 
BRANCH  28  29
HETATM   29  O2  UNL     1      56.321   5.528  25.511  1.00  0.00    -0.366 OA
ATOM     30  H2  UNL     1      55.869   4.842  25.034  1.00  0.00     0.213 HD
ENDBRANCH  28  29
BRANCH  28  31
HETATM   31  O3  UNL     1      54.783   5.284  27.110  1.00  0.00    -0.366 OA
ATOM     32  H3  UNL     1      54.108   4.762  26.692  1.00  0.00     0.213 HD
ENDBRANCH  28  31
ENDBRANCH  11  28
BRANCH   4  33
HETATM   33  C3  UNL     1      57.846  12.155  30.679  1.00  0.00    -0.030 C 
BRANCH  33  34
HETATM   34  C4  UNL     1      58.392  13.054  31.272  1.00  0.00    -0.097 C 
BRANCH  34  35
HETATM   35  C5  UNL     1      59.075  14.140  31.975  1.00  0.00     0.121 C 
BRANCH  35  36
HETATM   36  C6  UNL     1      58.023  15.155  32.425  1.00  0.00     0.241 C 
BRANCH  36  37
HETATM   37  N3  UNL     1      58.679  16.279  33.069  1.00  0.00    -0.079 N 
ATOM     38  H33 UNL     1      58.667  17.117  32.487  1.00  0.00     0.274 HD
ATOM     39  H32 UNL     1      58.140  16.640  33.856  1.00  0.00     0.274 HD
ATOM     40  H31 UNL     1      59.625  16.011  33.340  1.00  0.00     0.274 HD
ENDBRANCH  36  37
ENDBRANCH  35  36
ENDBRANCH  34  35
ENDBRANCH  33  34
ENDBRANCH   4  33
BRANCH   1  41
HETATM   41  N1  UNL     1      54.035   9.493  29.725  1.00  0.00    -0.385 N 
ATOM     42  H12 UNL     1      53.593   9.825  30.583  1.00  0.00     0.157 HD
ATOM     43  H11 UNL     1      53.466   8.946  29.080  1.00  0.00     0.157 HD
ENDBRANCH   1  41
TORSDOF 16
ENDMDL
MODEL 3
REMARK VINA RESULT: -1.156321568      3.673      7.638
REMARK  16 active torsions:
REMARK  status: ('A' for Active; 'I' for Inactive)
REMARK    1  A    between atoms: N1_1  and  C1_4 
REMARK    2  A    between atoms: C2_7  and  C3_8 
REMARK    3  A    between atoms: C3_8  and  C4_9 
REMARK    4  A    between atoms: C4_9  and  C5_10 
REMARK    5  A    between atoms: C5_10  and  C6_11 
REMARK    6  A    between atoms: C6_11  and  N3_12 
REMARK    7  A    between atoms: C8_19  and  N5_20 
REMARK    8  A    between atoms: C9_22  and  C10_23 
REMARK    9  A    between atoms: C10_23  and  C11_24 
REMARK   10  A    between atoms: C11_24  and  S1_25 
REMARK   11  A    between atoms: S1_25  and  C12_26 
REMARK   12  A    between atoms: C12_26  and  N6_27 
REMARK   13  A    between atoms: C12_26  and  O1_31 
REMARK   14  A    between atoms: C13_35  and  C14_36 
REMARK   15  A    between atoms: C14_36  and  O2_37 
REMARK   16  A    between atoms: C14_36  and  O3_39 
ROOT
HETATM    1  C1  UNL     1      59.277   8.346  29.459  1.00  0.00     0.115 A 
HETATM    2  N2  UNL     1      58.717   7.467  28.623  1.00  0.00    -0.321 N 
ATOM      3  H2  UNL     1      59.140   6.541  28.550  1.00  0.00     0.169 HD
HETATM    4  C2  UNL     1      57.634   7.722  27.871  1.00  0.00     0.163 A 
HETATM    5  N4  UNL     1      57.066   8.934  27.954  1.00  0.00    -0.331 N 
ATOM      6  H4  UNL     1      56.242   9.150  27.392  1.00  0.00     0.168 HD
HETATM    7  C7  UNL     1      57.579   9.861  28.775  1.00  0.00     0.095 A 
HETATM    8  C8  UNL     1      57.015  11.131  28.885  1.00  0.00     0.133 A 
HETATM    9  N7  UNL     1      57.602  12.031  29.753  1.00  0.00    -0.338 N 
ATOM     10  H7  UNL     1      57.188  12.960  29.834  1.00  0.00     0.167 HD
HETATM   11  C13 UNL     1      58.672  11.759  30.487  1.00  0.00     0.091 A 
HETATM   12  C15 UNL     1      59.267  10.519  30.413  1.00  0.00     0.090 A 
HETATM   13  N8  UNL     1      60.409  10.206  31.195  1.00  0.00    -0.099 NA
HETATM   14  C16 UNL     1      58.700   9.601  29.555  1.00  0.00     0.064 A 
ENDROOT
BRANCH   8  15
HETATM   15  N5  UNL     1      56.034  11.505  28.269  1.00  0.00    -0.354 N 
HETATM   16  C9  UNL     1      54.788  11.342  27.770  1.00  0.00     0.063 C 
ATOM     17  H5  UNL     1      56.288  12.446  27.967  1.00  0.00     0.166 HD
BRANCH  16  18
HETATM   18  C10 UNL     1      54.217  12.514  26.978  1.00  0.00     0.055 C 
BRANCH  18  19
HETATM   19  C11 UNL     1      55.390  13.125  26.243  1.00  0.00     0.083 C 
BRANCH  19  20
HETATM   20  S1  UNL     1      55.060  13.476  24.519  1.00  0.00    -0.110 SA
BRANCH  20  21
HETATM   21  C12 UNL     1      56.593  13.719  23.602  1.00  0.00     0.380 C 
BRANCH  21  22
HETATM   22  N6  UNL     1      56.739  15.068  23.101  1.00  0.00    -0.044 N 
ATOM     23  H63 UNL     1      56.314  15.741  23.738  1.00  0.00     0.278 HD
ATOM     24  H62 UNL     1      57.710  15.375  23.159  1.00  0.00     0.278 HD
ATOM     25  H61 UNL     1      56.377  15.180  22.155  1.00  0.00     0.278 HD
ENDBRANCH  21  22
BRANCH  21  26
HETATM   26  O1  UNL     1      56.675  12.849  22.510  1.00  0.00    -0.362 OA
ATOM     27  H1  UNL     1      56.909  11.971  22.785  1.00  0.00     0.213 HD
ENDBRANCH  21  26
ENDBRANCH  20  21
ENDBRANCH  19  20
ENDBRANCH  18  19
ENDBRANCH  16  18
ENDBRANCH   8  15
BRANCH  11  28
HETATM   28  C14 UNL     1      59.285  12.765  31.416  1.00  0.00     0.307 C 
BRANCH  28  29
HETATM   29  O2  UNL     1      59.034  14.038  30.852  1.00  0.00    -0.366 OA
ATOM     30  H2  UNL     1      59.465  14.048  30.006  1.00  0.00     0.213 HD
ENDBRANCH  28  29
BRANCH  28  31
HETATM   31  O3  UNL     1      58.663  12.780  32.658  1.00  0.00    -0.366 OA
ATOM     32  H3  UNL     1      59.277  12.637  33.368  1.00  0.00     0.213 HD
ENDBRANCH  28  31
ENDBRANCH  11  28
BRANCH   4  33
HETATM   33  C3  UNL     1      57.080   6.713  26.979  1.00  0.00    -0.030 C 
BRANCH  33  34
HETATM   34  C4  UNL     1      56.637   5.862  26.247  1.00  0.00    -0.097 C 
BRANCH  34  35
HETATM   35  C5  UNL     1      56.086   4.820  25.380  1.00  0.00     0.121 C 
BRANCH  35  36
HETATM   36  C6  UNL     1      55.028   4.049  26.171  1.00  0.00     0.241 C 
BRANCH  36  37
HETATM   37  N3  UNL     1      54.163   4.987  26.864  1.00  0.00    -0.079 N 
ATOM     38  H33 UNL     1      54.630   5.874  27.054  1.00  0.00     0.274 HD
ATOM     39  H32 UNL     1      53.418   5.340  26.263  1.00  0.00     0.274 HD
ATOM     40  H31 UNL     1      53.800   4.552  27.712  1.00  0.00     0.274 HD
ENDBRANCH  36  37
ENDBRANCH  35  36
ENDBRANCH  34  35
ENDBRANCH  33  34
ENDBRANCH   4  33
BRANCH   1  41
HETATM   41  N1  UNL     1      60.313   8.088  30.169  1.00  0.00    -0.385 N 
ATOM     42  H12 UNL     1      61.033   7.476  29.783  1.00  0.00     0.157 HD
ATOM     43  H11 UNL     1      60.461   8.462  31.107  1.00  0.00     0.157 HD
ENDBRANCH   1  41
TORSDOF 16
ENDMDL
MODEL 4
REMARK VINA RESULT: -0.836466832      2.987      7.812
REMARK  16 active torsions:
REMARK  status: ('A' for Active; 'I' for Inactive)
REMARK    1  A    between atoms: N1_1  and  C1_4 
REMARK    2  A    between atoms: C2_7  and  C3_8 
REMARK    3  A    between atoms: C3_8  and  C4_9 
REMARK    4  A    between atoms: C4_9  and  C5_10 
REMARK    5  A    between atoms: C5_10  and  C6_11 
REMARK    6  A    between atoms: C6_11  and  N3_12 
REMARK    7  A    between atoms: C8_19  and  N5_20 
REMARK    8  A    between atoms: C9_22  and  C10_23 
REMARK    9  A    between atoms: C10_23  and  C11_24 
REMARK   10  A    between atoms: C11_24  and  S1_25 
REMARK   11  A    between atoms: S1_25  and  C12_26 
REMARK   12  A    between atoms: C12_26  and  N6_27 
REMARK   13  A    between atoms: C12_26  and  O1_31 
REMARK   14  A    between atoms: C13_35  and  C14_36 
REMARK   15  A    between atoms: C14_36  and  O2_37 
REMARK   16  A    between atoms: C14_36  and  O3_39 
ROOT
HETATM    1  C1  UNL     1      59.369   8.476  29.596  1.00  0.00     0.115 A 
HETATM    2  N2  UNL     1      58.783   7.636  28.737  1.00  0.00    -0.321 N 
ATOM      3  H2  UNL     1      59.132   6.679  28.692  1.00  0.00     0.169 HD
HETATM    4  C2  UNL     1      57.762   7.970  27.931  1.00  0.00     0.163 A 
HETATM    5  N4  UNL     1      57.290   9.224  27.977  1.00  0.00    -0.331 N 
ATOM      6  H4  UNL     1      56.516   9.500  27.373  1.00  0.00     0.168 HD
HETATM    7  C7  UNL     1      57.836  10.115  28.818  1.00  0.00     0.095 A 
HETATM    8  C8  UNL     1      57.370  11.428  28.891  1.00  0.00     0.133 A 
HETATM    9  N7  UNL     1      57.985  12.287  29.782  1.00  0.00    -0.338 N 
ATOM     10  H7  UNL     1      57.643  13.246  29.837  1.00  0.00     0.167 HD
HETATM   11  C13 UNL     1      58.991  11.937  30.570  1.00  0.00     0.091 A 
HETATM   12  C15 UNL     1      59.487  10.652  30.535  1.00  0.00     0.090 A 
HETATM   13  N8  UNL     1      60.560  10.257  31.375  1.00  0.00    -0.099 NA
HETATM   14  C16 UNL     1      58.892   9.774  29.654  1.00  0.00     0.064 A 
ENDROOT
BRANCH   8  15
HETATM   15  N5  UNL     1      56.455  11.873  28.224  1.00  0.00    -0.354 N 
HETATM   16  C9  UNL     1      55.909  12.768  27.371  1.00  0.00     0.063 C 
ATOM     17  H5  UNL     1      55.690  11.222  28.405  1.00  0.00     0.166 HD
BRANCH  16  18
HETATM   18  C10 UNL     1      54.448  12.539  26.993  1.00  0.00     0.055 C 
BRANCH  18  19
HETATM   19  C11 UNL     1      54.283  11.039  26.875  1.00  0.00     0.083 C 
BRANCH  19  20
HETATM   20  S1  UNL     1      53.884  10.230  28.421  1.00  0.00    -0.110 SA
BRANCH  20  21
HETATM   21  C12 UNL     1      54.098   8.445  28.293  1.00  0.00     0.380 C 
BRANCH  21  22
HETATM   22  N6  UNL     1      53.612   7.911  27.041  1.00  0.00    -0.044 N 
ATOM     23  H63 UNL     1      53.242   8.653  26.446  1.00  0.00     0.278 HD
ATOM     24  H62 UNL     1      54.384   7.597  26.453  1.00  0.00     0.278 HD
ATOM     25  H61 UNL     1      52.925   7.168  27.168  1.00  0.00     0.278 HD
ENDBRANCH  21  22
BRANCH  21  26
HETATM   26  O1  UNL     1      53.433   7.778  29.327  1.00  0.00    -0.362 OA
ATOM     27  H1  UNL     1      53.511   8.249  30.148  1.00  0.00     0.213 HD
ENDBRANCH  21  26
ENDBRANCH  20  21
ENDBRANCH  19  20
ENDBRANCH  18  19
ENDBRANCH  16  18
ENDBRANCH   8  15
BRANCH  11  28
HETATM   28  C14 UNL     1      59.637  12.900  31.523  1.00  0.00     0.307 C 
BRANCH  28  29
HETATM   29  O2  UNL     1      59.347  14.198  31.039  1.00  0.00    -0.366 OA
ATOM     30  H2  UNL     1      60.152  14.530  30.660  1.00  0.00     0.213 HD
ENDBRANCH  28  29
BRANCH  28  31
HETATM   31  O3  UNL     1      59.072  12.842  32.790  1.00  0.00    -0.366 OA
ATOM     32  H3  UNL     1      58.175  12.532  32.770  1.00  0.00     0.213 HD
ENDBRANCH  28  31
ENDBRANCH  11  28
BRANCH   4  33
HETATM   33  C3  UNL     1      57.174   6.999  27.018  1.00  0.00    -0.030 C 
BRANCH  33  34
HETATM   34  C4  UNL     1      56.690   6.179  26.277  1.00  0.00    -0.097 C 
BRANCH  34  35
HETATM   35  C5  UNL     1      56.103   5.203  25.358  1.00  0.00     0.121 C 
BRANCH  35  36
HETATM   36  C6  UNL     1      55.537   4.048  26.185  1.00  0.00     0.241 C 
BRANCH  36  37
HETATM   37  N3  UNL     1      54.317   4.477  26.844  1.00  0.00    -0.079 N 
ATOM     38  H33 UNL     1      53.866   5.251  26.355  1.00  0.00     0.274 HD
ATOM     39  H32 UNL     1      53.567   3.791  26.752  1.00  0.00     0.274 HD
ATOM     40  H31 UNL     1      54.517   4.701  27.819  1.00  0.00     0.274 HD
ENDBRANCH  36  37
ENDBRANCH  35  36
ENDBRANCH  34  35
ENDBRANCH  33  34
ENDBRANCH   4  33
BRANCH   1  41
HETATM   41  N1  UNL     1      60.345   8.143  30.359  1.00  0.00    -0.385 N 
ATOM     42  H12 UNL     1      60.830   7.264  30.179  1.00  0.00     0.157 HD
ATOM     43  H11 UNL     1      60.666   8.710  31.143  1.00  0.00     0.157 HD
ENDBRANCH   1  41
TORSDOF 16
ENDMDL
MODEL 5
REMARK VINA RESULT: -0.551278379      2.768      6.393
REMARK  16 active torsions:
REMARK  status: ('A' for Active; 'I' for Inactive)
REMARK    1  A    between atoms: N1_1  and  C1_4 
REMARK    2  A    between atoms: C2_7  and  C3_8 
REMARK    3  A    between atoms: C3_8  and  C4_9 
REMARK    4  A    between atoms: C4_9  and  C5_10 
REMARK    5  A    between atoms: C5_10  and  C6_11 
REMARK    6  A    between atoms: C6_11  and  N3_12 
REMARK    7  A    between atoms: C8_19  and  N5_20 
REMARK    8  A    between atoms: C9_22  and  C10_23 
REMARK    9  A    between atoms: C10_23  and  C11_24 
REMARK   10  A    between atoms: C11_24  and  S1_25 
REMARK   11  A    between atoms: S1_25  and  C12_26 
REMARK   12  A    between atoms: C12_26  and  N6_27 
REMARK   13  A    between atoms: C12_26  and  O1_31 
REMARK   14  A    between atoms: C13_35  and  C14_36 
REMARK   15  A    between atoms: C14_36  and  O2_37 
REMARK   16  A    between atoms: C14_36  and  O3_39 
ROOT
HETATM    1  C1  UNL     1      54.406   9.632  27.036  1.00  0.00     0.115 A 
HETATM    2  N2  UNL     1      54.304   8.316  26.823  1.00  0.00    -0.321 N 
ATOM      3  H2  UNL     1      53.478   7.975  26.332  1.00  0.00     0.169 HD
HETATM    4  C2  UNL     1      55.219   7.413  27.213  1.00  0.00     0.163 A 
HETATM    5  N4  UNL     1      56.311   7.845  27.860  1.00  0.00    -0.331 N 
ATOM      6  H4  UNL     1      57.019   7.177  28.166  1.00  0.00     0.168 HD
HETATM    7  C7  UNL     1      56.474   9.153  28.105  1.00  0.00     0.095 A 
HETATM    8  C8  UNL     1      57.597   9.636  28.776  1.00  0.00     0.133 A 
HETATM    9  N7  UNL     1      57.691  10.998  28.990  1.00  0.00    -0.338 N 
ATOM     10  H7  UNL     1      58.513  11.350  29.479  1.00  0.00     0.167 HD
HETATM   11  C13 UNL     1      56.776  11.872  28.596  1.00  0.00     0.091 A 
HETATM   12  C15 UNL     1      55.648  11.445  27.930  1.00  0.00     0.090 A 
HETATM   13  N8  UNL     1      54.661  12.366  27.496  1.00  0.00    -0.099 NA
HETATM   14  C16 UNL     1      55.529  10.090  27.703  1.00  0.00     0.064 A 
ENDROOT
BRANCH   8  15
HETATM   15  N5  UNL     1      58.506   8.939  29.187  1.00  0.00    -0.354 N 
HETATM   16  C9  UNL     1      59.003   7.830  29.780  1.00  0.00     0.063 C 
ATOM     17  H5  UNL     1      59.340   9.484  28.966  1.00  0.00     0.166 HD
BRANCH  16  18
HETATM   18  C10 UNL     1      60.521   7.761  29.921  1.00  0.00     0.055 C 
BRANCH  18  19
HETATM   19  C11 UNL     1      61.062   8.929  29.126  1.00  0.00     0.083 C 
BRANCH  19  20
HETATM   20  S1  UNL     1      60.973   8.703  27.353  1.00  0.00    -0.110 SA
BRANCH  20  21
HETATM   21  C12 UNL     1      60.777  10.282  26.507  1.00  0.00     0.380 C 
BRANCH  21  22
HETATM   22  N6  UNL     1      61.978  11.087  26.537  1.00  0.00    -0.044 N 
ATOM     23  H63 UNL     1      62.514  10.910  27.387  1.00  0.00     0.278 HD
ATOM     24  H62 UNL     1      62.653  10.763  25.845  1.00  0.00     0.278 HD
ATOM     25  H61 UNL     1      61.790  12.083  26.425  1.00  0.00     0.278 HD
ENDBRANCH  21  22
BRANCH  21  26
HETATM   26  O1  UNL     1      59.744  11.037  27.071  1.00  0.00    -0.362 OA
ATOM     27  H1  UNL     1      59.805  11.051  28.019  1.00  0.00     0.213 HD
ENDBRANCH  21  26
ENDBRANCH  20  21
ENDBRANCH  19  20
ENDBRANCH  18  19
ENDBRANCH  16  18
ENDBRANCH   8  15
BRANCH  11  28
HETATM   28  C14 UNL     1      56.912  13.344  28.851  1.00  0.00     0.307 C 
BRANCH  28  29
HETATM   29  O2  UNL     1      58.209  13.543  29.378  1.00  0.00    -0.366 OA
ATOM     30  H2  UNL     1      58.746  12.834  29.046  1.00  0.00     0.213 HD
ENDBRANCH  28  29
BRANCH  28  31
HETATM   31  O3  UNL     1      56.870  14.086  27.678  1.00  0.00    -0.366 OA
ATOM     32  H3  UNL     1      56.745  15.013  27.843  1.00  0.00     0.213 HD
ENDBRANCH  28  31
ENDBRANCH  11  28
BRANCH   4  33
HETATM   33  C3  UNL     1      55.038   5.993  26.948  1.00  0.00    -0.030 C 
BRANCH  33  34
HETATM   34  C4  UNL     1      54.902   4.818  26.711  1.00  0.00    -0.097 C 
BRANCH  34  35
HETATM   35  C5  UNL     1      54.738   3.398  26.398  1.00  0.00     0.121 C 
BRANCH  35  36
HETATM   36  C6  UNL     1      55.159   3.176  24.945  1.00  0.00     0.241 C 
BRANCH  36  37
HETATM   37  N3  UNL     1      56.569   3.491  24.796  1.00  0.00    -0.079 N 
ATOM     38  H33 UNL     1      57.150   2.653  24.762  1.00  0.00     0.274 HD
ATOM     39  H32 UNL     1      56.786   3.857  23.869  1.00  0.00     0.274 HD
ATOM     40  H31 UNL     1      56.855   4.129  25.539  1.00  0.00     0.274 HD
ENDBRANCH  36  37
ENDBRANCH  35  36
ENDBRANCH  34  35
ENDBRANCH  33  34
ENDBRANCH   4  33
BRANCH   1  41
HETATM   41  N1  UNL     1      53.523  10.481  26.659  1.00  0.00    -0.385 N 
ATOM     42  H12 UNL     1      53.096  11.089  27.359  1.00  0.00     0.157 HD
ATOM     43  H11 UNL     1      53.218  10.585  25.692  1.00  0.00     0.157 HD
ENDBRANCH   1  41
TORSDOF 16
ENDMDL
