MODEL 1
REMARK VINA RESULT: -4.453542308      0.000      0.000
REMARK  11 active torsions:
REMARK  status: ('A' for Active; 'I' for Inactive)
REMARK    1  A    between atoms: C4_4  and  C5_5 
REMARK    2  A    between atoms: C5_5  and  O1_6 
REMARK    3  A    between atoms: C5_5  and  O2_8 
REMARK    4  A    between atoms: N2_13  and  N3_15 
REMARK    5  A    between atoms: C9_20  and  N4_21 
REMARK    6  A    between atoms: N5_24  and  O3_25 
REMARK    7  A    between atoms: C11_28  and  C12_29 
REMARK    8  A    between atoms: C12_29  and  N6_30 
REMARK    9  A    between atoms: C13_32  and  C14_33 
REMARK   10  A    between atoms: C14_33  and  N7_34 
REMARK   11  A    between atoms: N7_34  and  C15_36 
ROOT
HETATM    1  C1  UNL     1      57.383  11.870  30.463  1.00  0.00     0.018 C 
HETATM    2  C2  UNL     1      57.161  10.865  29.889  1.00  0.00    -0.073 C 
HETATM    3  C3  UNL     1      56.921   9.646  29.181  1.00  0.00     0.073 C 
HETATM    4  C4  UNL     1      55.598   9.412  28.781  1.00  0.00     0.087 C 
HETATM    5  N1  UNL     1      55.095   8.229  28.436  1.00  0.00    -0.338 N 
ATOM      6  H1  UNL     1      54.135   8.042  28.724  1.00  0.00     0.167 HD
HETATM    7  C6  UNL     1      55.728   7.231  27.732  1.00  0.00     0.150 C 
HETATM    8  N2  UNL     1      55.017   6.328  27.167  1.00  0.00    -0.290 N 
ATOM      9  H2  UNL     1      55.531   5.618  26.644  1.00  0.00     0.188 HD
HETATM   10  C7  UNL     1      57.076   7.046  27.534  1.00  0.00     0.119 A 
HETATM   11  C8  UNL     1      58.113   7.779  28.051  1.00  0.00     0.123 A 
HETATM   12  C9  UNL     1      58.006   8.825  28.977  1.00  0.00     0.079 C 
HETATM   13  N5  UNL     1      59.266   7.256  27.623  1.00  0.00    -0.201 N 
HETATM   14  C10 UNL     1      58.908   6.180  26.841  1.00  0.00     0.166 A 
HETATM   15  C11 UNL     1      59.499   5.129  26.193  1.00  0.00     0.075 A 
HETATM   16  N8  UNL     1      58.528   4.376  25.749  1.00  0.00    -0.351 N 
ATOM     17  H8  UNL     1      58.656   3.511  25.224  1.00  0.00     0.166 HD
HETATM   18  C17 UNL     1      57.344   4.898  26.080  1.00  0.00     0.191 A 
HETATM   19  N9  UNL     1      57.594   6.043  26.777  1.00  0.00    -0.284 N 
ENDROOT
BRANCH   4  20
HETATM   20  C5  UNL     1      54.748  10.604  28.654  1.00  0.00     0.306 C 
BRANCH  20  21
HETATM   21  O1  UNL     1      53.489  10.265  28.124  1.00  0.00    -0.366 OA
ATOM     22  H1  UNL     1      52.794  10.707  28.599  1.00  0.00     0.213 HD
ENDBRANCH  20  21
BRANCH  20  23
HETATM   23  O2  UNL     1      55.309  11.360  27.527  1.00  0.00    -0.366 OA
ATOM     24  H2  UNL     1      54.586  11.481  26.923  1.00  0.00     0.213 HD
ENDBRANCH  20  23
ENDBRANCH   4  20
BRANCH  12  25
HETATM   25  N4  UNL     1      59.015   8.960  29.719  1.00  0.00    -0.396 N 
ATOM     26  H42 UNL     1      59.852   8.488  29.377  1.00  0.00     0.156 HD
ATOM     27  H41 UNL     1      58.914   9.476  30.594  1.00  0.00     0.156 HD
ENDBRANCH  12  25
BRANCH  13  28
HETATM   28  O3  UNL     1      60.518   7.691  27.953  1.00  0.00    -0.281 OA
ATOM     29  H3  UNL     1      61.275   7.141  28.120  1.00  0.00     0.245 HD
ENDBRANCH  13  28
BRANCH   8  30
HETATM   30  N3  UNL     1      53.633   6.192  27.177  1.00  0.00    -0.344 N 
ATOM     31  H32 UNL     1      53.127   6.948  26.717  1.00  0.00     0.176 HD
ATOM     32  H31 UNL     1      53.076   5.440  27.582  1.00  0.00     0.176 HD
ENDBRANCH   8  30
BRANCH  15  33
HETATM   33  C12 UNL     1      60.962   4.990  25.886  1.00  0.00     0.180 C 
BRANCH  33  34
HETATM   34  N6  UNL     1      61.401   6.199  25.281  1.00  0.00    -0.392 N 
HETATM   35  C13 UNL     1      62.482   6.415  24.526  1.00  0.00     0.100 C 
ATOM     36  H6  UNL     1      60.811   7.013  25.447  1.00  0.00     0.159 HD
BRANCH  35  37
HETATM   37  C14 UNL     1      62.740   5.896  23.170  1.00  0.00     0.103 C 
BRANCH  37  38
HETATM   38  N7  UNL     1      61.691   5.918  22.241  1.00  0.00    -0.378 N 
ATOM     39  H7  UNL     1      60.761   6.202  22.551  1.00  0.00     0.164 HD
BRANCH  38  40
HETATM   40  C15 UNL     1      61.882   5.564  20.903  1.00  0.00     0.056 C 
HETATM   41  C16 UNL     1      60.659   5.224  20.120  1.00  0.00     0.054 C 
ENDBRANCH  38  40
ENDBRANCH  37  38
ENDBRANCH  35  37
ENDBRANCH  33  34
ENDBRANCH  15  33
TORSDOF 11
ENDMDL
MODEL 2
REMARK VINA RESULT: -4.024753396      2.470      3.610
REMARK  11 active torsions:
REMARK  status: ('A' for Active; 'I' for Inactive)
REMARK    1  A    between atoms: C4_4  and  C5_5 
REMARK    2  A    between atoms: C5_5  and  O1_6 
REMARK    3  A    between atoms: C5_5  and  O2_8 
REMARK    4  A    between atoms: N2_13  and  N3_15 
REMARK    5  A    between atoms: C9_20  and  N4_21 
REMARK    6  A    between atoms: N5_24  and  O3_25 
REMARK    7  A    between atoms: C11_28  and  C12_29 
REMARK    8  A    between atoms: C12_29  and  N6_30 
REMARK    9  A    between atoms: C13_32  and  C14_33 
REMARK   10  A    between atoms: C14_33  and  N7_34 
REMARK   11  A    between atoms: N7_34  and  C15_36 
ROOT
HETATM    1  C1  UNL     1      54.705  12.623  27.204  1.00  0.00     0.018 C 
HETATM    2  C2  UNL     1      55.434  11.802  27.632  1.00  0.00    -0.073 C 
HETATM    3  C3  UNL     1      56.334  10.806  28.124  1.00  0.00     0.073 C 
HETATM    4  C4  UNL     1      55.851   9.993  29.160  1.00  0.00     0.087 C 
HETATM    5  N1  UNL     1      56.603   9.263  29.981  1.00  0.00    -0.338 N 
ATOM      6  H1  UNL     1      56.294   9.209  30.951  1.00  0.00     0.167 HD
HETATM    7  C6  UNL     1      57.751   8.575  29.665  1.00  0.00     0.150 C 
HETATM    8  N2  UNL     1      58.147   7.642  30.447  1.00  0.00    -0.290 N 
ATOM      9  H2  UNL     1      58.994   7.150  30.162  1.00  0.00     0.188 HD
HETATM   10  C7  UNL     1      58.580   8.746  28.581  1.00  0.00     0.119 A 
HETATM   11  C8  UNL     1      58.493   9.693  27.593  1.00  0.00     0.123 A 
HETATM   12  C9  UNL     1      57.579  10.754  27.542  1.00  0.00     0.079 C 
HETATM   13  N5  UNL     1      59.506   9.519  26.739  1.00  0.00    -0.201 N 
HETATM   14  C10 UNL     1      60.218   8.449  27.235  1.00  0.00     0.166 A 
HETATM   15  C11 UNL     1      61.393   7.788  26.996  1.00  0.00     0.075 A 
HETATM   16  N8  UNL     1      61.534   6.924  27.966  1.00  0.00    -0.351 N 
ATOM     17  H8  UNL     1      62.321   6.283  28.064  1.00  0.00     0.166 HD
HETATM   18  C17 UNL     1      60.502   6.999  28.811  1.00  0.00     0.191 A 
HETATM   19  N9  UNL     1      59.671   7.973  28.341  1.00  0.00    -0.284 N 
ENDROOT
BRANCH   4  20
HETATM   20  C5  UNL     1      54.388   9.887  29.262  1.00  0.00     0.306 C 
BRANCH  20  21
HETATM   21  O1  UNL     1      54.023   8.994  30.287  1.00  0.00    -0.366 OA
ATOM     22  H1  UNL     1      53.085   8.844  30.283  1.00  0.00     0.213 HD
ENDBRANCH  20  21
BRANCH  20  23
HETATM   23  O2  UNL     1      53.974   9.115  28.084  1.00  0.00    -0.366 OA
ATOM     24  H2  UNL     1      53.926   8.214  28.381  1.00  0.00     0.213 HD
ENDBRANCH  20  23
ENDBRANCH   4  20
BRANCH  12  25
HETATM   25  N4  UNL     1      58.003  11.770  26.931  1.00  0.00    -0.396 N 
ATOM     26  H42 UNL     1      58.306  11.586  25.974  1.00  0.00     0.156 HD
ATOM     27  H41 UNL     1      58.051  12.658  27.431  1.00  0.00     0.156 HD
ENDBRANCH  12  25
BRANCH  13  28
HETATM   28  O3  UNL     1      59.775  10.289  25.644  1.00  0.00    -0.281 OA
ATOM     29  H3  UNL     1      59.891   9.976  24.754  1.00  0.00     0.245 HD
ENDBRANCH  13  28
BRANCH   8  30
HETATM   30  N3  UNL     1      57.568   7.214  31.637  1.00  0.00    -0.344 N 
ATOM     31  H32 UNL     1      56.668   6.746  31.530  1.00  0.00     0.176 HD
ATOM     32  H31 UNL     1      57.930   7.312  32.585  1.00  0.00     0.176 HD
ENDBRANCH   8  30
BRANCH  15  33
HETATM   33  C12 UNL     1      62.235   7.902  25.758  1.00  0.00     0.180 C 
BRANCH  33  34
HETATM   34  N6  UNL     1      62.095   6.697  25.019  1.00  0.00    -0.392 N 
HETATM   35  C13 UNL     1      61.112   5.794  25.063  1.00  0.00     0.100 C 
ATOM     36  H6  UNL     1      62.850   6.493  24.364  1.00  0.00     0.159 HD
BRANCH  35  37
HETATM   37  C14 UNL     1      59.716   5.974  24.621  1.00  0.00     0.103 C 
BRANCH  37  38
HETATM   38  N7  UNL     1      58.696   5.823  25.571  1.00  0.00    -0.378 N 
ATOM     39  H7  UNL     1      58.514   6.582  26.227  1.00  0.00     0.164 HD
BRANCH  38  40
HETATM   40  C15 UNL     1      57.921   4.663  25.643  1.00  0.00     0.056 C 
HETATM   41  C16 UNL     1      56.481   4.840  25.989  1.00  0.00     0.054 C 
ENDBRANCH  38  40
ENDBRANCH  37  38
ENDBRANCH  35  37
ENDBRANCH  33  34
ENDBRANCH  15  33
TORSDOF 11
ENDMDL
MODEL 3
REMARK VINA RESULT: -3.414822689      2.438      3.043
REMARK  11 active torsions:
REMARK  status: ('A' for Active; 'I' for Inactive)
REMARK    1  A    between atoms: C4_4  and  C5_5 
REMARK    2  A    between atoms: C5_5  and  O1_6 
REMARK    3  A    between atoms: C5_5  and  O2_8 
REMARK    4  A    between atoms: N2_13  and  N3_15 
REMARK    5  A    between atoms: C9_20  and  N4_21 
REMARK    6  A    between atoms: N5_24  and  O3_25 
REMARK    7  A    between atoms: C11_28  and  C12_29 
REMARK    8  A    between atoms: C12_29  and  N6_30 
REMARK    9  A    between atoms: C13_32  and  C14_33 
REMARK   10  A    between atoms: C14_33  and  N7_34 
REMARK   11  A    between atoms: N7_34  and  C15_36 
ROOT
HETATM    1  C1  UNL     1      54.670  12.622  27.165  1.00  0.00     0.018 C 
HETATM    2  C2  UNL     1      55.400  11.807  27.600  1.00  0.00    -0.073 C 
HETATM    3  C3  UNL     1      56.301  10.816  28.101  1.00  0.00     0.073 C 
HETATM    4  C4  UNL     1      55.817  10.005  29.137  1.00  0.00     0.087 C 
HETATM    5  N1  UNL     1      56.568   9.282  29.965  1.00  0.00    -0.338 N 
ATOM      6  H1  UNL     1      56.253   9.230  30.934  1.00  0.00     0.167 HD
HETATM    7  C6  UNL     1      57.720   8.598  29.658  1.00  0.00     0.150 C 
HETATM    8  N2  UNL     1      58.116   7.670  30.446  1.00  0.00    -0.290 N 
ATOM      9  H2  UNL     1      58.967   7.181  30.168  1.00  0.00     0.188 HD
HETATM   10  C7  UNL     1      58.555   8.769  28.578  1.00  0.00     0.119 A 
HETATM   11  C8  UNL     1      58.469   9.712  27.586  1.00  0.00     0.123 A 
HETATM   12  C9  UNL     1      57.550  10.768  27.526  1.00  0.00     0.079 C 
HETATM   13  N5  UNL     1      59.487   9.539  26.738  1.00  0.00    -0.201 N 
HETATM   14  C10 UNL     1      60.202   8.474  27.242  1.00  0.00     0.166 A 
HETATM   15  C11 UNL     1      61.381   7.818  27.012  1.00  0.00     0.075 A 
HETATM   16  N8  UNL     1      61.521   6.959  27.986  1.00  0.00    -0.351 N 
ATOM     17  H8  UNL     1      62.311   6.322  28.092  1.00  0.00     0.166 HD
HETATM   18  C17 UNL     1      60.484   7.032  28.826  1.00  0.00     0.191 A 
HETATM   19  N9  UNL     1      59.651   8.000  28.347  1.00  0.00    -0.284 N 
ENDROOT
BRANCH   4  20
HETATM   20  C5  UNL     1      54.354   9.893  29.231  1.00  0.00     0.306 C 
BRANCH  20  21
HETATM   21  O1  UNL     1      53.988   8.961  30.221  1.00  0.00    -0.366 OA
ATOM     22  H1  UNL     1      54.691   8.844  30.849  1.00  0.00     0.213 HD
ENDBRANCH  20  21
BRANCH  20  23
HETATM   23  O2  UNL     1      53.944   9.165  28.024  1.00  0.00    -0.366 OA
ATOM     24  H2  UNL     1      54.077   8.247  28.228  1.00  0.00     0.213 HD
ENDBRANCH  20  23
ENDBRANCH   4  20
BRANCH  12  25
HETATM   25  N4  UNL     1      57.973  11.784  26.913  1.00  0.00    -0.396 N 
ATOM     26  H42 UNL     1      57.237  12.403  26.574  1.00  0.00     0.156 HD
ATOM     27  H41 UNL     1      58.978  11.886  26.770  1.00  0.00     0.156 HD
ENDBRANCH  12  25
BRANCH  13  28
HETATM   28  O3  UNL     1      59.760  10.306  25.642  1.00  0.00    -0.281 OA
ATOM     29  H3  UNL     1      60.386  11.019  25.599  1.00  0.00     0.245 HD
ENDBRANCH  13  28
BRANCH   8  30
HETATM   30  N3  UNL     1      57.533   7.244  31.635  1.00  0.00    -0.344 N 
ATOM     31  H32 UNL     1      56.533   7.049  31.573  1.00  0.00     0.176 HD
ATOM     32  H31 UNL     1      57.978   7.107  32.542  1.00  0.00     0.176 HD
ENDBRANCH   8  30
BRANCH  15  33
HETATM   33  C12 UNL     1      62.230   7.931  25.779  1.00  0.00     0.180 C 
BRANCH  33  34
HETATM   34  N6  UNL     1      62.199   6.679  25.108  1.00  0.00    -0.392 N 
HETATM   35  C13 UNL     1      61.151   5.894  24.844  1.00  0.00     0.100 C 
ATOM     36  H6  UNL     1      63.101   6.331  24.784  1.00  0.00     0.159 HD
BRANCH  35  37
HETATM   37  C14 UNL     1      60.039   6.174  23.916  1.00  0.00     0.103 C 
BRANCH  37  38
HETATM   38  N7  UNL     1      60.342   6.402  22.568  1.00  0.00    -0.378 N 
ATOM     39  H7  UNL     1      59.719   6.988  22.012  1.00  0.00     0.164 HD
BRANCH  38  40
HETATM   40  C15 UNL     1      61.475   5.852  21.962  1.00  0.00     0.056 C 
HETATM   41  C16 UNL     1      61.343   5.457  20.530  1.00  0.00     0.054 C 
ENDBRANCH  38  40
ENDBRANCH  37  38
ENDBRANCH  35  37
ENDBRANCH  33  34
ENDBRANCH  15  33
TORSDOF 11
ENDMDL
MODEL 4
REMARK VINA RESULT: -3.347118596      2.554      7.368
REMARK  11 active torsions:
REMARK  status: ('A' for Active; 'I' for Inactive)
REMARK    1  A    between atoms: C4_4  and  C5_5 
REMARK    2  A    between atoms: C5_5  and  O1_6 
REMARK    3  A    between atoms: C5_5  and  O2_8 
REMARK    4  A    between atoms: N2_13  and  N3_15 
REMARK    5  A    between atoms: C9_20  and  N4_21 
REMARK    6  A    between atoms: N5_24  and  O3_25 
REMARK    7  A    between atoms: C11_28  and  C12_29 
REMARK    8  A    between atoms: C12_29  and  N6_30 
REMARK    9  A    between atoms: C13_32  and  C14_33 
REMARK   10  A    between atoms: C14_33  and  N7_34 
REMARK   11  A    between atoms: N7_34  and  C15_36 
ROOT
HETATM    1  C1  UNL     1      58.066   3.566  24.514  1.00  0.00     0.018 C 
HETATM    2  C2  UNL     1      58.177   4.379  25.360  1.00  0.00    -0.073 C 
HETATM    3  C3  UNL     1      58.284   5.378  26.378  1.00  0.00     0.073 C 
HETATM    4  C4  UNL     1      59.585   5.729  26.766  1.00  0.00     0.087 C 
HETATM    5  N1  UNL     1      59.909   6.352  27.897  1.00  0.00    -0.338 N 
ATOM      6  H1  UNL     1      60.777   6.056  28.344  1.00  0.00     0.167 HD
HETATM    7  C6  UNL     1      59.204   7.350  28.528  1.00  0.00     0.150 C 
HETATM    8  N2  UNL     1      59.809   8.089  29.380  1.00  0.00    -0.290 N 
ATOM      9  H2  UNL     1      59.248   8.825  29.810  1.00  0.00     0.188 HD
HETATM   10  C7  UNL     1      57.880   7.689  28.375  1.00  0.00     0.119 A 
HETATM   11  C8  UNL     1      56.933   7.066  27.604  1.00  0.00     0.123 A 
HETATM   12  C9  UNL     1      57.106   5.881  26.878  1.00  0.00     0.079 C 
HETATM   13  N5  UNL     1      55.768   7.706  27.752  1.00  0.00    -0.201 N 
HETATM   14  C10 UNL     1      56.026   8.728  28.639  1.00  0.00     0.166 A 
HETATM   15  C11 UNL     1      55.345   9.684  29.342  1.00  0.00     0.075 A 
HETATM   16  N8  UNL     1      56.215  10.247  30.138  1.00  0.00    -0.351 N 
ATOM     17  H8  UNL     1      56.003  11.000  30.793  1.00  0.00     0.166 HD
HETATM   18  C17 UNL     1      57.422   9.698  29.973  1.00  0.00     0.191 A 
HETATM   19  N9  UNL     1      57.293   8.731  29.020  1.00  0.00    -0.284 N 
ENDROOT
BRANCH   4  20
HETATM   20  C5  UNL     1      60.642   5.457  25.782  1.00  0.00     0.306 C 
BRANCH  20  21
HETATM   21  O1  UNL     1      61.513   4.456  26.249  1.00  0.00    -0.366 OA
ATOM     22  H1  UNL     1      61.774   3.879  25.540  1.00  0.00     0.213 HD
ENDBRANCH  20  21
BRANCH  20  23
HETATM   23  O2  UNL     1      61.532   6.624  25.838  1.00  0.00    -0.366 OA
ATOM     24  H2  UNL     1      62.395   6.290  25.624  1.00  0.00     0.213 HD
ENDBRANCH  20  23
ENDBRANCH   4  20
BRANCH  12  25
HETATM   25  N4  UNL     1      56.051   5.206  26.735  1.00  0.00    -0.396 N 
ATOM     26  H42 UNL     1      56.176   4.203  26.869  1.00  0.00     0.156 HD
ATOM     27  H41 UNL     1      55.194   5.689  26.464  1.00  0.00     0.156 HD
ENDBRANCH  12  25
BRANCH  13  28
HETATM   28  O3  UNL     1      54.582   7.361  27.170  1.00  0.00    -0.281 OA
ATOM     29  H3  UNL     1      53.725   7.698  27.404  1.00  0.00     0.245 HD
ENDBRANCH  13  28
BRANCH   8  30
HETATM   30  N3  UNL     1      61.134   8.016  29.794  1.00  0.00    -0.344 N 
ATOM     31  H32 UNL     1      61.541   7.081  29.761  1.00  0.00     0.176 HD
ATOM     32  H31 UNL     1      61.735   8.772  30.121  1.00  0.00     0.176 HD
ENDBRANCH   8  30
BRANCH  15  33
HETATM   33  C12 UNL     1      53.931  10.124  29.095  1.00  0.00     0.180 C 
BRANCH  33  34
HETATM   34  N6  UNL     1      53.855  10.636  27.771  1.00  0.00    -0.392 N 
HETATM   35  C13 UNL     1      54.270  11.816  27.303  1.00  0.00     0.100 C 
ATOM     36  H6  UNL     1      53.423  10.018  27.085  1.00  0.00     0.159 HD
BRANCH  35  37
HETATM   37  C14 UNL     1      55.664  12.283  27.172  1.00  0.00     0.103 C 
BRANCH  37  38
HETATM   38  N7  UNL     1      55.996  13.077  26.066  1.00  0.00    -0.378 N 
ATOM     39  H7  UNL     1      56.819  13.676  26.116  1.00  0.00     0.164 HD
BRANCH  38  40
HETATM   40  C15 UNL     1      55.231  13.070  24.897  1.00  0.00     0.056 C 
HETATM   41  C16 UNL     1      55.914  13.512  23.648  1.00  0.00     0.054 C 
ENDBRANCH  38  40
ENDBRANCH  37  38
ENDBRANCH  35  37
ENDBRANCH  33  34
ENDBRANCH  15  33
TORSDOF 11
ENDMDL
MODEL 5
REMARK VINA RESULT: -3.002040678      1.017      1.194
REMARK  11 active torsions:
REMARK  status: ('A' for Active; 'I' for Inactive)
REMARK    1  A    between atoms: C4_4  and  C5_5 
REMARK    2  A    between atoms: C5_5  and  O1_6 
REMARK    3  A    between atoms: C5_5  and  O2_8 
REMARK    4  A    between atoms: N2_13  and  N3_15 
REMARK    5  A    between atoms: C9_20  and  N4_21 
REMARK    6  A    between atoms: N5_24  and  O3_25 
REMARK    7  A    between atoms: C11_28  and  C12_29 
REMARK    8  A    between atoms: C12_29  and  N6_30 
REMARK    9  A    between atoms: C13_32  and  C14_33 
REMARK   10  A    between atoms: C14_33  and  N7_34 
REMARK   11  A    between atoms: N7_34  and  C15_36 
ROOT
HETATM    1  C1  UNL     1      57.227  11.898  30.232  1.00  0.00     0.018 C 
HETATM    2  C2  UNL     1      56.893  10.895  29.714  1.00  0.00    -0.073 C 
HETATM    3  C3  UNL     1      56.515   9.674  29.072  1.00  0.00     0.073 C 
HETATM    4  C4  UNL     1      55.151   9.520  28.787  1.00  0.00     0.087 C 
HETATM    5  N1  UNL     1      54.544   8.365  28.526  1.00  0.00    -0.338 N 
ATOM      6  H1  UNL     1      53.601   8.253  28.897  1.00  0.00     0.167 HD
HETATM    7  C6  UNL     1      55.049   7.305  27.809  1.00  0.00     0.150 C 
HETATM    8  N2  UNL     1      54.236   6.436  27.336  1.00  0.00    -0.290 N 
ATOM      9  H2  UNL     1      54.657   5.677  26.800  1.00  0.00     0.188 HD
HETATM   10  C7  UNL     1      56.361   7.022  27.511  1.00  0.00     0.119 A 
HETATM   11  C8  UNL     1      57.484   7.697  27.917  1.00  0.00     0.123 A 
HETATM   12  C9  UNL     1      57.523   8.775  28.811  1.00  0.00     0.079 C 
HETATM   13  N5  UNL     1      58.561   7.082  27.417  1.00  0.00    -0.201 N 
HETATM   14  C10 UNL     1      58.068   6.011  26.705  1.00  0.00     0.166 A 
HETATM   15  C11 UNL     1      58.533   4.903  26.049  1.00  0.00     0.075 A 
HETATM   16  N8  UNL     1      57.481   4.205  25.712  1.00  0.00    -0.351 N 
ATOM     17  H8  UNL     1      57.508   3.318  25.210  1.00  0.00     0.166 HD
HETATM   18  C17 UNL     1      56.365   4.818  26.118  1.00  0.00     0.191 A 
HETATM   19  N9  UNL     1      56.747   5.963  26.751  1.00  0.00    -0.284 N 
ENDROOT
BRANCH   4  20
HETATM   20  C5  UNL     1      54.374  10.764  28.686  1.00  0.00     0.306 C 
BRANCH  20  21
HETATM   21  O1  UNL     1      53.089  10.509  28.172  1.00  0.00    -0.366 OA
ATOM     22  H1  UNL     1      52.420  10.853  28.752  1.00  0.00     0.213 HD
ENDBRANCH  20  21
BRANCH  20  23
HETATM   23  O2  UNL     1      54.965  11.498  27.560  1.00  0.00    -0.366 OA
ATOM     24  H2  UNL     1      54.308  12.135  27.306  1.00  0.00     0.213 HD
ENDBRANCH  20  23
ENDBRANCH   4  20
BRANCH  12  25
HETATM   25  N4  UNL     1      58.596   8.863  29.464  1.00  0.00    -0.396 N 
ATOM     26  H42 UNL     1      59.363   8.308  29.084  1.00  0.00     0.156 HD
ATOM     27  H41 UNL     1      58.607   9.426  30.315  1.00  0.00     0.156 HD
ENDBRANCH  12  25
BRANCH  13  28
HETATM   28  O3  UNL     1      59.861   7.440  27.630  1.00  0.00    -0.281 OA
ATOM     29  H3  UNL     1      60.626   7.012  27.263  1.00  0.00     0.245 HD
ENDBRANCH  13  28
BRANCH   8  30
HETATM   30  N3  UNL     1      52.852   6.396  27.462  1.00  0.00    -0.344 N 
ATOM     31  H32 UNL     1      52.378   5.798  26.784  1.00  0.00     0.176 HD
ATOM     32  H31 UNL     1      52.266   6.884  28.139  1.00  0.00     0.176 HD
ENDBRANCH   8  30
BRANCH  15  33
HETATM   33  C12 UNL     1      59.954   4.654  25.631  1.00  0.00     0.180 C 
BRANCH  33  34
HETATM   34  N6  UNL     1      60.337   5.691  24.738  1.00  0.00    -0.392 N 
HETATM   35  C13 UNL     1      61.184   6.703  24.941  1.00  0.00     0.100 C 
ATOM     36  H6  UNL     1      59.906   5.657  23.814  1.00  0.00     0.159 HD
BRANCH  35  37
HETATM   37  C14 UNL     1      62.645   6.620  25.129  1.00  0.00     0.103 C 
BRANCH  37  38
HETATM   38  N7  UNL     1      63.363   5.711  24.340  1.00  0.00    -0.378 N 
ATOM     39  H7  UNL     1      63.740   4.869  24.774  1.00  0.00     0.164 HD
BRANCH  38  40
HETATM   40  C15 UNL     1      63.577   5.927  22.976  1.00  0.00     0.056 C 
HETATM   41  C16 UNL     1      62.450   5.589  22.060  1.00  0.00     0.054 C 
ENDBRANCH  38  40
ENDBRANCH  37  38
ENDBRANCH  35  37
ENDBRANCH  33  34
ENDBRANCH  15  33
TORSDOF 11
ENDMDL
