MODEL 1
REMARK VINA RESULT: -7.192479987      0.000      0.000
REMARK  2 active torsions:
REMARK  status: ('A' for Active; 'I' for Inactive)
REMARK    1  A    between atoms: C2_2  and  C3_3 
REMARK    2  A    between atoms: C23_23  and  C24_24 
ROOT
HETATM    1  C3  UNL     1      41.724  22.011 100.392  1.00  0.00     0.016 C 
HETATM    2  C4  UNL     1      42.012  23.289 101.195  1.00  0.00     0.009 C 
HETATM    3  C5  UNL     1      43.486  23.470 100.778  1.00  0.00     0.006 C 
HETATM    4  C6  UNL     1      43.994  22.067 101.139  1.00  0.00    -0.006 C 
HETATM    5  C7  UNL     1      45.351  21.751 100.696  1.00  0.00     0.006 C 
HETATM    6  C8  UNL     1      46.005  22.788  99.772  1.00  0.00     0.006 C 
HETATM    7  C9  UNL     1      47.212  22.307  99.082  1.00  0.00     0.002 C 
HETATM    8  C10 UNL     1      47.666  20.927  99.409  1.00  0.00     0.006 C 
HETATM    9  C11 UNL     1      47.145  20.029  98.279  1.00  0.00     0.011 C 
HETATM   10  C12 UNL     1      46.625  20.875  97.197  1.00  0.00    -0.026 C 
HETATM   11  C13 UNL     1      45.173  20.886  96.885  1.00  0.00     0.011 C 
HETATM   12  C14 UNL     1      44.234  19.940  97.479  1.00  0.00     0.001 C 
HETATM   13  C15 UNL     1      43.155  20.633  98.338  1.00  0.00     0.001 C 
HETATM   14  C16 UNL     1      43.105  20.123  99.737  1.00  0.00     0.010 C 
HETATM   15  C17 UNL     1      42.895  21.152 100.797  1.00  0.00    -0.034 C 
HETATM   16  C18 UNL     1      42.398  20.364 102.026  1.00  0.00     0.016 C 
HETATM   17  C19 UNL     1      47.238  20.326  95.895  1.00  0.00     0.011 C 
HETATM   18  C20 UNL     1      48.680  20.531  95.728  1.00  0.00     0.001 C 
HETATM   19  C21 UNL     1      48.888  22.057  95.730  1.00  0.00     0.001 C 
HETATM   20  C22 UNL     1      48.621  22.421  97.148  1.00  0.00     0.018 C 
HETATM   21  C23 UNL     1      47.153  22.242  97.559  1.00  0.00     0.024 C 
ENDROOT
BRANCH   1  22
HETATM   22  C2  UNL     1      40.406  21.430 100.767  1.00  0.00    -0.031 C 
HETATM   23  C1  UNL     1      39.383  22.173 101.149  1.00  0.00     0.007 C 
ENDBRANCH   1  22
BRANCH  21  24
HETATM   24  C24 UNL     1      46.465  23.372  96.937  1.00  0.00     0.241 C 
HETATM   25  O1  UNL     1      46.836  24.496  97.152  1.00  0.00    -0.306 OA
ENDBRANCH  21  24
TORSDOF 2
ENDMDL
MODEL 2
REMARK VINA RESULT: -6.370964419      2.704      4.693
REMARK  2 active torsions:
REMARK  status: ('A' for Active; 'I' for Inactive)
REMARK    1  A    between atoms: C2_2  and  C3_3 
REMARK    2  A    between atoms: C23_23  and  C24_24 
ROOT
HETATM    1  C3  UNL     1      44.197  16.572  99.080  1.00  0.00     0.016 C 
HETATM    2  C4  UNL     1      45.400  15.618  99.143  1.00  0.00     0.009 C 
HETATM    3  C5  UNL     1      46.472  16.599  98.627  1.00  0.00     0.006 C 
HETATM    4  C6  UNL     1      45.766  17.046  97.338  1.00  0.00    -0.006 C 
HETATM    5  C7  UNL     1      46.384  18.165  96.631  1.00  0.00     0.006 C 
HETATM    6  C8  UNL     1      47.538  18.859  97.368  1.00  0.00     0.006 C 
HETATM    7  C9  UNL     1      47.919  20.163  96.804  1.00  0.00     0.002 C 
HETATM    8  C10 UNL     1      47.192  20.602  95.580  1.00  0.00     0.006 C 
HETATM    9  C11 UNL     1      46.104  21.573  96.057  1.00  0.00     0.011 C 
HETATM   10  C12 UNL     1      46.338  21.897  97.471  1.00  0.00    -0.026 C 
HETATM   11  C13 UNL     1      45.381  21.444  98.512  1.00  0.00     0.011 C 
HETATM   12  C14 UNL     1      44.090  20.846  98.187  1.00  0.00     0.001 C 
HETATM   13  C15 UNL     1      43.962  19.394  98.694  1.00  0.00     0.001 C 
HETATM   14  C16 UNL     1      43.631  18.424  97.613  1.00  0.00     0.010 C 
HETATM   15  C17 UNL     1      44.337  17.111  97.679  1.00  0.00    -0.034 C 
HETATM   16  C18 UNL     1      43.493  16.159  96.806  1.00  0.00     0.016 C 
HETATM   17  C19 UNL     1      46.243  23.430  97.578  1.00  0.00     0.011 C 
HETATM   18  C20 UNL     1      47.328  24.187  96.946  1.00  0.00     0.001 C 
HETATM   19  C21 UNL     1      48.617  23.751  97.668  1.00  0.00     0.001 C 
HETATM   20  C22 UNL     1      48.805  22.355  97.187  1.00  0.00     0.018 C 
HETATM   21  C23 UNL     1      47.738  21.381  97.704  1.00  0.00     0.024 C 
ENDROOT
BRANCH   1  22
HETATM   22  C2  UNL     1      42.922  15.840  99.308  1.00  0.00    -0.031 C 
HETATM   23  C1  UNL     1      41.843  16.423  99.799  1.00  0.00     0.007 C 
ENDBRANCH   1  22
BRANCH  21  24
HETATM   24  C24 UNL     1      48.105  21.155  99.100  1.00  0.00     0.241 C 
HETATM   25  O1  UNL     1      48.953  20.347  99.378  1.00  0.00    -0.306 OA
ENDBRANCH  21  24
TORSDOF 2
ENDMDL
MODEL 3
REMARK VINA RESULT: -5.870679290      2.897      6.213
REMARK  2 active torsions:
REMARK  status: ('A' for Active; 'I' for Inactive)
REMARK    1  A    between atoms: C2_2  and  C3_3 
REMARK    2  A    between atoms: C23_23  and  C24_24 
ROOT
HETATM    1  C3  UNL     1      47.206  22.518  97.103  1.00  0.00     0.016 C 
HETATM    2  C4  UNL     1      48.187  22.053  96.016  1.00  0.00     0.009 C 
HETATM    3  C5  UNL     1      47.859  20.547  96.068  1.00  0.00     0.006 C 
HETATM    4  C6  UNL     1      48.044  20.329  97.577  1.00  0.00    -0.006 C 
HETATM    5  C7  UNL     1      47.617  19.028  98.087  1.00  0.00     0.006 C 
HETATM    6  C8  UNL     1      46.872  18.135  97.085  1.00  0.00     0.006 C 
HETATM    7  C9  UNL     1      46.171  16.995  97.696  1.00  0.00     0.002 C 
HETATM    8  C10 UNL     1      46.325  16.825  99.168  1.00  0.00     0.006 C 
HETATM    9  C11 UNL     1      45.062  17.427  99.799  1.00  0.00     0.011 C 
HETATM   10  C12 UNL     1      44.086  17.711  98.739  1.00  0.00    -0.026 C 
HETATM   11  C13 UNL     1      43.721  19.112  98.412  1.00  0.00     0.011 C 
HETATM   12  C14 UNL     1      44.141  20.246  99.229  1.00  0.00     0.001 C 
HETATM   13  C15 UNL     1      45.043  21.233  98.458  1.00  0.00     0.001 C 
HETATM   14  C16 UNL     1      46.356  21.467  99.122  1.00  0.00     0.010 C 
HETATM   15  C17 UNL     1      47.537  21.553  98.214  1.00  0.00    -0.034 C 
HETATM   16  C18 UNL     1      48.626  22.266  99.042  1.00  0.00     0.016 C 
HETATM   17  C19 UNL     1      42.747  17.125  99.226  1.00  0.00     0.011 C 
HETATM   18  C20 UNL     1      42.667  15.662  99.280  1.00  0.00     0.001 C 
HETATM   19  C21 UNL     1      42.887  15.178  97.834  1.00  0.00     0.001 C 
HETATM   20  C22 UNL     1      44.329  15.466  97.608  1.00  0.00     0.018 C 
HETATM   21  C23 UNL     1      44.653  16.965  97.555  1.00  0.00     0.024 C 
ENDROOT
BRANCH   1  22
HETATM   22  C2  UNL     1      47.445  23.941  97.465  1.00  0.00    -0.031 C 
HETATM   23  C1  UNL     1      46.481  24.844  97.479  1.00  0.00     0.007 C 
ENDBRANCH   1  22
BRANCH  21  24
HETATM   24  C24 UNL     1      44.164  17.392  96.245  1.00  0.00     0.241 C 
HETATM   25  O1  UNL     1      44.935  17.551  95.336  1.00  0.00    -0.306 OA
ENDBRANCH  21  24
TORSDOF 2
ENDMDL
MODEL 4
REMARK VINA RESULT: -5.280847645      3.125      6.257
REMARK  2 active torsions:
REMARK  status: ('A' for Active; 'I' for Inactive)
REMARK    1  A    between atoms: C2_2  and  C3_3 
REMARK    2  A    between atoms: C23_23  and  C24_24 
ROOT
HETATM    1  C3  UNL     1      48.349  22.335  97.160  1.00  0.00     0.016 C 
HETATM    2  C4  UNL     1      49.016  22.326  98.544  1.00  0.00     0.009 C 
HETATM    3  C5  UNL     1      48.196  21.177  99.164  1.00  0.00     0.006 C 
HETATM    4  C6  UNL     1      46.790  21.718  98.864  1.00  0.00    -0.006 C 
HETATM    5  C7  UNL     1      45.686  20.795  99.123  1.00  0.00     0.006 C 
HETATM    6  C8  UNL     1      46.093  19.358  99.476  1.00  0.00     0.006 C 
HETATM    7  C9  UNL     1      44.994  18.383  99.406  1.00  0.00     0.002 C 
HETATM    8  C10 UNL     1      43.645  18.919  99.069  1.00  0.00     0.006 C 
HETATM    9  C11 UNL     1      43.444  18.653  97.571  1.00  0.00     0.011 C 
HETATM   10  C12 UNL     1      44.517  17.771  97.094  1.00  0.00    -0.026 C 
HETATM   11  C13 UNL     1      45.533  18.276  96.136  1.00  0.00     0.011 C 
HETATM   12  C14 UNL     1      45.416  19.572  95.476  1.00  0.00     0.001 C 
HETATM   13  C15 UNL     1      46.569  20.531  95.840  1.00  0.00     0.001 C 
HETATM   14  C16 UNL     1      46.097  21.825  96.406  1.00  0.00     0.010 C 
HETATM   15  C17 UNL     1      46.893  22.365  97.547  1.00  0.00    -0.034 C 
HETATM   16  C18 UNL     1      46.534  23.863  97.612  1.00  0.00     0.016 C 
HETATM   17  C19 UNL     1      43.825  16.657  96.286  1.00  0.00     0.011 C 
HETATM   18  C20 UNL     1      43.020  15.707  97.060  1.00  0.00     0.001 C 
HETATM   19  C21 UNL     1      43.998  15.030  98.038  1.00  0.00     0.001 C 
HETATM   20  C22 UNL     1      44.311  16.124  98.997  1.00  0.00     0.018 C 
HETATM   21  C23 UNL     1      45.130  17.265  98.378  1.00  0.00     0.024 C 
ENDROOT
BRANCH   1  22
HETATM   22  C2  UNL     1      48.775  23.521  96.369  1.00  0.00    -0.031 C 
HETATM   23  C1  UNL     1      49.407  23.418  95.213  1.00  0.00     0.007 C 
ENDBRANCH   1  22
BRANCH  21  24
HETATM   24  C24 UNL     1      46.480  16.717  98.263  1.00  0.00     0.241 C 
HETATM   25  O1  UNL     1      46.856  15.874  99.034  1.00  0.00    -0.306 OA
ENDBRANCH  21  24
TORSDOF 2
ENDMDL
MODEL 5
REMARK VINA RESULT: -4.530757161      3.068      6.354
REMARK  2 active torsions:
REMARK  status: ('A' for Active; 'I' for Inactive)
REMARK    1  A    between atoms: C2_2  and  C3_3 
REMARK    2  A    between atoms: C23_23  and  C24_24 
ROOT
HETATM    1  C3  UNL     1      48.162  22.605  98.323  1.00  0.00     0.016 C 
HETATM    2  C4  UNL     1      47.047  23.661  98.367  1.00  0.00     0.009 C 
HETATM    3  C5  UNL     1      45.848  22.707  98.189  1.00  0.00     0.006 C 
HETATM    4  C6  UNL     1      46.327  21.980  96.924  1.00  0.00    -0.006 C 
HETATM    5  C7  UNL     1      45.538  20.815  96.526  1.00  0.00     0.006 C 
HETATM    6  C8  UNL     1      44.463  20.369  97.526  1.00  0.00     0.006 C 
HETATM    7  C9  UNL     1      43.918  19.027  97.270  1.00  0.00     0.002 C 
HETATM    8  C10 UNL     1      44.426  18.317  96.063  1.00  0.00     0.006 C 
HETATM    9  C11 UNL     1      45.506  17.348  96.563  1.00  0.00     0.011 C 
HETATM   10  C12 UNL     1      45.463  17.299  98.031  1.00  0.00    -0.026 C 
HETATM   11  C13 UNL     1      46.591  17.838  98.833  1.00  0.00     0.011 C 
HETATM   12  C14 UNL     1      47.856  18.249  98.233  1.00  0.00     0.001 C 
HETATM   13  C15 UNL     1      48.152  19.750  98.440  1.00  0.00     0.001 C 
HETATM   14  C16 UNL     1      48.384  20.481  97.163  1.00  0.00     0.010 C 
HETATM   15  C17 UNL     1      47.783  21.845  97.077  1.00  0.00    -0.034 C 
HETATM   16  C18 UNL     1      48.549  22.548  95.938  1.00  0.00     0.016 C 
HETATM   17  C19 UNL     1      45.471  15.806  98.408  1.00  0.00     0.011 C 
HETATM   18  C20 UNL     1      44.258  15.053  98.078  1.00  0.00     0.001 C 
HETATM   19  C21 UNL     1      43.121  15.724  98.870  1.00  0.00     0.001 C 
HETATM   20  C22 UNL     1      42.956  17.025  98.168  1.00  0.00     0.018 C 
HETATM   21  C23 UNL     1      44.149  17.973  98.348  1.00  0.00     0.024 C 
ENDROOT
BRANCH   1  22
HETATM   22  C2  UNL     1      49.502  23.246  98.239  1.00  0.00    -0.031 C 
HETATM   23  C1  UNL     1      50.498  22.923  99.045  1.00  0.00     0.007 C 
ENDBRANCH   1  22
BRANCH  21  24
HETATM   24  C24 UNL     1      44.008  18.473  99.714  1.00  0.00     0.241 C 
HETATM   25  O1  UNL     1      42.969  18.960 100.074  1.00  0.00    -0.306 OA
ENDBRANCH  21  24
TORSDOF 2
ENDMDL
