MODEL 1
REMARK VINA RESULT: -8.217635623      0.000      0.000
REMARK  10 active torsions:
REMARK  status: ('A' for Active; 'I' for Inactive)
REMARK    1  A    between atoms: C2_2  and  C3_3 
REMARK    2  A    between atoms: C3_3  and  C4_4 
REMARK    3  A    between atoms: C4_4  and  C5_5 
REMARK    4  A    between atoms: C5_5  and  C6_6 
REMARK    5  A    between atoms: C6_6  and  C7_7 
REMARK    6  A    between atoms: C7_7  and  O1_8 
REMARK    7  A    between atoms: C7_7  and  C8_10 
REMARK    8  A    between atoms: C9_11  and  C10_12 
REMARK    9  A    between atoms: C13_15  and  O2_16 
REMARK   10  A    between atoms: C16_25  and  C17_26 
ROOT
HETATM    1  C10 UNL     1       2.239  19.505  28.540  1.00  0.00     0.149 C 
HETATM    2  C11 UNL     1       3.258  18.668  27.801  1.00  0.00     0.044 C 
HETATM    3  C12 UNL     1       2.871  17.218  27.647  1.00  0.00     0.086 C 
HETATM    4  C13 UNL     1       3.898  16.246  28.020  1.00  0.00     0.111 C 
HETATM    5  N1  UNL     1       4.474  15.916  29.229  1.00  0.00    -0.361 N 
ATOM      6  H1  UNL     1       5.494  15.945  29.239  1.00  0.00     0.162 HD
HETATM    7  C14 UNL     1       3.854  15.528  30.509  1.00  0.00     0.182 C 
HETATM    8  C15 UNL     1       2.680  14.614  30.306  1.00  0.00     0.241 C 
HETATM    9  O3  UNL     1       2.997  13.359  30.401  1.00  0.00    -0.271 OA
HETATM   10  N2  UNL     1       1.337  14.921  30.036  1.00  0.00    -0.346 N 
ATOM     11  H2  UNL     1       1.097  14.679  29.074  1.00  0.00     0.163 HD
HETATM   12  C16 UNL     1       0.224  15.467  30.706  1.00  0.00     0.180 C 
HETATM   13  C20 UNL     1       0.121  16.991  30.714  1.00  0.00     0.253 C 
HETATM   14  O4  UNL     1      -0.794  17.568  30.094  1.00  0.00    -0.270 OA
HETATM   15  N3  UNL     1       1.072  17.769  31.424  1.00  0.00    -0.235 N 
HETATM   16  C21 UNL     1       1.586  17.395  32.675  1.00  0.00     0.235 C 
HETATM   17  O5  UNL     1       1.180  17.493  33.860  1.00  0.00    -0.272 OA
HETATM   18  C22 UNL     1       2.980  16.699  32.559  1.00  0.00     0.090 C 
HETATM   19  C23 UNL     1       3.920  17.874  32.733  1.00  0.00     0.047 C 
HETATM   20  C24 UNL     1       3.802  18.070  31.234  1.00  0.00     0.134 C 
HETATM   21  O6  UNL     1       2.963  19.117  30.883  1.00  0.00    -0.338 OA
HETATM   22  C25 UNL     1       1.618  18.907  30.664  1.00  0.00     0.383 C 
HETATM   23  O7  UNL     1       1.330  18.795  29.295  1.00  0.00    -0.334 OA
HETATM   24  C26 UNL     1       3.344  16.718  31.106  1.00  0.00     0.060 C 
ENDROOT
BRANCH   1  25
HETATM   25  C9  UNL     1       1.532  20.461  27.603  1.00  0.00     0.003 C 
HETATM   26  C8  UNL     1       1.712  21.756  27.661  1.00  0.00     0.003 C 
BRANCH  26  27
HETATM   27  C7  UNL     1       1.048  22.741  26.771  1.00  0.00     0.140 C 
BRANCH  27  28
HETATM   28  C6  UNL     1       2.011  23.755  26.239  1.00  0.00     0.036 C 
BRANCH  28  29
HETATM   29  C5  UNL     1       2.744  24.579  27.256  1.00  0.00     0.003 C 
BRANCH  29  30
HETATM   30  C4  UNL     1       4.203  24.741  27.062  1.00  0.00     0.004 C 
BRANCH  30  31
HETATM   31  C3  UNL     1       4.956  23.535  27.531  1.00  0.00     0.026 C 
BRANCH  31  32
HETATM   32  C2  UNL     1       4.891  23.240  28.972  1.00  0.00    -0.037 C 
HETATM   33  C1  UNL     1       5.589  23.877  29.869  1.00  0.00     0.007 C 
ENDBRANCH  31  32
ENDBRANCH  30  31
ENDBRANCH  29  30
ENDBRANCH  28  29
ENDBRANCH  27  28
BRANCH  27  34
HETATM   34  O1  UNL     1      -0.035  23.347  27.330  1.00  0.00    -0.392 OA
ATOM     35  H1  UNL     1      -0.278  22.923  28.146  1.00  0.00     0.210 HD
ENDBRANCH  27  34
ENDBRANCH  26  27
ENDBRANCH   1  25
BRANCH   4  36
HETATM   36  O2  UNL     1       4.369  15.547  27.026  1.00  0.00    -0.350 OA
ATOM     37  H2  UNL     1       3.898  14.740  26.852  1.00  0.00     0.219 HD
ENDBRANCH   4  36
BRANCH  12  38
HETATM   38  C17 UNL     1      -1.107  14.904  30.224  1.00  0.00     0.009 C 
HETATM   39  C18 UNL     1      -2.079  14.960  31.356  1.00  0.00     0.012 C 
HETATM   40  C19 UNL     1      -0.843  13.437  29.901  1.00  0.00     0.012 C 
ENDBRANCH  12  38
TORSDOF 10
ENDMDL
MODEL 2
REMARK VINA RESULT: -8.187366883      1.927      3.308
REMARK  10 active torsions:
REMARK  status: ('A' for Active; 'I' for Inactive)
REMARK    1  A    between atoms: C2_2  and  C3_3 
REMARK    2  A    between atoms: C3_3  and  C4_4 
REMARK    3  A    between atoms: C4_4  and  C5_5 
REMARK    4  A    between atoms: C5_5  and  C6_6 
REMARK    5  A    between atoms: C6_6  and  C7_7 
REMARK    6  A    between atoms: C7_7  and  O1_8 
REMARK    7  A    between atoms: C7_7  and  C8_10 
REMARK    8  A    between atoms: C9_11  and  C10_12 
REMARK    9  A    between atoms: C13_15  and  O2_16 
REMARK   10  A    between atoms: C16_25  and  C17_26 
ROOT
HETATM    1  C10 UNL     1       2.217  19.515  28.551  1.00  0.00     0.149 C 
HETATM    2  C11 UNL     1       3.229  18.680  27.800  1.00  0.00     0.044 C 
HETATM    3  C12 UNL     1       2.840  17.231  27.646  1.00  0.00     0.086 C 
HETATM    4  C13 UNL     1       3.870  16.257  28.007  1.00  0.00     0.111 C 
HETATM    5  N1  UNL     1       4.459  15.925  29.209  1.00  0.00    -0.361 N 
ATOM      6  H1  UNL     1       5.478  15.953  29.208  1.00  0.00     0.162 HD
HETATM    7  C14 UNL     1       3.851  15.534  30.495  1.00  0.00     0.182 C 
HETATM    8  C15 UNL     1       2.675  14.621  30.301  1.00  0.00     0.241 C 
HETATM    9  O3  UNL     1       2.993  13.366  30.391  1.00  0.00    -0.271 OA
HETATM   10  N2  UNL     1       1.330  14.929  30.046  1.00  0.00    -0.346 N 
ATOM     11  H2  UNL     1       1.080  14.688  29.087  1.00  0.00     0.163 HD
HETATM   12  C16 UNL     1       0.223  15.473  30.729  1.00  0.00     0.180 C 
HETATM   13  C20 UNL     1       0.121  16.998  30.741  1.00  0.00     0.253 C 
HETATM   14  O4  UNL     1      -0.800  17.576  30.132  1.00  0.00    -0.270 OA
HETATM   15  N3  UNL     1       1.080  17.774  31.443  1.00  0.00    -0.235 N 
HETATM   16  C21 UNL     1       1.606  17.397  32.688  1.00  0.00     0.235 C 
HETATM   17  O5  UNL     1       1.212  17.493  33.878  1.00  0.00    -0.272 OA
HETATM   18  C22 UNL     1       2.999  16.701  32.556  1.00  0.00     0.090 C 
HETATM   19  C23 UNL     1       3.941  17.875  32.723  1.00  0.00     0.047 C 
HETATM   20  C24 UNL     1       3.808  18.074  31.225  1.00  0.00     0.134 C 
HETATM   21  O6  UNL     1       2.965  19.123  30.886  1.00  0.00    -0.338 OA
HETATM   22  C25 UNL     1       1.618  18.913  30.680  1.00  0.00     0.383 C 
HETATM   23  O7  UNL     1       1.316  18.804  29.314  1.00  0.00    -0.334 OA
HETATM   24  C26 UNL     1       3.347  16.723  31.099  1.00  0.00     0.060 C 
ENDROOT
BRANCH   1  25
HETATM   25  C9  UNL     1       1.502  20.474  27.623  1.00  0.00     0.003 C 
HETATM   26  C8  UNL     1       0.355  21.022  27.934  1.00  0.00     0.003 C 
BRANCH  26  27
HETATM   27  C7  UNL     1      -0.392  21.968  27.066  1.00  0.00     0.140 C 
BRANCH  27  28
HETATM   28  C6  UNL     1      -1.701  21.401  26.616  1.00  0.00     0.036 C 
BRANCH  28  29
HETATM   29  C5  UNL     1      -2.257  20.270  27.433  1.00  0.00     0.003 C 
BRANCH  29  30
HETATM   30  C4  UNL     1      -2.665  19.052  26.698  1.00  0.00     0.004 C 
BRANCH  30  31
HETATM   31  C3  UNL     1      -1.690  17.934  26.906  1.00  0.00     0.026 C 
BRANCH  31  32
HETATM   32  C2  UNL     1      -0.521  17.907  26.012  1.00  0.00    -0.037 C 
HETATM   33  C1  UNL     1      -0.610  17.885  24.712  1.00  0.00     0.007 C 
ENDBRANCH  31  32
ENDBRANCH  30  31
ENDBRANCH  29  30
ENDBRANCH  28  29
ENDBRANCH  27  28
BRANCH  27  34
HETATM   34  O1  UNL     1       0.328  22.428  26.007  1.00  0.00    -0.392 OA
ATOM     35  H1  UNL     1       1.192  22.034  25.987  1.00  0.00     0.210 HD
ENDBRANCH  27  34
ENDBRANCH  26  27
ENDBRANCH   1  25
BRANCH   4  36
HETATM   36  O2  UNL     1       4.330  15.560  27.007  1.00  0.00    -0.350 OA
ATOM     37  H2  UNL     1       5.000  15.998  26.494  1.00  0.00     0.219 HD
ENDBRANCH   4  36
BRANCH  12  38
HETATM   38  C17 UNL     1      -1.113  14.912  30.259  1.00  0.00     0.009 C 
HETATM   39  C18 UNL     1      -2.072  14.965  31.401  1.00  0.00     0.012 C 
HETATM   40  C19 UNL     1      -0.852  13.446  29.929  1.00  0.00     0.012 C 
ENDBRANCH  12  38
TORSDOF 10
ENDMDL
MODEL 3
REMARK VINA RESULT: -8.147822351      0.879      1.555
REMARK  10 active torsions:
REMARK  status: ('A' for Active; 'I' for Inactive)
REMARK    1  A    between atoms: C2_2  and  C3_3 
REMARK    2  A    between atoms: C3_3  and  C4_4 
REMARK    3  A    between atoms: C4_4  and  C5_5 
REMARK    4  A    between atoms: C5_5  and  C6_6 
REMARK    5  A    between atoms: C6_6  and  C7_7 
REMARK    6  A    between atoms: C7_7  and  O1_8 
REMARK    7  A    between atoms: C7_7  and  C8_10 
REMARK    8  A    between atoms: C9_11  and  C10_12 
REMARK    9  A    between atoms: C13_15  and  O2_16 
REMARK   10  A    between atoms: C16_25  and  C17_26 
ROOT
HETATM    1  C10 UNL     1       2.204  19.523  28.551  1.00  0.00     0.149 C 
HETATM    2  C11 UNL     1       3.223  18.697  27.802  1.00  0.00     0.044 C 
HETATM    3  C12 UNL     1       2.845  17.244  27.646  1.00  0.00     0.086 C 
HETATM    4  C13 UNL     1       3.881  16.278  28.008  1.00  0.00     0.111 C 
HETATM    5  N1  UNL     1       4.470  15.949  29.212  1.00  0.00    -0.361 N 
ATOM      6  H1  UNL     1       5.489  15.985  29.214  1.00  0.00     0.162 HD
HETATM    7  C14 UNL     1       3.862  15.553  30.496  1.00  0.00     0.182 C 
HETATM    8  C15 UNL     1       2.693  14.631  30.298  1.00  0.00     0.241 C 
HETATM    9  O3  UNL     1       3.020  13.378  30.387  1.00  0.00    -0.271 OA
HETATM   10  N2  UNL     1       1.346  14.929  30.039  1.00  0.00    -0.346 N 
ATOM     11  H2  UNL     1       1.101  14.687  29.079  1.00  0.00     0.163 HD
HETATM   12  C16 UNL     1       0.234  15.464  30.719  1.00  0.00     0.180 C 
HETATM   13  C20 UNL     1       0.120  16.988  30.733  1.00  0.00     0.253 C 
HETATM   14  O4  UNL     1      -0.804  17.560  30.122  1.00  0.00    -0.270 OA
HETATM   15  N3  UNL     1       1.071  17.770  31.438  1.00  0.00    -0.235 N 
HETATM   16  C21 UNL     1       1.597  17.396  32.685  1.00  0.00     0.235 C 
HETATM   17  O5  UNL     1       1.199  17.488  33.873  1.00  0.00    -0.272 OA
HETATM   18  C22 UNL     1       2.995  16.711  32.555  1.00  0.00     0.090 C 
HETATM   19  C23 UNL     1       3.928  17.892  32.726  1.00  0.00     0.047 C 
HETATM   20  C24 UNL     1       3.797  18.091  31.228  1.00  0.00     0.134 C 
HETATM   21  O6  UNL     1       2.948  19.134  30.888  1.00  0.00    -0.338 OA
HETATM   22  C25 UNL     1       1.603  18.915  30.678  1.00  0.00     0.383 C 
HETATM   23  O7  UNL     1       1.305  18.804  29.311  1.00  0.00    -0.334 OA
HETATM   24  C26 UNL     1       3.348  16.736  31.100  1.00  0.00     0.060 C 
ENDROOT
BRANCH   1  25
HETATM   25  C9  UNL     1       1.483  20.478  27.622  1.00  0.00     0.003 C 
HETATM   26  C8  UNL     1       1.826  21.735  27.512  1.00  0.00     0.003 C 
BRANCH  26  27
HETATM   27  C7  UNL     1       1.157  22.717  26.619  1.00  0.00     0.140 C 
BRANCH  27  28
HETATM   28  C6  UNL     1       1.992  23.940  26.406  1.00  0.00     0.036 C 
BRANCH  28  29
HETATM   29  C5  UNL     1       3.349  23.943  27.046  1.00  0.00     0.003 C 
BRANCH  29  30
HETATM   30  C4  UNL     1       4.097  25.221  27.024  1.00  0.00     0.004 C 
BRANCH  30  31
HETATM   31  C3  UNL     1       3.186  26.393  27.218  1.00  0.00     0.026 C 
BRANCH  31  32
HETATM   32  C2  UNL     1       3.254  27.454  26.200  1.00  0.00    -0.037 C 
HETATM   33  C1  UNL     1       2.236  27.823  25.475  1.00  0.00     0.007 C 
ENDBRANCH  31  32
ENDBRANCH  30  31
ENDBRANCH  29  30
ENDBRANCH  28  29
ENDBRANCH  27  28
BRANCH  27  34
HETATM   34  O1  UNL     1      -0.102  23.051  27.013  1.00  0.00    -0.392 OA
ATOM     35  H1  UNL     1      -0.706  22.333  26.862  1.00  0.00     0.210 HD
ENDBRANCH  27  34
ENDBRANCH  26  27
ENDBRANCH   1  25
BRANCH   4  36
HETATM   36  O2  UNL     1       4.350  15.585  27.009  1.00  0.00    -0.350 OA
ATOM     37  H2  UNL     1       4.835  14.807  27.259  1.00  0.00     0.219 HD
ENDBRANCH   4  36
BRANCH  12  38
HETATM   38  C17 UNL     1      -1.096  14.894  30.246  1.00  0.00     0.009 C 
HETATM   39  C18 UNL     1      -2.061  14.943  31.384  1.00  0.00     0.012 C 
HETATM   40  C19 UNL     1      -0.825  13.428  29.920  1.00  0.00     0.012 C 
ENDBRANCH  12  38
TORSDOF 10
ENDMDL
MODEL 4
REMARK VINA RESULT: -7.760483060      1.114      1.337
REMARK  10 active torsions:
REMARK  status: ('A' for Active; 'I' for Inactive)
REMARK    1  A    between atoms: C2_2  and  C3_3 
REMARK    2  A    between atoms: C3_3  and  C4_4 
REMARK    3  A    between atoms: C4_4  and  C5_5 
REMARK    4  A    between atoms: C5_5  and  C6_6 
REMARK    5  A    between atoms: C6_6  and  C7_7 
REMARK    6  A    between atoms: C7_7  and  O1_8 
REMARK    7  A    between atoms: C7_7  and  C8_10 
REMARK    8  A    between atoms: C9_11  and  C10_12 
REMARK    9  A    between atoms: C13_15  and  O2_16 
REMARK   10  A    between atoms: C16_25  and  C17_26 
ROOT
HETATM    1  C10 UNL     1       2.787  20.090  28.852  1.00  0.00     0.149 C 
HETATM    2  C11 UNL     1       3.574  19.201  27.917  1.00  0.00     0.044 C 
HETATM    3  C12 UNL     1       2.821  17.979  27.450  1.00  0.00     0.086 C 
HETATM    4  C13 UNL     1       3.540  16.710  27.567  1.00  0.00     0.111 C 
HETATM    5  N1  UNL     1       3.966  15.977  28.655  1.00  0.00    -0.361 N 
ATOM      6  H1  UNL     1       4.955  15.730  28.644  1.00  0.00     0.162 HD
HETATM    7  C14 UNL     1       3.220  15.491  29.831  1.00  0.00     0.182 C 
HETATM    8  C15 UNL     1       1.854  14.992  29.458  1.00  0.00     0.241 C 
HETATM    9  O3  UNL     1       1.823  13.710  29.260  1.00  0.00    -0.271 OA
HETATM   10  N2  UNL     1       0.651  15.698  29.300  1.00  0.00    -0.346 N 
ATOM     11  H2  UNL     1       0.389  15.750  28.315  1.00  0.00     0.163 HD
HETATM   12  C16 UNL     1      -0.301  16.355  30.105  1.00  0.00     0.180 C 
HETATM   13  C20 UNL     1       0.004  17.810  30.459  1.00  0.00     0.253 C 
HETATM   14  O4  UNL     1      -0.704  18.733  30.010  1.00  0.00    -0.270 OA
HETATM   15  N3  UNL     1       1.102  18.127  31.301  1.00  0.00    -0.235 N 
HETATM   16  C21 UNL     1       1.453  17.359  32.421  1.00  0.00     0.235 C 
HETATM   17  O5  UNL     1       1.047  17.294  33.609  1.00  0.00    -0.272 OA
HETATM   18  C22 UNL     1       2.616  16.362  32.114  1.00  0.00     0.090 C 
HETATM   19  C23 UNL     1       3.827  17.174  32.523  1.00  0.00     0.047 C 
HETATM   20  C24 UNL     1       3.818  17.725  31.111  1.00  0.00     0.134 C 
HETATM   21  O6  UNL     1       3.300  19.009  31.028  1.00  0.00    -0.338 OA
HETATM   22  C25 UNL     1       1.956  19.219  30.803  1.00  0.00     0.383 C 
HETATM   23  O7  UNL     1       1.696  19.497  29.452  1.00  0.00    -0.334 OA
HETATM   24  C26 UNL     1       3.023  16.608  30.694  1.00  0.00     0.060 C 
ENDROOT
BRANCH   1  25
HETATM   25  C9  UNL     1       2.393  21.385  28.174  1.00  0.00     0.003 C 
HETATM   26  C8  UNL     1       2.918  21.766  27.038  1.00  0.00     0.003 C 
BRANCH  26  27
HETATM   27  C7  UNL     1       2.571  23.023  26.327  1.00  0.00     0.140 C 
BRANCH  27  28
HETATM   28  C6  UNL     1       2.701  24.222  27.212  1.00  0.00     0.036 C 
BRANCH  28  29
HETATM   29  C5  UNL     1       4.095  24.712  27.474  1.00  0.00     0.003 C 
BRANCH  29  30
HETATM   30  C4  UNL     1       4.589  24.612  28.865  1.00  0.00     0.004 C 
BRANCH  30  31
HETATM   31  C3  UNL     1       5.562  23.484  29.022  1.00  0.00     0.026 C 
BRANCH  31  32
HETATM   32  C2  UNL     1       5.883  23.080  30.400  1.00  0.00    -0.037 C 
HETATM   33  C1  UNL     1       7.093  23.059  30.881  1.00  0.00     0.007 C 
ENDBRANCH  31  32
ENDBRANCH  30  31
ENDBRANCH  29  30
ENDBRANCH  28  29
ENDBRANCH  27  28
BRANCH  27  34
HETATM   34  O1  UNL     1       1.352  22.995  25.722  1.00  0.00    -0.392 OA
ATOM     35  H1  UNL     1       1.443  22.996  24.776  1.00  0.00     0.210 HD
ENDBRANCH  27  34
ENDBRANCH  26  27
ENDBRANCH   1  25
BRANCH   4  36
HETATM   36  O2  UNL     1       3.843  16.152  26.429  1.00  0.00    -0.350 OA
ATOM     37  H2  UNL     1       3.862  16.748  25.689  1.00  0.00     0.219 HD
ENDBRANCH   4  36
BRANCH  12  38
HETATM   38  C17 UNL     1      -1.716  16.290  29.544  1.00  0.00     0.009 C 
HETATM   39  C18 UNL     1      -2.201  14.883  29.657  1.00  0.00     0.012 C 
HETATM   40  C19 UNL     1      -1.588  16.628  28.062  1.00  0.00     0.012 C 
ENDBRANCH  12  38
TORSDOF 10
ENDMDL
MODEL 5
REMARK VINA RESULT: -7.755654881      1.474      2.394
REMARK  10 active torsions:
REMARK  status: ('A' for Active; 'I' for Inactive)
REMARK    1  A    between atoms: C2_2  and  C3_3 
REMARK    2  A    between atoms: C3_3  and  C4_4 
REMARK    3  A    between atoms: C4_4  and  C5_5 
REMARK    4  A    between atoms: C5_5  and  C6_6 
REMARK    5  A    between atoms: C6_6  and  C7_7 
REMARK    6  A    between atoms: C7_7  and  O1_8 
REMARK    7  A    between atoms: C7_7  and  C8_10 
REMARK    8  A    between atoms: C9_11  and  C10_12 
REMARK    9  A    between atoms: C13_15  and  O2_16 
REMARK   10  A    between atoms: C16_25  and  C17_26 
ROOT
HETATM    1  C10 UNL     1       2.207  19.492  28.525  1.00  0.00     0.149 C 
HETATM    2  C11 UNL     1       3.232  18.663  27.788  1.00  0.00     0.044 C 
HETATM    3  C12 UNL     1       2.859  17.208  27.640  1.00  0.00     0.086 C 
HETATM    4  C13 UNL     1       3.896  16.248  28.014  1.00  0.00     0.111 C 
HETATM    5  N1  UNL     1       4.480  15.929  29.223  1.00  0.00    -0.361 N 
ATOM      6  H1  UNL     1       5.500  15.969  29.229  1.00  0.00     0.162 HD
HETATM    7  C14 UNL     1       3.868  15.541  30.507  1.00  0.00     0.182 C 
HETATM    8  C15 UNL     1       2.703  14.615  30.312  1.00  0.00     0.241 C 
HETATM    9  O3  UNL     1       3.033  13.363  30.411  1.00  0.00    -0.271 OA
HETATM   10  N2  UNL     1       1.356  14.906  30.045  1.00  0.00    -0.346 N 
ATOM     11  H2  UNL     1       1.116  14.657  29.085  1.00  0.00     0.163 HD
HETATM   12  C16 UNL     1       0.240  15.444  30.716  1.00  0.00     0.180 C 
HETATM   13  C20 UNL     1       0.121  16.968  30.718  1.00  0.00     0.253 C 
HETATM   14  O4  UNL     1      -0.802  17.532  30.099  1.00  0.00    -0.270 OA
HETATM   15  N3  UNL     1       1.067  17.758  31.421  1.00  0.00    -0.235 N 
HETATM   16  C21 UNL     1       1.588  17.394  32.672  1.00  0.00     0.235 C 
HETATM   17  O5  UNL     1       1.185  17.494  33.858  1.00  0.00    -0.272 OA
HETATM   18  C22 UNL     1       2.989  16.712  32.555  1.00  0.00     0.090 C 
HETATM   19  C23 UNL     1       3.918  17.897  32.720  1.00  0.00     0.047 C 
HETATM   20  C24 UNL     1       3.793  18.085  31.221  1.00  0.00     0.134 C 
HETATM   21  O6  UNL     1       2.942  19.123  30.868  1.00  0.00    -0.338 OA
HETATM   22  C25 UNL     1       1.599  18.898  30.655  1.00  0.00     0.383 C 
HETATM   23  O7  UNL     1       1.307  18.776  29.287  1.00  0.00    -0.334 OA
HETATM   24  C26 UNL     1       3.348  16.728  31.100  1.00  0.00     0.060 C 
ENDROOT
BRANCH   1  25
HETATM   25  C9  UNL     1       1.488  20.438  27.586  1.00  0.00     0.003 C 
HETATM   26  C8  UNL     1       1.630  21.736  27.659  1.00  0.00     0.003 C 
BRANCH  26  27
HETATM   27  C7  UNL     1       0.952  22.711  26.767  1.00  0.00     0.140 C 
BRANCH  27  28
HETATM   28  C6  UNL     1       0.596  23.974  27.485  1.00  0.00     0.036 C 
BRANCH  28  29
HETATM   29  C5  UNL     1       0.347  23.858  28.961  1.00  0.00     0.003 C 
BRANCH  29  30
HETATM   30  C4  UNL     1      -1.045  23.592  29.387  1.00  0.00     0.004 C 
BRANCH  30  31
HETATM   31  C3  UNL     1      -1.100  22.554  30.465  1.00  0.00     0.026 C 
BRANCH  31  32
HETATM   32  C2  UNL     1      -1.280  21.161  30.026  1.00  0.00    -0.037 C 
HETATM   33  C1  UNL     1      -1.935  20.824  28.951  1.00  0.00     0.007 C 
ENDBRANCH  31  32
ENDBRANCH  30  31
ENDBRANCH  29  30
ENDBRANCH  28  29
ENDBRANCH  27  28
BRANCH  27  34
HETATM   34  O1  UNL     1      -0.129  22.201  26.116  1.00  0.00    -0.392 OA
ATOM     35  H1  UNL     1      -0.236  21.276  26.307  1.00  0.00     0.210 HD
ENDBRANCH  27  34
ENDBRANCH  26  27
ENDBRANCH   1  25
BRANCH   4  36
HETATM   36  O2  UNL     1       4.371  15.549  27.022  1.00  0.00    -0.350 OA
ATOM     37  H2  UNL     1       3.853  14.786  26.792  1.00  0.00     0.219 HD
ENDBRANCH   4  36
BRANCH  12  38
HETATM   38  C17 UNL     1      -1.087  14.866  30.241  1.00  0.00     0.009 C 
HETATM   39  C18 UNL     1      -2.060  14.931  31.371  1.00  0.00     0.012 C 
HETATM   40  C19 UNL     1      -0.813  13.396  29.938  1.00  0.00     0.012 C 
ENDBRANCH  12  38
TORSDOF 10
ENDMDL
