MODEL 1
REMARK VINA RESULT: -10.084920960      0.000      0.000
REMARK  8 active torsions:
REMARK  status: ('A' for Active; 'I' for Inactive)
REMARK       I    between atoms: C1_2  and  N1_3 
REMARK       I    between atoms: C1_2  and  N2_13 
REMARK    1  A    between atoms: N1_3  and  C2_5 
REMARK    2  A    between atoms: C2_5  and  C3_6 
REMARK    3  A    between atoms: N2_13  and  S1_15 
REMARK    4  A    between atoms: S1_15  and  N3_18 
REMARK    5  A    between atoms: N3_18  and  S2_20 
REMARK    6  A    between atoms: S2_20  and  N4_23 
REMARK       I    between atoms: N4_23  and  C10_25 
REMARK    7  A    between atoms: C10_25  and  O7_27 
REMARK    8  A    between atoms: O7_27  and  C11_28 
ROOT
HETATM    1  N3  UNL     1       3.164  23.040  28.938  1.00  0.00    -0.177 N 
ATOM      2  H3  UNL     1       2.735  22.852  29.844  1.00  0.00     0.195 HD
ENDROOT
BRANCH   1   3
HETATM    3  S1  UNL     1       4.077  24.438  28.531  1.00  0.00     0.337 S 
HETATM    4  O2  UNL     1       3.981  25.414  29.685  1.00  0.00    -0.181 OA
HETATM    5  O3  UNL     1       3.501  25.093  27.290  1.00  0.00    -0.181 OA
BRANCH   3   6
HETATM    6  N2  UNL     1       5.718  23.985  28.273  1.00  0.00    -0.218 N 
HETATM    7  C1  UNL     1       6.450  23.270  29.245  1.00  0.00     0.330 C 
HETATM    8  O1  UNL     1       5.888  22.931  30.345  1.00  0.00    -0.246 OA
HETATM    9  N1  UNL     1       7.800  22.936  28.993  1.00  0.00    -0.342 N 
ATOM     10  H1  UNL     1       8.247  23.209  28.118  1.00  0.00     0.164 HD
ATOM     11  H2  UNL     1       6.173  24.240  27.397  1.00  0.00     0.185 HD
BRANCH   9  12
HETATM   12  C2  UNL     1       8.535  22.203  29.997  1.00  0.00     0.129 C 
BRANCH  12  13
HETATM   13  C3  UNL     1       9.648  23.029  30.543  1.00  0.00     0.008 C 
HETATM   14  C4  UNL     1       9.207  24.296  31.240  1.00  0.00     0.011 C 
HETATM   15  C5  UNL     1      10.288  25.259  30.783  1.00  0.00    -0.014 C 
HETATM   16  C6  UNL     1      11.653  24.761  31.176  1.00  0.00     0.005 C 
HETATM   17  C9  UNL     1      10.294  24.894  29.287  1.00  0.00     0.010 C 
HETATM   18  C7  UNL     1      11.985  23.605  30.231  1.00  0.00     0.005 C 
HETATM   19  C8  UNL     1      10.668  23.416  29.509  1.00  0.00    -0.009 C 
ENDBRANCH  12  13
ENDBRANCH   9  12
ENDBRANCH   3   6
ENDBRANCH   1   3
BRANCH   1  20
HETATM   20  S2  UNL     1       3.090  21.994  27.543  1.00  0.00     0.337 S 
HETATM   21  O4  UNL     1       1.700  22.193  26.966  1.00  0.00    -0.181 OA
HETATM   22  O5  UNL     1       4.098  22.467  26.557  1.00  0.00    -0.181 OA
BRANCH  20  23
HETATM   23  N4  UNL     1       3.332  20.353  28.023  1.00  0.00    -0.212 N 
HETATM   24  C10 UNL     1       2.545  19.818  29.069  1.00  0.00     0.375 C 
HETATM   25  O6  UNL     1       1.686  20.550  29.609  1.00  0.00    -0.237 OA
ATOM     26  H4  UNL     1       4.033  19.777  27.558  1.00  0.00     0.185 HD
BRANCH  24  27
HETATM   27  O7  UNL     1       2.664  18.528  29.541  1.00  0.00    -0.297 OA
BRANCH  27  28
HETATM   28  C11 UNL     1       2.387  18.078  30.827  1.00  0.00     0.142 C 
HETATM   29  C12 UNL     1       3.622  17.225  31.206  1.00  0.00     0.016 C 
HETATM   30  C13 UNL     1       3.689  16.008  30.343  1.00  0.00     0.012 C 
HETATM   31  C17 UNL     1       3.577  16.849  32.647  1.00  0.00     0.012 C 
HETATM   32  C14 UNL     1       2.477  15.124  30.553  1.00  0.00    -0.013 C 
HETATM   33  C15 UNL     1       2.446  14.720  31.999  1.00  0.00     0.009 C 
HETATM   34  C20 UNL     1       1.269  15.927  30.182  1.00  0.00     0.012 C 
HETATM   35  C16 UNL     1       2.367  15.960  32.848  1.00  0.00    -0.013 C 
HETATM   36  C18 UNL     1       1.163  16.753  32.459  1.00  0.00     0.012 C 
HETATM   37  C19 UNL     1       1.209  17.199  30.999  1.00  0.00     0.016 C 
ENDBRANCH  27  28
ENDBRANCH  24  27
ENDBRANCH  20  23
ENDBRANCH   1  20
TORSDOF 8
ENDMDL
MODEL 2
REMARK VINA RESULT: -10.084216179      0.545      1.153
REMARK  8 active torsions:
REMARK  status: ('A' for Active; 'I' for Inactive)
REMARK       I    between atoms: C1_2  and  N1_3 
REMARK       I    between atoms: C1_2  and  N2_13 
REMARK    1  A    between atoms: N1_3  and  C2_5 
REMARK    2  A    between atoms: C2_5  and  C3_6 
REMARK    3  A    between atoms: N2_13  and  S1_15 
REMARK    4  A    between atoms: S1_15  and  N3_18 
REMARK    5  A    between atoms: N3_18  and  S2_20 
REMARK    6  A    between atoms: S2_20  and  N4_23 
REMARK       I    between atoms: N4_23  and  C10_25 
REMARK    7  A    between atoms: C10_25  and  O7_27 
REMARK    8  A    between atoms: O7_27  and  C11_28 
ROOT
HETATM    1  N3  UNL     1       3.145  23.103  28.749  1.00  0.00    -0.177 N 
ATOM      2  H3  UNL     1       2.659  23.018  29.642  1.00  0.00     0.195 HD
ENDROOT
BRANCH   1   3
HETATM    3  S1  UNL     1       4.099  24.443  28.250  1.00  0.00     0.337 S 
HETATM    4  O2  UNL     1       4.009  25.510  29.322  1.00  0.00    -0.181 OA
HETATM    5  O3  UNL     1       3.561  25.012  26.952  1.00  0.00    -0.181 OA
BRANCH   3   6
HETATM    6  N2  UNL     1       5.733  23.933  28.060  1.00  0.00    -0.218 N 
HETATM    7  C1  UNL     1       6.421  23.255  29.087  1.00  0.00     0.330 C 
HETATM    8  O1  UNL     1       5.825  22.995  30.190  1.00  0.00    -0.246 OA
HETATM    9  N1  UNL     1       7.767  22.872  28.888  1.00  0.00    -0.342 N 
ATOM     10  H1  UNL     1       8.242  23.082  28.011  1.00  0.00     0.164 HD
ATOM     11  H2  UNL     1       6.214  24.125  27.181  1.00  0.00     0.185 HD
BRANCH   9  12
HETATM   12  C2  UNL     1       8.458  22.177  29.950  1.00  0.00     0.129 C 
BRANCH  12  13
HETATM   13  C3  UNL     1       9.558  23.017  30.500  1.00  0.00     0.008 C 
HETATM   14  C4  UNL     1       9.098  24.280  31.192  1.00  0.00     0.011 C 
HETATM   15  C5  UNL     1      10.170  25.255  30.740  1.00  0.00    -0.014 C 
HETATM   16  C6  UNL     1      11.539  24.774  31.140  1.00  0.00     0.005 C 
HETATM   17  C9  UNL     1      10.188  24.887  29.244  1.00  0.00     0.010 C 
HETATM   18  C7  UNL     1      11.889  23.621  30.199  1.00  0.00     0.005 C 
HETATM   19  C8  UNL     1      10.579  23.415  29.471  1.00  0.00    -0.009 C 
ENDBRANCH  12  13
ENDBRANCH   9  12
ENDBRANCH   3   6
ENDBRANCH   1   3
BRANCH   1  20
HETATM   20  S2  UNL     1       3.143  21.913  27.474  1.00  0.00     0.337 S 
HETATM   21  O4  UNL     1       1.729  21.921  26.921  1.00  0.00    -0.181 OA
HETATM   22  O5  UNL     1       4.082  22.368  26.414  1.00  0.00    -0.181 OA
BRANCH  20  23
HETATM   23  N4  UNL     1       3.548  20.362  28.115  1.00  0.00    -0.212 N 
HETATM   24  C10 UNL     1       2.820  19.862  29.220  1.00  0.00     0.375 C 
HETATM   25  O6  UNL     1       1.895  20.557  29.694  1.00  0.00    -0.237 OA
ATOM     26  H4  UNL     1       4.301  19.813  27.702  1.00  0.00     0.185 HD
BRANCH  24  27
HETATM   27  O7  UNL     1       3.068  18.645  29.819  1.00  0.00    -0.297 OA
BRANCH  27  28
HETATM   28  C11 UNL     1       2.153  17.624  30.053  1.00  0.00     0.142 C 
HETATM   29  C12 UNL     1       1.968  17.624  31.590  1.00  0.00     0.016 C 
HETATM   30  C13 UNL     1       3.237  17.209  32.259  1.00  0.00     0.012 C 
HETATM   31  C17 UNL     1       0.845  16.727  31.983  1.00  0.00     0.012 C 
HETATM   32  C14 UNL     1       3.618  15.794  31.873  1.00  0.00    -0.013 C 
HETATM   33  C15 UNL     1       2.501  14.883  32.294  1.00  0.00     0.009 C 
HETATM   34  C20 UNL     1       3.812  15.774  30.389  1.00  0.00     0.012 C 
HETATM   35  C16 UNL     1       1.237  15.314  31.600  1.00  0.00    -0.013 C 
HETATM   36  C18 UNL     1       1.451  15.297  30.122  1.00  0.00     0.012 C 
HETATM   37  C19 UNL     1       2.561  16.250  29.685  1.00  0.00     0.016 C 
ENDBRANCH  27  28
ENDBRANCH  24  27
ENDBRANCH  20  23
ENDBRANCH   1  20
TORSDOF 8
ENDMDL
MODEL 3
REMARK VINA RESULT: -9.978302935      1.956      3.117
REMARK  8 active torsions:
REMARK  status: ('A' for Active; 'I' for Inactive)
REMARK       I    between atoms: C1_2  and  N1_3 
REMARK       I    between atoms: C1_2  and  N2_13 
REMARK    1  A    between atoms: N1_3  and  C2_5 
REMARK    2  A    between atoms: C2_5  and  C3_6 
REMARK    3  A    between atoms: N2_13  and  S1_15 
REMARK    4  A    between atoms: S1_15  and  N3_18 
REMARK    5  A    between atoms: N3_18  and  S2_20 
REMARK    6  A    between atoms: S2_20  and  N4_23 
REMARK       I    between atoms: N4_23  and  C10_25 
REMARK    7  A    between atoms: C10_25  and  O7_27 
REMARK    8  A    between atoms: O7_27  and  C11_28 
ROOT
HETATM    1  N3  UNL     1       5.268  23.436  30.797  1.00  0.00    -0.177 N 
ATOM      2  H3  UNL     1       4.963  24.250  31.331  1.00  0.00     0.195 HD
ENDROOT
BRANCH   1   3
HETATM    3  S1  UNL     1       5.392  23.349  29.085  1.00  0.00     0.337 S 
HETATM    4  O2  UNL     1       4.693  24.559  28.500  1.00  0.00    -0.181 OA
HETATM    5  O3  UNL     1       4.705  22.097  28.575  1.00  0.00    -0.181 OA
BRANCH   3   6
HETATM    6  N2  UNL     1       7.055  23.354  28.639  1.00  0.00    -0.218 N 
HETATM    7  C1  UNL     1       8.002  24.146  29.321  1.00  0.00     0.330 C 
HETATM    8  O1  UNL     1       7.632  24.875  30.306  1.00  0.00    -0.246 OA
HETATM    9  N1  UNL     1       9.353  24.128  28.905  1.00  0.00    -0.342 N 
ATOM     10  H1  UNL     1       9.646  23.549  28.118  1.00  0.00     0.164 HD
ATOM     11  H2  UNL     1       7.363  22.769  27.862  1.00  0.00     0.185 HD
BRANCH   9  12
HETATM   12  C2  UNL     1      10.311  24.944  29.614  1.00  0.00     0.129 C 
BRANCH  12  13
HETATM   13  C3  UNL     1      11.637  24.268  29.674  1.00  0.00     0.008 C 
HETATM   14  C4  UNL     1      11.574  22.783  29.952  1.00  0.00     0.011 C 
HETATM   15  C5  UNL     1      12.767  22.619  30.875  1.00  0.00    -0.014 C 
HETATM   16  C6  UNL     1      14.033  23.086  30.207  1.00  0.00     0.005 C 
HETATM   17  C9  UNL     1      12.499  23.820  31.801  1.00  0.00     0.010 C 
HETATM   18  C7  UNL     1      13.982  24.614  30.195  1.00  0.00     0.005 C 
HETATM   19  C8  UNL     1      12.573  24.875  30.682  1.00  0.00    -0.009 C 
ENDBRANCH  12  13
ENDBRANCH   9  12
ENDBRANCH   3   6
ENDBRANCH   1   3
BRANCH   1  20
HETATM   20  S2  UNL     1       5.748  21.900  31.471  1.00  0.00     0.337 S 
HETATM   21  O4  UNL     1       7.133  21.633  30.911  1.00  0.00    -0.181 OA
HETATM   22  O5  UNL     1       5.841  22.052  32.947  1.00  0.00    -0.181 OA
BRANCH  20  23
HETATM   23  N4  UNL     1       4.637  20.671  30.986  1.00  0.00    -0.212 N 
HETATM   24  C10 UNL     1       4.234  19.696  31.927  1.00  0.00     0.375 C 
HETATM   25  O6  UNL     1       4.688  19.760  33.091  1.00  0.00    -0.237 OA
ATOM     26  H4  UNL     1       4.276  20.648  30.032  1.00  0.00     0.185 HD
BRANCH  24  27
HETATM   27  O7  UNL     1       3.364  18.663  31.644  1.00  0.00    -0.297 OA
BRANCH  27  28
HETATM   28  C11 UNL     1       3.558  17.311  31.902  1.00  0.00     0.142 C 
HETATM   29  C12 UNL     1       3.178  16.612  30.574  1.00  0.00     0.016 C 
HETATM   30  C13 UNL     1       1.719  16.781  30.304  1.00  0.00     0.012 C 
HETATM   31  C17 UNL     1       3.543  15.168  30.620  1.00  0.00     0.012 C 
HETATM   32  C14 UNL     1       0.886  16.127  31.387  1.00  0.00    -0.013 C 
HETATM   33  C15 UNL     1       1.230  14.665  31.415  1.00  0.00     0.009 C 
HETATM   34  C20 UNL     1       1.230  16.796  32.681  1.00  0.00     0.012 C 
HETATM   35  C16 UNL     1       2.701  14.519  31.699  1.00  0.00    -0.013 C 
HETATM   36  C18 UNL     1       3.028  15.200  32.987  1.00  0.00     0.012 C 
HETATM   37  C19 UNL     1       2.715  16.694  32.951  1.00  0.00     0.016 C 
ENDBRANCH  27  28
ENDBRANCH  24  27
ENDBRANCH  20  23
ENDBRANCH   1  20
TORSDOF 8
ENDMDL
MODEL 4
REMARK VINA RESULT: -9.959312606      1.306      2.211
REMARK  8 active torsions:
REMARK  status: ('A' for Active; 'I' for Inactive)
REMARK       I    between atoms: C1_2  and  N1_3 
REMARK       I    between atoms: C1_2  and  N2_13 
REMARK    1  A    between atoms: N1_3  and  C2_5 
REMARK    2  A    between atoms: C2_5  and  C3_6 
REMARK    3  A    between atoms: N2_13  and  S1_15 
REMARK    4  A    between atoms: S1_15  and  N3_18 
REMARK    5  A    between atoms: N3_18  and  S2_20 
REMARK    6  A    between atoms: S2_20  and  N4_23 
REMARK       I    between atoms: N4_23  and  C10_25 
REMARK    7  A    between atoms: C10_25  and  O7_27 
REMARK    8  A    between atoms: O7_27  and  C11_28 
ROOT
HETATM    1  N3  UNL     1       4.522  22.213  27.056  1.00  0.00    -0.177 N 
ATOM      2  H3  UNL     1       4.928  22.095  26.128  1.00  0.00     0.195 HD
ENDROOT
BRANCH   1   3
HETATM    3  S1  UNL     1       5.179  23.168  28.324  1.00  0.00     0.337 S 
HETATM    4  O2  UNL     1       4.886  22.473  29.638  1.00  0.00    -0.181 OA
HETATM    5  O3  UNL     1       4.522  24.535  28.341  1.00  0.00    -0.181 OA
BRANCH   3   6
HETATM    6  N2  UNL     1       6.880  23.314  28.099  1.00  0.00    -0.218 N 
HETATM    7  C1  UNL     1       7.708  23.907  29.075  1.00  0.00     0.330 C 
HETATM    8  O1  UNL     1       7.197  24.342  30.166  1.00  0.00    -0.246 OA
HETATM    9  N1  UNL     1       9.096  24.019  28.835  1.00  0.00    -0.342 N 
ATOM     10  H1  UNL     1       9.501  23.675  27.965  1.00  0.00     0.164 HD
ATOM     11  H2  UNL     1       7.299  22.962  27.238  1.00  0.00     0.185 HD
BRANCH   9  12
HETATM   12  C2  UNL     1       9.930  24.628  29.845  1.00  0.00     0.129 C 
BRANCH  12  13
HETATM   13  C3  UNL     1      11.321  24.100  29.767  1.00  0.00     0.008 C 
HETATM   14  C4  UNL     1      11.453  22.627  30.081  1.00  0.00     0.011 C 
HETATM   15  C5  UNL     1      12.751  22.622  30.866  1.00  0.00    -0.014 C 
HETATM   16  C6  UNL     1      13.877  23.199  30.050  1.00  0.00     0.005 C 
HETATM   17  C9  UNL     1      12.457  23.817  31.793  1.00  0.00     0.010 C 
HETATM   18  C7  UNL     1      13.657  24.712  30.013  1.00  0.00     0.005 C 
HETATM   19  C8  UNL     1      12.290  24.836  30.650  1.00  0.00    -0.009 C 
ENDBRANCH  12  13
ENDBRANCH   9  12
ENDBRANCH   3   6
ENDBRANCH   1   3
BRANCH   1  20
HETATM   20  S2  UNL     1       3.045  21.475  27.619  1.00  0.00     0.337 S 
HETATM   21  O4  UNL     1       2.270  22.595  28.292  1.00  0.00    -0.181 OA
HETATM   22  O5  UNL     1       2.283  21.001  26.434  1.00  0.00    -0.181 OA
BRANCH  20  23
HETATM   23  N4  UNL     1       3.407  20.213  28.741  1.00  0.00    -0.212 N 
HETATM   24  C10 UNL     1       2.345  19.476  29.314  1.00  0.00     0.375 C 
HETATM   25  O6  UNL     1       1.172  19.755  28.982  1.00  0.00    -0.237 OA
ATOM     26  H4  UNL     1       4.374  20.002  28.986  1.00  0.00     0.185 HD
BRANCH  24  27
HETATM   27  O7  UNL     1       2.519  18.459  30.230  1.00  0.00    -0.297 OA
BRANCH  27  28
HETATM   28  C11 UNL     1       1.829  17.253  30.283  1.00  0.00     0.142 C 
HETATM   29  C12 UNL     1       1.391  17.130  31.763  1.00  0.00     0.016 C 
HETATM   30  C13 UNL     1       2.588  16.966  32.640  1.00  0.00     0.012 C 
HETATM   31  C17 UNL     1       0.447  15.991  31.937  1.00  0.00     0.012 C 
HETATM   32  C14 UNL     1       3.336  15.691  32.307  1.00  0.00    -0.013 C 
HETATM   33  C15 UNL     1       2.395  14.537  32.510  1.00  0.00     0.009 C 
HETATM   34  C20 UNL     1       3.778  15.792  30.880  1.00  0.00     0.012 C 
HETATM   35  C16 UNL     1       1.203  14.720  31.609  1.00  0.00    -0.013 C 
HETATM   36  C18 UNL     1       1.663  14.828  30.193  1.00  0.00     0.012 C 
HETATM   37  C19 UNL     1       2.590  16.022  29.973  1.00  0.00     0.016 C 
ENDBRANCH  27  28
ENDBRANCH  24  27
ENDBRANCH  20  23
ENDBRANCH   1  20
TORSDOF 8
ENDMDL
MODEL 5
REMARK VINA RESULT: -9.924005007      1.634      2.263
REMARK  8 active torsions:
REMARK  status: ('A' for Active; 'I' for Inactive)
REMARK       I    between atoms: C1_2  and  N1_3 
REMARK       I    between atoms: C1_2  and  N2_13 
REMARK    1  A    between atoms: N1_3  and  C2_5 
REMARK    2  A    between atoms: C2_5  and  C3_6 
REMARK    3  A    between atoms: N2_13  and  S1_15 
REMARK    4  A    between atoms: S1_15  and  N3_18 
REMARK    5  A    between atoms: N3_18  and  S2_20 
REMARK    6  A    between atoms: S2_20  and  N4_23 
REMARK       I    between atoms: N4_23  and  C10_25 
REMARK    7  A    between atoms: C10_25  and  O7_27 
REMARK    8  A    between atoms: O7_27  and  C11_28 
ROOT
HETATM    1  N3  UNL     1       2.453  24.232  29.114  1.00  0.00    -0.177 N 
ATOM      2  H3  UNL     1       1.995  23.699  29.853  1.00  0.00     0.195 HD
ENDROOT
BRANCH   1   3
HETATM    3  S1  UNL     1       3.459  25.606  29.347  1.00  0.00     0.337 S 
HETATM    4  O2  UNL     1       3.335  26.041  30.793  1.00  0.00    -0.181 OA
HETATM    5  O3  UNL     1       3.000  26.745  28.455  1.00  0.00    -0.181 OA
BRANCH   3   6
HETATM    6  N2  UNL     1       5.089  25.179  28.995  1.00  0.00    -0.218 N 
HETATM    7  C1  UNL     1       5.760  24.166  29.713  1.00  0.00     0.330 C 
HETATM    8  O1  UNL     1       5.149  23.532  30.643  1.00  0.00    -0.246 OA
HETATM    9  N1  UNL     1       7.104  23.863  29.398  1.00  0.00    -0.342 N 
ATOM     10  H1  UNL     1       7.590  24.371  28.660  1.00  0.00     0.164 HD
ATOM     11  H2  UNL     1       5.583  25.670  28.250  1.00  0.00     0.185 HD
BRANCH   9  12
HETATM   12  C2  UNL     1       7.776  22.823  30.142  1.00  0.00     0.129 C 
BRANCH  12  13
HETATM   13  C3  UNL     1       9.140  23.264  30.549  1.00  0.00     0.008 C 
HETATM   14  C4  UNL     1       9.175  24.562  31.325  1.00  0.00     0.011 C 
HETATM   15  C5  UNL     1      10.424  25.201  30.747  1.00  0.00    -0.014 C 
HETATM   16  C6  UNL     1      11.623  24.312  30.942  1.00  0.00     0.005 C 
HETATM   17  C9  UNL     1      10.139  24.937  29.256  1.00  0.00     0.010 C 
HETATM   18  C7  UNL     1      11.486  23.168  29.937  1.00  0.00     0.005 C 
HETATM   19  C8  UNL     1      10.093  23.404  29.396  1.00  0.00    -0.009 C 
ENDBRANCH  12  13
ENDBRANCH   9  12
ENDBRANCH   3   6
ENDBRANCH   1   3
BRANCH   1  20
HETATM   20  S2  UNL     1       2.345  23.901  27.405  1.00  0.00     0.337 S 
HETATM   21  O4  UNL     1       1.253  24.820  26.888  1.00  0.00    -0.181 OA
HETATM   22  O5  UNL     1       3.638  24.282  26.777  1.00  0.00    -0.181 OA
BRANCH  20  23
HETATM   23  N4  UNL     1       1.931  22.244  27.151  1.00  0.00    -0.212 N 
HETATM   24  C10 UNL     1       2.633  21.242  27.860  1.00  0.00     0.375 C 
HETATM   25  O6  UNL     1       3.529  21.589  28.661  1.00  0.00    -0.237 OA
ATOM     26  H4  UNL     1       1.189  21.992  26.497  1.00  0.00     0.185 HD
BRANCH  24  27
HETATM   27  O7  UNL     1       2.394  19.891  27.722  1.00  0.00    -0.297 OA
BRANCH  27  28
HETATM   28  C11 UNL     1       3.167  18.849  28.223  1.00  0.00     0.142 C 
HETATM   29  C12 UNL     1       2.604  17.588  27.524  1.00  0.00     0.016 C 
HETATM   30  C13 UNL     1       1.207  17.328  27.981  1.00  0.00     0.012 C 
HETATM   31  C17 UNL     1       3.475  16.409  27.790  1.00  0.00     0.012 C 
HETATM   32  C14 UNL     1       1.164  17.049  29.470  1.00  0.00    -0.013 C 
HETATM   33  C15 UNL     1       2.018  15.842  29.737  1.00  0.00     0.009 C 
HETATM   34  C20 UNL     1       1.696  18.262  30.167  1.00  0.00     0.012 C 
HETATM   35  C16 UNL     1       3.422  16.131  29.279  1.00  0.00    -0.013 C 
HETATM   36  C18 UNL     1       3.933  17.348  29.977  1.00  0.00     0.012 C 
HETATM   37  C19 UNL     1       3.090  18.586  29.677  1.00  0.00     0.016 C 
ENDBRANCH  27  28
ENDBRANCH  24  27
ENDBRANCH  20  23
ENDBRANCH   1  20
TORSDOF 8
ENDMDL
