MODEL 1
REMARK VINA RESULT: -8.802076361      0.000      0.000
REMARK  9 active torsions:
REMARK  status: ('A' for Active; 'I' for Inactive)
REMARK    1  A    between atoms: C2_2  and  C3_3 
REMARK    2  A    between atoms: C3_3  and  C4_4 
REMARK    3  A    between atoms: C4_4  and  N1_5 
REMARK       I    between atoms: N1_5  and  C5_7 
REMARK    4  A    between atoms: C5_7  and  C6_9 
REMARK    5  A    between atoms: C12_15  and  O2_16 
REMARK    6  A    between atoms: C13_18  and  O3_19 
REMARK    7  A    between atoms: C21_29  and  N2_30 
REMARK    8  A    between atoms: N2_30  and  S1_32 
REMARK    9  A    between atoms: S1_32  and  C22_35 
ROOT
HETATM    1  C6  UNL     1      12.461  35.060  17.632  1.00  0.00     0.117 C 
HETATM    2  C7  UNL     1      11.630  34.336  16.621  1.00  0.00     0.009 C 
HETATM    3  C8  UNL     1      10.789  34.952  15.659  1.00  0.00     0.007 C 
HETATM    4  C9  UNL     1      10.142  36.247  15.756  1.00  0.00     0.013 C 
HETATM    5  C10 UNL     1       9.369  36.464  17.105  1.00  0.00    -0.007 C 
HETATM    6  C11 UNL     1       9.096  37.994  16.903  1.00  0.00     0.018 C 
HETATM    7  C12 UNL     1       8.145  35.734  17.032  1.00  0.00     0.156 C 
HETATM    8  C13 UNL     1       7.444  34.951  17.999  1.00  0.00     0.151 C 
HETATM    9  C14 UNL     1       7.906  34.280  19.211  1.00  0.00     0.019 C 
HETATM   10  C15 UNL     1       8.959  33.230  19.136  1.00  0.00     0.008 C 
HETATM   11  C16 UNL     1       9.738  33.133  17.873  1.00  0.00     0.009 C 
HETATM   12  C17 UNL     1      10.966  33.872  17.932  1.00  0.00     0.026 C 
HETATM   13  C18 UNL     1      11.180  35.228  18.365  1.00  0.00     0.085 A 
HETATM   14  O4  UNL     1      11.118  35.501  19.678  1.00  0.00    -0.372 OA
HETATM   15  C19 UNL     1      10.471  36.743  19.441  1.00  0.00     0.132 A 
HETATM   16  C20 UNL     1       9.375  37.157  20.248  1.00  0.00     0.058 C 
HETATM   17  C21 UNL     1       8.040  36.573  20.313  1.00  0.00     0.095 C 
HETATM   18  C24 UNL     1       8.126  35.100  20.453  1.00  0.00     0.033 C 
HETATM   19  C25 UNL     1      10.471  36.410  18.030  1.00  0.00     0.061 A 
ENDROOT
BRANCH   1  20
HETATM   20  C5  UNL     1      13.360  36.094  17.272  1.00  0.00     0.225 C 
HETATM   21  N1  UNL     1      13.180  36.831  16.061  1.00  0.00    -0.361 N 
ATOM     22  H1  UNL     1      12.391  36.606  15.456  1.00  0.00     0.162 HD
HETATM   23  O1  UNL     1      14.344  36.413  17.971  1.00  0.00    -0.273 OA
BRANCH  21  24
HETATM   24  C4  UNL     1      14.097  37.896  15.668  1.00  0.00     0.122 C 
BRANCH  24  25
HETATM   25  C3  UNL     1      13.510  38.720  14.574  1.00  0.00     0.019 C 
BRANCH  25  26
HETATM   26  C2  UNL     1      12.066  39.025  14.891  1.00  0.00    -0.003 C 
HETATM   27  C1  UNL     1      11.588  40.236  14.128  1.00  0.00     0.005 C 
ENDBRANCH  25  26
ENDBRANCH  24  25
ENDBRANCH  21  24
ENDBRANCH   1  20
BRANCH   7  28
HETATM   28  O2  UNL     1       7.154  36.662  16.505  1.00  0.00    -0.392 OA
ATOM     29  H2  UNL     1       6.870  37.189  17.242  1.00  0.00     0.210 HD
ENDBRANCH   7  28
BRANCH  17  30
HETATM   30  N2  UNL     1       7.378  37.118  21.488  1.00  0.00    -0.315 N 
ATOM     31  H2  UNL     1       7.866  37.255  22.372  1.00  0.00     0.172 HD
BRANCH  30  32
HETATM   32  S1  UNL     1       5.749  37.508  21.291  1.00  0.00     0.226 S 
HETATM   33  O5  UNL     1       5.123  36.823  20.095  1.00  0.00    -0.206 OA
HETATM   34  O6  UNL     1       5.505  38.984  21.136  1.00  0.00    -0.206 OA
BRANCH  32  35
HETATM   35  C22 UNL     1       4.828  36.957  22.707  1.00  0.00     0.158 C 
HETATM   36  C23 UNL     1       3.941  38.102  23.221  1.00  0.00     0.023 C 
ENDBRANCH  32  35
ENDBRANCH  30  32
ENDBRANCH  17  30
BRANCH   8  37
HETATM   37  O3  UNL     1       6.700  33.938  17.282  1.00  0.00    -0.393 OA
ATOM     38  H3  UNL     1       5.944  33.711  17.811  1.00  0.00     0.210 HD
ENDBRANCH   8  37
TORSDOF 9
ENDMDL
MODEL 2
REMARK VINA RESULT: -8.194523689      1.335      1.771
REMARK  9 active torsions:
REMARK  status: ('A' for Active; 'I' for Inactive)
REMARK    1  A    between atoms: C2_2  and  C3_3 
REMARK    2  A    between atoms: C3_3  and  C4_4 
REMARK    3  A    between atoms: C4_4  and  N1_5 
REMARK       I    between atoms: N1_5  and  C5_7 
REMARK    4  A    between atoms: C5_7  and  C6_9 
REMARK    5  A    between atoms: C12_15  and  O2_16 
REMARK    6  A    between atoms: C13_18  and  O3_19 
REMARK    7  A    between atoms: C21_29  and  N2_30 
REMARK    8  A    between atoms: N2_30  and  S1_32 
REMARK    9  A    between atoms: S1_32  and  C22_35 
ROOT
HETATM    1  C6  UNL     1      12.400  34.812  18.060  1.00  0.00     0.117 C 
HETATM    2  C7  UNL     1      11.702  33.490  18.082  1.00  0.00     0.009 C 
HETATM    3  C8  UNL     1      10.578  33.144  17.289  1.00  0.00     0.007 C 
HETATM    4  C9  UNL     1       9.576  34.040  16.744  1.00  0.00     0.013 C 
HETATM    5  C10 UNL     1       8.981  35.036  17.802  1.00  0.00    -0.007 C 
HETATM    6  C11 UNL     1       8.212  35.937  16.776  1.00  0.00     0.018 C 
HETATM    7  C12 UNL     1       8.055  34.314  18.612  1.00  0.00     0.156 C 
HETATM    8  C13 UNL     1       7.787  34.349  20.014  1.00  0.00     0.151 C 
HETATM    9  C14 UNL     1       8.610  34.782  21.140  1.00  0.00     0.019 C 
HETATM   10  C15 UNL     1       9.919  34.126  21.413  1.00  0.00     0.008 C 
HETATM   11  C16 UNL     1      10.493  33.275  20.337  1.00  0.00     0.009 C 
HETATM   12  C17 UNL     1      11.419  33.993  19.511  1.00  0.00     0.026 C 
HETATM   13  C18 UNL     1      11.254  35.278  18.882  1.00  0.00     0.085 A 
HETATM   14  O4  UNL     1      11.303  36.379  19.648  1.00  0.00    -0.372 OA
HETATM   15  C19 UNL     1      10.268  37.006  18.902  1.00  0.00     0.132 A 
HETATM   16  C20 UNL     1       9.229  37.721  19.560  1.00  0.00     0.058 C 
HETATM   17  C21 UNL     1       8.172  37.183  20.410  1.00  0.00     0.095 C 
HETATM   18  C24 UNL     1       8.740  36.256  21.417  1.00  0.00     0.033 C 
HETATM   19  C25 UNL     1      10.167  35.786  18.126  1.00  0.00     0.061 A 
ENDROOT
BRANCH   1  20
HETATM   20  C5  UNL     1      12.863  35.403  16.858  1.00  0.00     0.225 C 
HETATM   21  N1  UNL     1      13.288  36.767  16.830  1.00  0.00    -0.361 N 
ATOM     22  H1  UNL     1      13.259  37.314  17.691  1.00  0.00     0.162 HD
HETATM   23  O1  UNL     1      12.921  34.785  15.775  1.00  0.00    -0.273 OA
BRANCH  21  24
HETATM   24  C4  UNL     1      13.764  37.398  15.603  1.00  0.00     0.122 C 
BRANCH  24  25
HETATM   25  C3  UNL     1      12.857  38.508  15.195  1.00  0.00     0.019 C 
BRANCH  25  26
HETATM   26  C2  UNL     1      11.425  38.033  15.238  1.00  0.00    -0.003 C 
HETATM   27  C1  UNL     1      10.552  39.012  15.982  1.00  0.00     0.005 C 
ENDBRANCH  25  26
ENDBRANCH  24  25
ENDBRANCH  21  24
ENDBRANCH   1  20
BRANCH   7  28
HETATM   28  O2  UNL     1       6.754  34.472  17.975  1.00  0.00    -0.392 OA
ATOM     29  H2  UNL     1       6.413  35.305  18.278  1.00  0.00     0.210 HD
ENDBRANCH   7  28
BRANCH  17  30
HETATM   30  N2  UNL     1       7.552  38.303  21.101  1.00  0.00    -0.315 N 
ATOM     31  H2  UNL     1       8.081  39.128  21.383  1.00  0.00     0.172 HD
BRANCH  30  32
HETATM   32  S1  UNL     1       5.900  38.147  21.405  1.00  0.00     0.226 S 
HETATM   33  O5  UNL     1       5.229  37.146  20.489  1.00  0.00    -0.206 OA
HETATM   34  O6  UNL     1       5.147  39.443  21.277  1.00  0.00    -0.206 OA
BRANCH  32  35
HETATM   35  C22 UNL     1       5.652  37.543  23.057  1.00  0.00     0.158 C 
HETATM   36  C23 UNL     1       5.415  36.025  23.020  1.00  0.00     0.023 C 
ENDBRANCH  32  35
ENDBRANCH  30  32
ENDBRANCH  17  30
BRANCH   8  37
HETATM   37  O3  UNL     1       7.305  33.040  20.398  1.00  0.00    -0.393 OA
ATOM     38  H3  UNL     1       6.551  32.842  19.855  1.00  0.00     0.210 HD
ENDBRANCH   8  37
TORSDOF 9
ENDMDL
MODEL 3
REMARK VINA RESULT: -8.158083903      3.435      6.921
REMARK  9 active torsions:
REMARK  status: ('A' for Active; 'I' for Inactive)
REMARK    1  A    between atoms: C2_2  and  C3_3 
REMARK    2  A    between atoms: C3_3  and  C4_4 
REMARK    3  A    between atoms: C4_4  and  N1_5 
REMARK       I    between atoms: N1_5  and  C5_7 
REMARK    4  A    between atoms: C5_7  and  C6_9 
REMARK    5  A    between atoms: C12_15  and  O2_16 
REMARK    6  A    between atoms: C13_18  and  O3_19 
REMARK    7  A    between atoms: C21_29  and  N2_30 
REMARK    8  A    between atoms: N2_30  and  S1_32 
REMARK    9  A    between atoms: S1_32  and  C22_35 
ROOT
HETATM    1  C6  UNL     1       9.379  33.209  20.103  1.00  0.00     0.117 C 
HETATM    2  C7  UNL     1       9.186  32.296  18.935  1.00  0.00     0.009 C 
HETATM    3  C8  UNL     1      10.224  31.777  18.120  1.00  0.00     0.007 C 
HETATM    4  C9  UNL     1      11.524  32.370  17.867  1.00  0.00     0.013 C 
HETATM    5  C10 UNL     1      11.455  33.882  17.449  1.00  0.00    -0.007 C 
HETATM    6  C11 UNL     1      12.993  34.161  17.556  1.00  0.00     0.018 C 
HETATM    7  C12 UNL     1      11.039  33.942  16.086  1.00  0.00     0.156 C 
HETATM    8  C13 UNL     1      10.147  34.820  15.400  1.00  0.00     0.151 C 
HETATM    9  C14 UNL     1       9.054  35.655  15.889  1.00  0.00     0.019 C 
HETATM   10  C15 UNL     1       7.895  35.042  16.595  1.00  0.00     0.008 C 
HETATM   11  C16 UNL     1       8.047  33.639  17.066  1.00  0.00     0.009 C 
HETATM   12  C17 UNL     1       8.474  33.567  18.433  1.00  0.00     0.026 C 
HETATM   13  C18 UNL     1       9.557  34.266  19.075  1.00  0.00     0.085 A 
HETATM   14  O4  UNL     1       9.412  35.574  19.337  1.00  0.00    -0.372 OA
HETATM   15  C19 UNL     1      10.768  35.843  19.008  1.00  0.00     0.132 A 
HETATM   16  C20 UNL     1      11.114  36.985  18.234  1.00  0.00     0.058 C 
HETATM   17  C21 UNL     1      10.813  37.239  16.829  1.00  0.00     0.095 C 
HETATM   18  C24 UNL     1       9.384  36.967  16.549  1.00  0.00     0.033 C 
HETATM   19  C25 UNL     1      10.900  34.444  18.653  1.00  0.00     0.061 A 
ENDROOT
BRANCH   1  20
HETATM   20  C5  UNL     1      10.276  32.908  21.158  1.00  0.00     0.225 C 
HETATM   21  N1  UNL     1      10.338  33.733  22.323  1.00  0.00    -0.361 N 
ATOM     22  H1  UNL     1       9.723  34.543  22.391  1.00  0.00     0.162 HD
HETATM   23  O1  UNL     1      11.052  31.931  21.132  1.00  0.00    -0.273 OA
BRANCH  21  24
HETATM   24  C4  UNL     1      11.258  33.445  23.419  1.00  0.00     0.122 C 
BRANCH  24  25
HETATM   25  C3  UNL     1      10.558  32.726  24.521  1.00  0.00     0.019 C 
BRANCH  25  26
HETATM   26  C2  UNL     1      11.426  32.727  25.756  1.00  0.00    -0.003 C 
HETATM   27  C1  UNL     1      11.525  31.344  26.350  1.00  0.00     0.005 C 
ENDBRANCH  25  26
ENDBRANCH  24  25
ENDBRANCH  21  24
ENDBRANCH   1  20
BRANCH   7  28
HETATM   28  O2  UNL     1      12.261  33.948  15.292  1.00  0.00    -0.392 OA
ATOM     29  H2  UNL     1      12.470  34.862  15.140  1.00  0.00     0.210 HD
ENDBRANCH   7  28
BRANCH  17  30
HETATM   30  N2  UNL     1      11.082  38.645  16.569  1.00  0.00    -0.315 N 
ATOM     31  H2  UNL     1      10.884  39.372  17.256  1.00  0.00     0.172 HD
BRANCH  30  32
HETATM   32  S1  UNL     1      11.743  38.993  15.058  1.00  0.00     0.226 S 
HETATM   33  O5  UNL     1      11.177  40.259  14.449  1.00  0.00    -0.206 OA
HETATM   34  O6  UNL     1      11.547  37.891  14.054  1.00  0.00    -0.206 OA
BRANCH  32  35
HETATM   35  C22 UNL     1      13.491  39.267  15.220  1.00  0.00     0.158 C 
HETATM   36  C23 UNL     1      14.216  37.916  15.321  1.00  0.00     0.023 C 
ENDBRANCH  32  35
ENDBRANCH  30  32
ENDBRANCH  17  30
BRANCH   8  37
HETATM   37  O3  UNL     1       9.576  34.084  14.293  1.00  0.00    -0.393 OA
ATOM     38  H3  UNL     1       8.779  34.531  14.033  1.00  0.00     0.210 HD
ENDBRANCH   8  37
TORSDOF 9
ENDMDL
MODEL 4
REMARK VINA RESULT: -8.147393001      2.219      3.553
REMARK  9 active torsions:
REMARK  status: ('A' for Active; 'I' for Inactive)
REMARK    1  A    between atoms: C2_2  and  C3_3 
REMARK    2  A    between atoms: C3_3  and  C4_4 
REMARK    3  A    between atoms: C4_4  and  N1_5 
REMARK       I    between atoms: N1_5  and  C5_7 
REMARK    4  A    between atoms: C5_7  and  C6_9 
REMARK    5  A    between atoms: C12_15  and  O2_16 
REMARK    6  A    between atoms: C13_18  and  O3_19 
REMARK    7  A    between atoms: C21_29  and  N2_30 
REMARK    8  A    between atoms: N2_30  and  S1_32 
REMARK    9  A    between atoms: S1_32  and  C22_35 
ROOT
HETATM    1  C6  UNL     1       9.932  33.455  18.973  1.00  0.00     0.117 C 
HETATM    2  C7  UNL     1       8.508  33.162  18.625  1.00  0.00     0.009 C 
HETATM    3  C8  UNL     1       7.794  33.736  17.542  1.00  0.00     0.007 C 
HETATM    4  C9  UNL     1       8.031  35.023  16.915  1.00  0.00     0.013 C 
HETATM    5  C10 UNL     1       8.153  36.208  17.938  1.00  0.00    -0.007 C 
HETATM    6  C11 UNL     1       8.661  37.273  16.907  1.00  0.00     0.018 C 
HETATM    7  C12 UNL     1       6.839  36.542  18.381  1.00  0.00     0.156 C 
HETATM    8  C13 UNL     1       6.330  36.900  19.666  1.00  0.00     0.151 C 
HETATM    9  C14 UNL     1       6.843  36.644  21.009  1.00  0.00     0.019 C 
HETATM   10  C15 UNL     1       7.043  35.248  21.486  1.00  0.00     0.008 C 
HETATM   11  C16 UNL     1       7.024  34.168  20.463  1.00  0.00     0.009 C 
HETATM   12  C17 UNL     1       8.339  33.831  20.003  1.00  0.00     0.026 C 
HETATM   13  C18 UNL     1       9.389  34.709  19.557  1.00  0.00     0.085 A 
HETATM   14  O4  UNL     1      10.049  35.438  20.470  1.00  0.00    -0.372 OA
HETATM   15  C19 UNL     1      10.116  36.560  19.602  1.00  0.00     0.132 A 
HETATM   16  C20 UNL     1       9.870  37.873  20.092  1.00  0.00     0.058 C 
HETATM   17  C21 UNL     1       8.608  38.427  20.571  1.00  0.00     0.095 C 
HETATM   18  C24 UNL     1       7.966  37.499  21.531  1.00  0.00     0.033 C 
HETATM   19  C25 UNL     1       9.337  35.797  18.648  1.00  0.00     0.061 A 
ENDROOT
BRANCH   1  20
HETATM   20  C5  UNL     1      10.978  33.360  18.023  1.00  0.00     0.225 C 
HETATM   21  N1  UNL     1      12.101  34.241  18.080  1.00  0.00    -0.361 N 
ATOM     22  H1  UNL     1      12.144  34.943  18.819  1.00  0.00     0.162 HD
HETATM   23  O1  UNL     1      10.981  32.523  17.096  1.00  0.00    -0.273 OA
BRANCH  21  24
HETATM   24  C4  UNL     1      13.188  34.164  17.108  1.00  0.00     0.122 C 
BRANCH  24  25
HETATM   25  C3  UNL     1      12.972  35.134  15.998  1.00  0.00     0.019 C 
BRANCH  25  26
HETATM   26  C2  UNL     1      12.399  36.415  16.550  1.00  0.00    -0.003 C 
HETATM   27  C1  UNL     1      12.704  37.581  15.643  1.00  0.00     0.005 C 
ENDBRANCH  25  26
ENDBRANCH  24  25
ENDBRANCH  21  24
ENDBRANCH   1  20
BRANCH   7  28
HETATM   28  O2  UNL     1       6.363  37.584  17.481  1.00  0.00    -0.392 OA
ATOM     29  H2  UNL     1       5.544  37.894  17.849  1.00  0.00     0.210 HD
ENDBRANCH   7  28
BRANCH  17  30
HETATM   30  N2  UNL     1       8.908  39.676  21.254  1.00  0.00    -0.315 N 
ATOM     31  H2  UNL     1       9.405  39.702  22.145  1.00  0.00     0.172 HD
BRANCH  30  32
HETATM   32  S1  UNL     1       8.380  41.077  20.478  1.00  0.00     0.226 S 
HETATM   33  O5  UNL     1       9.516  41.869  19.865  1.00  0.00    -0.206 OA
HETATM   34  O6  UNL     1       7.626  42.011  21.384  1.00  0.00    -0.206 OA
BRANCH  32  35
HETATM   35  C22 UNL     1       7.303  40.645  19.134  1.00  0.00     0.158 C 
HETATM   36  C23 UNL     1       8.030  40.871  17.799  1.00  0.00     0.023 C 
ENDBRANCH  32  35
ENDBRANCH  30  32
ENDBRANCH  17  30
BRANCH   8  37
HETATM   37  O3  UNL     1       4.947  36.482  19.719  1.00  0.00    -0.393 OA
ATOM     38  H3  UNL     1       4.817  36.024  20.541  1.00  0.00     0.210 HD
ENDBRANCH   8  37
TORSDOF 9
ENDMDL
MODEL 5
REMARK VINA RESULT: -8.135788775      3.322      6.832
REMARK  9 active torsions:
REMARK  status: ('A' for Active; 'I' for Inactive)
REMARK    1  A    between atoms: C2_2  and  C3_3 
REMARK    2  A    between atoms: C3_3  and  C4_4 
REMARK    3  A    between atoms: C4_4  and  N1_5 
REMARK       I    between atoms: N1_5  and  C5_7 
REMARK    4  A    between atoms: C5_7  and  C6_9 
REMARK    5  A    between atoms: C12_15  and  O2_16 
REMARK    6  A    between atoms: C13_18  and  O3_19 
REMARK    7  A    between atoms: C21_29  and  N2_30 
REMARK    8  A    between atoms: N2_30  and  S1_32 
REMARK    9  A    between atoms: S1_32  and  C22_35 
ROOT
HETATM    1  C6  UNL     1       9.289  33.158  20.128  1.00  0.00     0.117 C 
HETATM    2  C7  UNL     1       9.149  32.248  18.949  1.00  0.00     0.009 C 
HETATM    3  C8  UNL     1      10.220  31.769  18.152  1.00  0.00     0.007 C 
HETATM    4  C9  UNL     1      11.504  32.405  17.930  1.00  0.00     0.013 C 
HETATM    5  C10 UNL     1      11.395  33.917  17.520  1.00  0.00    -0.007 C 
HETATM    6  C11 UNL     1      12.921  34.244  17.660  1.00  0.00     0.018 C 
HETATM    7  C12 UNL     1      11.005  33.973  16.149  1.00  0.00     0.156 C 
HETATM    8  C13 UNL     1      10.099  34.827  15.451  1.00  0.00     0.151 C 
HETATM    9  C14 UNL     1       8.969  35.623  15.923  1.00  0.00     0.019 C 
HETATM   10  C15 UNL     1       7.817  34.967  16.601  1.00  0.00     0.008 C 
HETATM   11  C16 UNL     1       8.006  33.566  17.066  1.00  0.00     0.009 C 
HETATM   12  C17 UNL     1       8.407  33.499  18.441  1.00  0.00     0.026 C 
HETATM   13  C18 UNL     1       9.453  34.228  19.110  1.00  0.00     0.085 A 
HETATM   14  O4  UNL     1       9.261  35.529  19.377  1.00  0.00    -0.372 OA
HETATM   15  C19 UNL     1      10.613  35.843  19.078  1.00  0.00     0.132 A 
HETATM   16  C20 UNL     1      10.938  37.002  18.318  1.00  0.00     0.058 C 
HETATM   17  C21 UNL     1      10.657  37.256  16.909  1.00  0.00     0.095 C 
HETATM   18  C24 UNL     1       9.243  36.939  16.598  1.00  0.00     0.033 C 
HETATM   19  C25 UNL     1      10.797  34.452  18.716  1.00  0.00     0.061 A 
ENDROOT
BRANCH   1  20
HETATM   20  C5  UNL     1      10.174  32.879  21.198  1.00  0.00     0.225 C 
HETATM   21  N1  UNL     1      10.214  33.721  22.352  1.00  0.00    -0.361 N 
ATOM     22  H1  UNL     1       9.593  34.528  22.400  1.00  0.00     0.162 HD
HETATM   23  O1  UNL     1      10.957  31.907  21.197  1.00  0.00    -0.273 OA
BRANCH  21  24
HETATM   24  C4  UNL     1      11.122  33.455  23.464  1.00  0.00     0.122 C 
BRANCH  24  25
HETATM   25  C3  UNL     1      10.361  33.257  24.730  1.00  0.00     0.019 C 
BRANCH  25  26
HETATM   26  C2  UNL     1      11.326  33.066  25.875  1.00  0.00    -0.003 C 
HETATM   27  C1  UNL     1      11.649  31.606  26.074  1.00  0.00     0.005 C 
ENDBRANCH  25  26
ENDBRANCH  24  25
ENDBRANCH  21  24
ENDBRANCH   1  20
BRANCH   7  28
HETATM   28  O2  UNL     1      12.242  34.024  15.381  1.00  0.00    -0.392 OA
ATOM     29  H2  UNL     1      12.322  34.919  15.072  1.00  0.00     0.210 HD
ENDBRANCH   7  28
BRANCH  17  30
HETATM   30  N2  UNL     1      10.885  38.671  16.664  1.00  0.00    -0.315 N 
ATOM     31  H2  UNL     1      10.617  39.390  17.336  1.00  0.00     0.172 HD
BRANCH  30  32
HETATM   32  S1  UNL     1      11.624  39.047  15.195  1.00  0.00     0.226 S 
HETATM   33  O5  UNL     1      11.591  37.896  14.212  1.00  0.00    -0.206 OA
HETATM   34  O6  UNL     1      13.061  39.465  15.342  1.00  0.00    -0.206 OA
BRANCH  32  35
HETATM   35  C22 UNL     1      10.753  40.384  14.414  1.00  0.00     0.158 C 
HETATM   36  C23 UNL     1      11.700  41.125  13.457  1.00  0.00     0.023 C 
ENDBRANCH  32  35
ENDBRANCH  30  32
ENDBRANCH  17  30
BRANCH   8  37
HETATM   37  O3  UNL     1       9.574  34.080  14.328  1.00  0.00    -0.393 OA
ATOM     38  H3  UNL     1       9.091  33.340  14.677  1.00  0.00     0.210 HD
ENDBRANCH   8  37
TORSDOF 9
ENDMDL
