MODEL 1
REMARK VINA RESULT: -5.780664494      0.000      0.000
REMARK  5 active torsions:
REMARK  status: ('A' for Active; 'I' for Inactive)
REMARK    1  A    between atoms: C2_2  and  C3_3 
REMARK    2  A    between atoms: C3_3  and  N1_4 
REMARK    3  A    between atoms: N1_4  and  N2_6 
REMARK    4  A    between atoms: C5_8  and  C6_9 
REMARK    5  A    between atoms: C6_9  and  N3_10 
ROOT
HETATM    1  N2  UNL     1      17.962  12.107  22.943  1.00  0.00    -0.249 N 
HETATM    2  C4  UNL     1      19.158  11.678  23.455  1.00  0.00     0.127 A 
HETATM    3  C5  UNL     1      19.328  10.481  24.100  1.00  0.00    -0.013 A 
HETATM    4  C7  UNL     1      18.249   9.664  24.245  1.00  0.00     0.044 A 
HETATM    5  C8  UNL     1      17.025  10.038  23.753  1.00  0.00     0.082 A 
HETATM    6  C9  UNL     1      16.922  11.273  23.105  1.00  0.00     0.154 A 
HETATM    7  N4  UNL     1      15.637  11.347  22.751  1.00  0.00    -0.335 N 
ATOM      8  H4  UNL     1      15.216  12.130  22.252  1.00  0.00     0.168 HD
HETATM    9  C10 UNL     1      14.964  10.223  23.152  1.00  0.00     0.184 A 
HETATM   10  N5  UNL     1      15.825   9.420  23.769  1.00  0.00    -0.344 N 
HETATM   11  C11 UNL     1      15.555   8.135  24.349  1.00  0.00     0.157 C 
ENDROOT
BRANCH   1  12
HETATM   12  N1  UNL     1      17.906  13.327  22.317  1.00  0.00    -0.304 N 
ATOM     13  H1  UNL     1      17.368  13.320  21.451  1.00  0.00     0.186 HD
BRANCH  12  14
HETATM   14  C3  UNL     1      18.447  14.586  22.638  1.00  0.00     0.107 C 
BRANCH  14  15
HETATM   15  C2  UNL     1      17.959  15.248  23.858  1.00  0.00     0.008 C 
HETATM   16  C1  UNL     1      18.336  14.996  25.069  1.00  0.00     0.013 C 
ENDBRANCH  14  15
ENDBRANCH  12  14
ENDBRANCH   1  12
BRANCH   3  17
HETATM   17  C6  UNL     1      20.634  10.049  24.643  1.00  0.00     0.269 C 
BRANCH  17  18
HETATM   18  N3  UNL     1      21.478   9.533  23.611  1.00  0.00    -0.075 N 
ATOM     19  H33 UNL     1      21.686   8.545  23.755  1.00  0.00     0.274 HD
ATOM     20  H32 UNL     1      20.982   9.460  22.722  1.00  0.00     0.274 HD
ATOM     21  H31 UNL     1      22.330  10.086  23.520  1.00  0.00     0.274 HD
ENDBRANCH  17  18
ENDBRANCH   3  17
TORSDOF 5
ENDMDL
MODEL 2
REMARK VINA RESULT: -5.779308328      1.562      4.550
REMARK  5 active torsions:
REMARK  status: ('A' for Active; 'I' for Inactive)
REMARK    1  A    between atoms: C2_2  and  C3_3 
REMARK    2  A    between atoms: C3_3  and  N1_4 
REMARK    3  A    between atoms: N1_4  and  N2_6 
REMARK    4  A    between atoms: C5_8  and  C6_9 
REMARK    5  A    between atoms: C6_9  and  N3_10 
ROOT
HETATM    1  N2  UNL     1      17.226  11.979  23.947  1.00  0.00    -0.249 N 
HETATM    2  C4  UNL     1      18.139  10.974  24.127  1.00  0.00     0.127 A 
HETATM    3  C5  UNL     1      19.382  11.159  24.674  1.00  0.00    -0.013 A 
HETATM    4  C7  UNL     1      19.737  12.415  25.065  1.00  0.00     0.044 A 
HETATM    5  C8  UNL     1      18.865  13.461  24.911  1.00  0.00     0.082 A 
HETATM    6  C9  UNL     1      17.612  13.201  24.345  1.00  0.00     0.154 A 
HETATM    7  N4  UNL     1      17.011  14.392  24.329  1.00  0.00    -0.335 N 
ATOM      8  H4  UNL     1      16.070  14.564  23.975  1.00  0.00     0.168 HD
HETATM    9  C10 UNL     1      17.835  15.353  24.854  1.00  0.00     0.184 A 
HETATM   10  N5  UNL     1      18.977  14.773  25.211  1.00  0.00    -0.344 N 
HETATM   11  C11 UNL     1      20.122  15.399  25.805  1.00  0.00     0.157 C 
ENDROOT
BRANCH   1  12
HETATM   12  N1  UNL     1      16.010  11.678  23.386  1.00  0.00    -0.304 N 
ATOM     13  H1  UNL     1      15.320  12.424  23.476  1.00  0.00     0.186 HD
BRANCH  12  14
HETATM   14  C3  UNL     1      15.530  10.542  22.709  1.00  0.00     0.107 C 
BRANCH  14  15
HETATM   15  C2  UNL     1      14.737   9.571  23.481  1.00  0.00     0.008 C 
HETATM   16  C1  UNL     1      15.204   8.617  24.218  1.00  0.00     0.013 C 
ENDBRANCH  14  15
ENDBRANCH  12  14
ENDBRANCH   1  12
BRANCH   3  17
HETATM   17  C6  UNL     1      20.345  10.052  24.853  1.00  0.00     0.269 C 
BRANCH  17  18
HETATM   18  N3  UNL     1      20.893   9.635  23.601  1.00  0.00    -0.075 N 
ATOM     19  H33 UNL     1      20.490  10.159  22.823  1.00  0.00     0.274 HD
ATOM     20  H32 UNL     1      21.865   9.927  23.500  1.00  0.00     0.274 HD
ATOM     21  H31 UNL     1      20.788   8.629  23.469  1.00  0.00     0.274 HD
ENDBRANCH  17  18
ENDBRANCH   3  17
TORSDOF 5
ENDMDL
MODEL 3
REMARK VINA RESULT: -5.731677188      2.007      4.767
REMARK  5 active torsions:
REMARK  status: ('A' for Active; 'I' for Inactive)
REMARK    1  A    between atoms: C2_2  and  C3_3 
REMARK    2  A    between atoms: C3_3  and  N1_4 
REMARK    3  A    between atoms: N1_4  and  N2_6 
REMARK    4  A    between atoms: C5_8  and  C6_9 
REMARK    5  A    between atoms: C6_9  and  N3_10 
ROOT
HETATM    1  N2  UNL     1      18.301   9.685  24.763  1.00  0.00    -0.249 N 
HETATM    2  C4  UNL     1      19.102   9.697  25.874  1.00  0.00     0.127 A 
HETATM    3  C5  UNL     1      19.880  10.763  26.244  1.00  0.00    -0.013 A 
HETATM    4  C7  UNL     1      19.860  11.880  25.466  1.00  0.00     0.044 A 
HETATM    5  C8  UNL     1      19.077  11.928  24.341  1.00  0.00     0.082 A 
HETATM    6  C9  UNL     1      18.308  10.804  24.022  1.00  0.00     0.154 A 
HETATM    7  N4  UNL     1      17.674  11.153  22.901  1.00  0.00    -0.335 N 
ATOM      8  H4  UNL     1      17.022  10.556  22.392  1.00  0.00     0.168 HD
HETATM    9  C10 UNL     1      18.022  12.426  22.530  1.00  0.00     0.184 A 
HETATM   10  N5  UNL     1      18.887  12.898  23.422  1.00  0.00    -0.344 N 
HETATM   11  C11 UNL     1      19.511  14.189  23.429  1.00  0.00     0.157 C 
ENDROOT
BRANCH   1  12
HETATM   12  N1  UNL     1      17.565   8.559  24.487  1.00  0.00    -0.304 N 
ATOM     13  H1  UNL     1      18.004   7.938  23.808  1.00  0.00     0.186 HD
BRANCH  12  14
HETATM   14  C3  UNL     1      16.324   8.095  24.960  1.00  0.00     0.107 C 
BRANCH  14  15
HETATM   15  C2  UNL     1      15.109   8.604  24.304  1.00  0.00     0.008 C 
HETATM   16  C1  UNL     1      13.894   8.247  24.563  1.00  0.00     0.013 C 
ENDBRANCH  14  15
ENDBRANCH  12  14
ENDBRANCH   1  12
BRANCH   3  17
HETATM   17  C6  UNL     1      20.736  10.743  27.450  1.00  0.00     0.269 C 
BRANCH  17  18
HETATM   18  N3  UNL     1      21.668  11.826  27.441  1.00  0.00    -0.075 N 
ATOM     19  H33 UNL     1      22.569  11.549  27.833  1.00  0.00     0.274 HD
ATOM     20  H32 UNL     1      21.973  12.050  26.493  1.00  0.00     0.274 HD
ATOM     21  H31 UNL     1      21.288  12.644  27.915  1.00  0.00     0.274 HD
ENDBRANCH  17  18
ENDBRANCH   3  17
TORSDOF 5
ENDMDL
MODEL 4
REMARK VINA RESULT: -5.658017938      2.483      5.612
REMARK  5 active torsions:
REMARK  status: ('A' for Active; 'I' for Inactive)
REMARK    1  A    between atoms: C2_2  and  C3_3 
REMARK    2  A    between atoms: C3_3  and  N1_4 
REMARK    3  A    between atoms: N1_4  and  N2_6 
REMARK    4  A    between atoms: C5_8  and  C6_9 
REMARK    5  A    between atoms: C6_9  and  N3_10 
ROOT
HETATM    1  N2  UNL     1      15.272   9.124  23.173  1.00  0.00    -0.249 N 
HETATM    2  C4  UNL     1      14.768   8.073  23.891  1.00  0.00     0.127 A 
HETATM    3  C5  UNL     1      15.376   7.543  25.000  1.00  0.00    -0.013 A 
HETATM    4  C7  UNL     1      16.552   8.089  25.417  1.00  0.00     0.044 A 
HETATM    5  C8  UNL     1      17.106   9.144  24.738  1.00  0.00     0.082 A 
HETATM    6  C9  UNL     1      16.432   9.635  23.616  1.00  0.00     0.154 A 
HETATM    7  N4  UNL     1      17.205  10.634  23.186  1.00  0.00    -0.335 N 
ATOM      8  H4  UNL     1      17.005  11.216  22.372  1.00  0.00     0.168 HD
HETATM    9  C10 UNL     1      18.307  10.768  23.990  1.00  0.00     0.184 A 
HETATM   10  N5  UNL     1      18.240   9.846  24.945  1.00  0.00    -0.344 N 
HETATM   11  C11 UNL     1      19.180   9.622  26.005  1.00  0.00     0.157 C 
ENDROOT
BRANCH   1  12
HETATM   12  N1  UNL     1      14.579   9.572  22.076  1.00  0.00    -0.304 N 
ATOM     13  H1  UNL     1      13.889  10.291  22.293  1.00  0.00     0.186 HD
BRANCH  12  14
HETATM   14  C3  UNL     1      14.635   9.233  20.712  1.00  0.00     0.107 C 
BRANCH  14  15
HETATM   15  C2  UNL     1      14.255   7.863  20.333  1.00  0.00     0.008 C 
HETATM   16  C1  UNL     1      15.020   6.821  20.366  1.00  0.00     0.013 C 
ENDBRANCH  14  15
ENDBRANCH  12  14
ENDBRANCH   1  12
BRANCH   3  17
HETATM   17  C6  UNL     1      14.806   6.405  25.753  1.00  0.00     0.269 C 
BRANCH  17  18
HETATM   18  N3  UNL     1      13.688   5.838  25.065  1.00  0.00    -0.075 N 
ATOM     19  H33 UNL     1      13.844   5.808  24.057  1.00  0.00     0.274 HD
ATOM     20  H32 UNL     1      13.608   4.837  25.242  1.00  0.00     0.274 HD
ATOM     21  H31 UNL     1      12.825   6.330  25.297  1.00  0.00     0.274 HD
ENDBRANCH  17  18
ENDBRANCH   3  17
TORSDOF 5
ENDMDL
MODEL 5
REMARK VINA RESULT: -5.653381240      2.207      5.561
REMARK  5 active torsions:
REMARK  status: ('A' for Active; 'I' for Inactive)
REMARK    1  A    between atoms: C2_2  and  C3_3 
REMARK    2  A    between atoms: C3_3  and  N1_4 
REMARK    3  A    between atoms: N1_4  and  N2_6 
REMARK    4  A    between atoms: C5_8  and  C6_9 
REMARK    5  A    between atoms: C6_9  and  N3_10 
ROOT
HETATM    1  N2  UNL     1      18.239   9.766  24.913  1.00  0.00    -0.249 N 
HETATM    2  C4  UNL     1      17.841  10.435  23.787  1.00  0.00     0.127 A 
HETATM    3  C5  UNL     1      18.418  11.598  23.345  1.00  0.00    -0.013 A 
HETATM    4  C7  UNL     1      19.448  12.123  24.063  1.00  0.00     0.044 A 
HETATM    5  C8  UNL     1      19.892  11.497  25.200  1.00  0.00     0.082 A 
HETATM    6  C9  UNL     1      19.258  10.314  25.594  1.00  0.00     0.154 A 
HETATM    7  N4  UNL     1      19.900   9.959  26.708  1.00  0.00    -0.335 N 
ATOM      8  H4  UNL     1      19.688   9.129  27.261  1.00  0.00     0.168 HD
HETATM    9  C10 UNL     1      20.885  10.864  27.003  1.00  0.00     0.184 A 
HETATM   10  N5  UNL     1      20.875  11.811  26.070  1.00  0.00    -0.344 N 
HETATM   11  C11 UNL     1      21.735  12.955  25.982  1.00  0.00     0.157 C 
ENDROOT
BRANCH   1  12
HETATM   12  N1  UNL     1      17.587   8.609  25.264  1.00  0.00    -0.304 N 
ATOM     13  H1  UNL     1      17.875   8.233  26.167  1.00  0.00     0.186 HD
BRANCH  12  14
HETATM   14  C3  UNL     1      16.598   7.843  24.619  1.00  0.00     0.107 C 
BRANCH  14  15
HETATM   15  C2  UNL     1      15.243   7.855  25.192  1.00  0.00     0.008 C 
HETATM   16  C1  UNL     1      14.163   8.238  24.594  1.00  0.00     0.013 C 
ENDBRANCH  14  15
ENDBRANCH  12  14
ENDBRANCH   1  12
BRANCH   3  17
HETATM   17  C6  UNL     1      17.963  12.297  22.124  1.00  0.00     0.269 C 
BRANCH  17  18
HETATM   18  N3  UNL     1      18.130  13.712  22.246  1.00  0.00    -0.075 N 
ATOM     19  H33 UNL     1      17.240  14.181  22.418  1.00  0.00     0.274 HD
ATOM     20  H32 UNL     1      18.607  13.959  23.113  1.00  0.00     0.274 HD
ATOM     21  H31 UNL     1      18.606  14.098  21.432  1.00  0.00     0.274 HD
ENDBRANCH  17  18
ENDBRANCH   3  17
TORSDOF 5
ENDMDL
