MODEL 1
REMARK VINA RESULT: -7.054348653      0.000      0.000
REMARK  6 active torsions:
REMARK  status: ('A' for Active; 'I' for Inactive)
REMARK    1  A    between atoms: C1_4  and  C2_6 
REMARK    2  A    between atoms: N3_10  and  C6_11 
REMARK    3  A    between atoms: C6_11  and  C7_12 
REMARK    4  A    between atoms: C7_12  and  C8_13 
REMARK    5  A    between atoms: C8_13  and  S1_14 
REMARK    6  A    between atoms: S1_14  and  N4_15 
ROOT
HETATM    1  C2  UNL     1      14.596   7.765  25.178  1.00  0.00     0.020 A 
HETATM    2  C3  UNL     1      13.793   8.491  24.336  1.00  0.00     0.017 A 
HETATM    3  C4  UNL     1      14.369   9.412  23.498  1.00  0.00     0.018 A 
HETATM    4  C5  UNL     1      15.725   9.574  23.532  1.00  0.00     0.090 A 
HETATM    5  N3  UNL     1      16.542   8.876  24.348  1.00  0.00    -0.365 N 
HETATM    6  C9  UNL     1      15.953   7.971  25.168  1.00  0.00     0.105 A 
ENDROOT
BRANCH   5   7
HETATM    7  C6  UNL     1      17.974   9.054  24.377  1.00  0.00     0.128 C 
BRANCH   7   8
HETATM    8  C7  UNL     1      18.267  10.498  24.663  1.00  0.00     0.034 C 
BRANCH   8   9
HETATM    9  C8  UNL     1      19.220  11.103  23.667  1.00  0.00     0.133 C 
BRANCH   9  10
HETATM   10  S1  UNL     1      18.462  12.534  22.890  1.00  0.00     0.107 S 
HETATM   11  O1  UNL     1      17.747  12.089  21.440  1.00  0.00    -0.236 OA
BRANCH  10  12
HETATM   12  N4  UNL     1      17.172  13.052  23.944  1.00  0.00    -0.350 NA
ATOM     13  H42 UNL     1      17.407  12.719  24.879  1.00  0.00     0.166 HD
ATOM     14  H41 UNL     1      17.170  14.072  23.926  1.00  0.00     0.166 HD
ENDBRANCH  10  12
ENDBRANCH   9  10
ENDBRANCH   8   9
ENDBRANCH   7   8
ENDBRANCH   5   7
BRANCH   1  15
HETATM   15  C1  UNL     1      13.950   6.782  26.067  1.00  0.00     0.121 C 
HETATM   16  N1  UNL     1      12.678   6.810  26.270  1.00  0.00    -0.387 N 
ATOM     17  H12 UNL     1      12.231   6.130  26.885  1.00  0.00     0.157 HD
ATOM     18  H11 UNL     1      12.132   7.532  25.798  1.00  0.00     0.157 HD
HETATM   19  N2  UNL     1      14.708   5.779  26.723  1.00  0.00    -0.082 NA
ENDBRANCH   1  15
TORSDOF 6
ENDMDL
MODEL 2
REMARK VINA RESULT: -6.938775703      1.006      1.006
REMARK  6 active torsions:
REMARK  status: ('A' for Active; 'I' for Inactive)
REMARK    1  A    between atoms: C1_4  and  C2_6 
REMARK    2  A    between atoms: N3_10  and  C6_11 
REMARK    3  A    between atoms: C6_11  and  C7_12 
REMARK    4  A    between atoms: C7_12  and  C8_13 
REMARK    5  A    between atoms: C8_13  and  S1_14 
REMARK    6  A    between atoms: S1_14  and  N4_15 
ROOT
HETATM    1  C2  UNL     1      14.594   7.763  25.179  1.00  0.00     0.020 A 
HETATM    2  C3  UNL     1      13.786   8.494  24.346  1.00  0.00     0.017 A 
HETATM    3  C4  UNL     1      14.358   9.411  23.503  1.00  0.00     0.018 A 
HETATM    4  C5  UNL     1      15.716   9.565  23.521  1.00  0.00     0.090 A 
HETATM    5  N3  UNL     1      16.538   8.862  24.328  1.00  0.00    -0.365 N 
HETATM    6  C9  UNL     1      15.952   7.960  25.154  1.00  0.00     0.105 A 
ENDROOT
BRANCH   5   7
HETATM    7  C6  UNL     1      17.970   9.032  24.341  1.00  0.00     0.128 C 
BRANCH   7   8
HETATM    8  C7  UNL     1      18.277  10.448  24.732  1.00  0.00     0.034 C 
BRANCH   8   9
HETATM    9  C8  UNL     1      19.115  11.162  23.706  1.00  0.00     0.133 C 
BRANCH   9  10
HETATM   10  S1  UNL     1      18.310  12.693  23.221  1.00  0.00     0.107 S 
HETATM   11  O1  UNL     1      19.444  13.922  23.089  1.00  0.00    -0.236 OA
BRANCH  10  12
HETATM   12  N4  UNL     1      17.666  12.434  21.620  1.00  0.00    -0.350 NA
ATOM     13  H42 UNL     1      16.727  12.054  21.741  1.00  0.00     0.166 HD
ATOM     14  H41 UNL     1      17.617  13.349  21.172  1.00  0.00     0.166 HD
ENDBRANCH  10  12
ENDBRANCH   9  10
ENDBRANCH   8   9
ENDBRANCH   7   8
ENDBRANCH   5   7
BRANCH   1  15
HETATM   15  C1  UNL     1      13.952   6.783  26.075  1.00  0.00     0.121 C 
HETATM   16  N1  UNL     1      12.683   6.819  26.293  1.00  0.00    -0.387 N 
ATOM     17  H12 UNL     1      12.238   6.142  26.913  1.00  0.00     0.157 HD
ATOM     18  H11 UNL     1      12.136   7.545  25.828  1.00  0.00     0.157 HD
HETATM   19  N2  UNL     1      14.711   5.774  26.720  1.00  0.00    -0.082 NA
ENDBRANCH   1  15
TORSDOF 6
ENDMDL
MODEL 3
REMARK VINA RESULT: -6.933898775      2.681      2.691
REMARK  6 active torsions:
REMARK  status: ('A' for Active; 'I' for Inactive)
REMARK    1  A    between atoms: C1_4  and  C2_6 
REMARK    2  A    between atoms: N3_10  and  C6_11 
REMARK    3  A    between atoms: C6_11  and  C7_12 
REMARK    4  A    between atoms: C7_12  and  C8_13 
REMARK    5  A    between atoms: C8_13  and  S1_14 
REMARK    6  A    between atoms: S1_14  and  N4_15 
ROOT
HETATM    1  C2  UNL     1      14.525   7.738  25.194  1.00  0.00     0.020 A 
HETATM    2  C3  UNL     1      13.719   8.489  24.377  1.00  0.00     0.017 A 
HETATM    3  C4  UNL     1      14.296   9.394  23.523  1.00  0.00     0.018 A 
HETATM    4  C5  UNL     1      15.658   9.517  23.518  1.00  0.00     0.090 A 
HETATM    5  N3  UNL     1      16.477   8.794  24.309  1.00  0.00    -0.365 N 
HETATM    6  C9  UNL     1      15.886   7.905  25.145  1.00  0.00     0.105 A 
ENDROOT
BRANCH   5   7
HETATM    7  C6  UNL     1      17.913   8.931  24.297  1.00  0.00     0.128 C 
BRANCH   7   8
HETATM    8  C7  UNL     1      18.258  10.355  24.620  1.00  0.00     0.034 C 
BRANCH   8   9
HETATM    9  C8  UNL     1      19.625  10.495  25.233  1.00  0.00     0.133 C 
BRANCH   9  10
HETATM   10  S1  UNL     1      19.492  10.489  27.025  1.00  0.00     0.107 S 
HETATM   11  O1  UNL     1      19.015   8.973  27.560  1.00  0.00    -0.236 OA
BRANCH  10  12
HETATM   12  N4  UNL     1      21.100  10.754  27.647  1.00  0.00    -0.350 NA
ATOM     13  H42 UNL     1      20.999  10.954  28.642  1.00  0.00     0.166 HD
ATOM     14  H41 UNL     1      21.613   9.882  27.517  1.00  0.00     0.166 HD
ENDBRANCH  10  12
ENDBRANCH   9  10
ENDBRANCH   8   9
ENDBRANCH   7   8
ENDBRANCH   5   7
BRANCH   1  15
HETATM   15  C1  UNL     1      13.876   6.773  26.101  1.00  0.00     0.121 C 
HETATM   16  N1  UNL     1      12.612   6.838  26.341  1.00  0.00    -0.387 N 
ATOM     17  H12 UNL     1      12.164   6.170  26.968  1.00  0.00     0.157 HD
ATOM     18  H11 UNL     1      12.074   7.576  25.886  1.00  0.00     0.157 HD
HETATM   19  N2  UNL     1      14.623   5.746  26.732  1.00  0.00    -0.082 NA
ENDBRANCH   1  15
TORSDOF 6
ENDMDL
MODEL 4
REMARK VINA RESULT: -6.758384550      2.175      2.286
REMARK  6 active torsions:
REMARK  status: ('A' for Active; 'I' for Inactive)
REMARK    1  A    between atoms: C1_4  and  C2_6 
REMARK    2  A    between atoms: N3_10  and  C6_11 
REMARK    3  A    between atoms: C6_11  and  C7_12 
REMARK    4  A    between atoms: C7_12  and  C8_13 
REMARK    5  A    between atoms: C8_13  and  S1_14 
REMARK    6  A    between atoms: S1_14  and  N4_15 
ROOT
HETATM    1  C2  UNL     1      14.476   7.717  25.194  1.00  0.00     0.020 A 
HETATM    2  C3  UNL     1      13.664   8.419  24.341  1.00  0.00     0.017 A 
HETATM    3  C4  UNL     1      14.230   9.323  23.479  1.00  0.00     0.018 A 
HETATM    4  C5  UNL     1      15.586   9.494  23.502  1.00  0.00     0.090 A 
HETATM    5  N3  UNL     1      16.411   8.819  24.330  1.00  0.00    -0.365 N 
HETATM    6  C9  UNL     1      15.831   7.930  25.173  1.00  0.00     0.105 A 
ENDROOT
BRANCH   5   7
HETATM    7  C6  UNL     1      17.841   9.007  24.348  1.00  0.00     0.128 C 
BRANCH   7   8
HETATM    8  C7  UNL     1      18.127  10.475  24.465  1.00  0.00     0.034 C 
BRANCH   8   9
HETATM    9  C8  UNL     1      19.269  10.914  23.589  1.00  0.00     0.133 C 
BRANCH   9  10
HETATM   10  S1  UNL     1      20.830  10.619  24.428  1.00  0.00     0.107 S 
HETATM   11  O1  UNL     1      20.548  10.089  25.994  1.00  0.00    -0.236 OA
BRANCH  10  12
HETATM   12  N4  UNL     1      21.609   9.303  23.588  1.00  0.00    -0.350 NA
ATOM     13  H42 UNL     1      21.013   8.485  23.710  1.00  0.00     0.166 HD
ATOM     14  H41 UNL     1      21.646   9.566  22.603  1.00  0.00     0.166 HD
ENDBRANCH  10  12
ENDBRANCH   9  10
ENDBRANCH   8   9
ENDBRANCH   7   8
ENDBRANCH   5   7
BRANCH   1  15
HETATM   15  C1  UNL     1      13.839   6.750  26.109  1.00  0.00     0.121 C 
HETATM   16  N1  UNL     1      12.579   6.816  26.368  1.00  0.00    -0.387 N 
ATOM     17  H12 UNL     1      12.139   6.147  27.000  1.00  0.00     0.157 HD
ATOM     18  H11 UNL     1      12.035   7.555  25.921  1.00  0.00     0.157 HD
HETATM   19  N2  UNL     1      14.595   5.722  26.729  1.00  0.00    -0.082 NA
ENDBRANCH   1  15
TORSDOF 6
ENDMDL
MODEL 5
REMARK VINA RESULT: -6.664178596      2.235      2.276
REMARK  6 active torsions:
REMARK  status: ('A' for Active; 'I' for Inactive)
REMARK    1  A    between atoms: C1_4  and  C2_6 
REMARK    2  A    between atoms: N3_10  and  C6_11 
REMARK    3  A    between atoms: C6_11  and  C7_12 
REMARK    4  A    between atoms: C7_12  and  C8_13 
REMARK    5  A    between atoms: C8_13  and  S1_14 
REMARK    6  A    between atoms: S1_14  and  N4_15 
ROOT
HETATM    1  C2  UNL     1      14.653   7.782  25.147  1.00  0.00     0.020 A 
HETATM    2  C3  UNL     1      13.875   8.478  24.257  1.00  0.00     0.017 A 
HETATM    3  C4  UNL     1      14.466   9.418  23.452  1.00  0.00     0.018 A 
HETATM    4  C5  UNL     1      15.812   9.630  23.566  1.00  0.00     0.090 A 
HETATM    5  N3  UNL     1      16.603   8.962  24.431  1.00  0.00    -0.365 N 
HETATM    6  C9  UNL     1      15.999   8.037  25.217  1.00  0.00     0.105 A 
ENDROOT
BRANCH   5   7
HETATM    7  C6  UNL     1      18.023   9.193  24.544  1.00  0.00     0.128 C 
BRANCH   7   8
HETATM    8  C7  UNL     1      18.314  10.595  24.098  1.00  0.00     0.034 C 
BRANCH   8   9
HETATM    9  C8  UNL     1      18.799  11.472  25.222  1.00  0.00     0.133 C 
BRANCH   9  10
HETATM   10  S1  UNL     1      20.435  10.943  25.744  1.00  0.00     0.107 S 
HETATM   11  O1  UNL     1      21.521  12.213  25.602  1.00  0.00    -0.236 OA
BRANCH  10  12
HETATM   12  N4  UNL     1      20.321  10.571  27.445  1.00  0.00    -0.350 NA
ATOM     13  H42 UNL     1      20.715   9.638  27.567  1.00  0.00     0.166 HD
ATOM     14  H41 UNL     1      20.894  11.259  27.934  1.00  0.00     0.166 HD
ENDBRANCH  10  12
ENDBRANCH   9  10
ENDBRANCH   8   9
ENDBRANCH   7   8
ENDBRANCH   5   7
BRANCH   1  15
HETATM   15  C1  UNL     1      13.991   6.777  25.999  1.00  0.00     0.121 C 
HETATM   16  N1  UNL     1      12.708   6.750  26.116  1.00  0.00    -0.387 N 
ATOM     17  H12 UNL     1      12.250   6.055  26.705  1.00  0.00     0.157 HD
ATOM     18  H11 UNL     1      12.165   7.445  25.601  1.00  0.00     0.157 HD
HETATM   19  N2  UNL     1      14.746   5.812  26.714  1.00  0.00    -0.082 NA
ENDBRANCH   1  15
TORSDOF 6
ENDMDL
