MODEL 1
REMARK VINA RESULT: -6.744371382      0.000      0.000
REMARK  3 active torsions:
REMARK  status: ('A' for Active; 'I' for Inactive)
REMARK    1  A    between atoms: N3_4  and  C2_6 
REMARK    2  A    between atoms: C2_6  and  C3_7 
REMARK    3  A    between atoms: C2_6  and  C9_13 
ROOT
HETATM    1  C2  UNL     1      28.477  10.860  19.972  1.00  0.00     0.093 C 
ENDROOT
BRANCH   1   2
HETATM    2  N3  UNL     1      28.397  11.891  18.882  1.00  0.00    -0.361 N 
HETATM    3  C1  UNL     1      27.455  12.793  18.949  1.00  0.00     0.197 C 
HETATM    4  N1  UNL     1      27.326  13.794  17.951  1.00  0.00    -0.067 NA
HETATM    5  N2  UNL     1      26.509  12.828  20.014  1.00  0.00    -0.067 NA
ATOM      6  H3  UNL     1      29.062  11.888  18.109  1.00  0.00     0.162 HD
ENDBRANCH   1   2
BRANCH   1   7
HETATM    7  C3  UNL     1      27.560   9.750  19.630  1.00  0.00     0.009 C 
HETATM    8  C4  UNL     1      27.548   9.270  18.229  1.00  0.00     0.007 C 
HETATM    9  C5  UNL     1      27.081   7.827  18.124  1.00  0.00     0.000 C 
HETATM   10  C6  UNL     1      26.062   7.475  19.155  1.00  0.00     0.000 C 
HETATM   11  C7  UNL     1      26.372   7.842  20.555  1.00  0.00     0.000 C 
HETATM   12  C8  UNL     1      27.686   8.579  20.621  1.00  0.00     0.007 C 
ENDBRANCH   1   7
BRANCH   1  13
HETATM   13  C9  UNL     1      29.935  10.567  20.045  1.00  0.00     0.026 C 
HETATM   14  C10 UNL     1      30.866  11.242  19.130  1.00  0.00     0.028 C 
HETATM   15  C11 UNL     1      32.001  11.986  19.840  1.00  0.00     0.132 C 
HETATM   16  N4  UNL     1      32.958  11.006  20.320  1.00  0.00    -0.320 N 
HETATM   17  S1  UNL     1      32.098  10.050  21.491  1.00  0.00     0.226 S 
ATOM     18  H4  UNL     1      33.931  10.900  20.031  1.00  0.00     0.172 HD
HETATM   19  O1  UNL     1      32.735  10.111  22.832  1.00  0.00    -0.206 OA
HETATM   20  O2  UNL     1      32.050   8.643  20.947  1.00  0.00    -0.206 OA
HETATM   21  C12 UNL     1      30.437  10.666  21.506  1.00  0.00     0.169 C 
ENDBRANCH   1  13
TORSDOF 3
ENDMDL
MODEL 2
REMARK VINA RESULT: -6.570639205      3.279      4.499
REMARK  3 active torsions:
REMARK  status: ('A' for Active; 'I' for Inactive)
REMARK    1  A    between atoms: N3_4  and  C2_6 
REMARK    2  A    between atoms: C2_6  and  C3_7 
REMARK    3  A    between atoms: C2_6  and  C9_13 
ROOT
HETATM    1  C2  UNL     1      29.621  10.322  19.815  1.00  0.00     0.093 C 
ENDROOT
BRANCH   1   2
HETATM    2  N3  UNL     1      30.609   9.870  20.854  1.00  0.00    -0.361 N 
HETATM    3  C1  UNL     1      31.708   9.290  20.454  1.00  0.00     0.197 C 
HETATM    4  N1  UNL     1      32.681   8.841  21.385  1.00  0.00    -0.067 NA
HETATM    5  N2  UNL     1      31.997   9.074  19.076  1.00  0.00    -0.067 NA
ATOM      6  H3  UNL     1      30.425  10.013  21.846  1.00  0.00     0.162 HD
ENDBRANCH   1   2
BRANCH   1   7
HETATM    7  C3  UNL     1      28.605   9.260  19.647  1.00  0.00     0.009 C 
HETATM    8  C4  UNL     1      27.832   8.847  20.840  1.00  0.00     0.007 C 
HETATM    9  C5  UNL     1      26.483   8.251  20.470  1.00  0.00     0.000 C 
HETATM   10  C6  UNL     1      26.519   7.508  19.177  1.00  0.00     0.000 C 
HETATM   11  C7  UNL     1      27.140   8.198  18.024  1.00  0.00     0.000 C 
HETATM   12  C8  UNL     1      27.678   9.540  18.451  1.00  0.00     0.007 C 
ENDBRANCH   1   7
BRANCH   1  13
HETATM   13  C9  UNL     1      29.174  11.643  20.334  1.00  0.00     0.026 C 
HETATM   14  C10 UNL     1      29.707  12.151  21.607  1.00  0.00     0.028 C 
HETATM   15  C11 UNL     1      30.349  13.536  21.499  1.00  0.00     0.132 C 
HETATM   16  N4  UNL     1      29.290  14.523  21.386  1.00  0.00    -0.320 N 
HETATM   17  S1  UNL     1      28.480  14.165  19.889  1.00  0.00     0.226 S 
ATOM     18  H4  UNL     1      29.068  15.268  22.046  1.00  0.00     0.172 HD
HETATM   19  O1  UNL     1      28.522  15.313  18.947  1.00  0.00    -0.206 OA
HETATM   20  O2  UNL     1      27.067  13.775  20.248  1.00  0.00    -0.206 OA
HETATM   21  C12 UNL     1      29.273  12.724  19.231  1.00  0.00     0.169 C 
ENDBRANCH   1  13
TORSDOF 3
ENDMDL
MODEL 3
REMARK VINA RESULT: -6.519092295      3.625      4.651
REMARK  3 active torsions:
REMARK  status: ('A' for Active; 'I' for Inactive)
REMARK    1  A    between atoms: N3_4  and  C2_6 
REMARK    2  A    between atoms: C2_6  and  C3_7 
REMARK    3  A    between atoms: C2_6  and  C9_13 
ROOT
HETATM    1  C2  UNL     1      28.344  11.015  19.163  1.00  0.00     0.093 C 
ENDROOT
BRANCH   1   2
HETATM    2  N3  UNL     1      28.470  11.729  20.480  1.00  0.00    -0.361 N 
HETATM    3  C1  UNL     1      29.664  11.902  20.980  1.00  0.00     0.197 C 
HETATM    4  N1  UNL     1      29.850  12.569  22.219  1.00  0.00    -0.067 NA
HETATM    5  N2  UNL     1      30.840  11.440  20.321  1.00  0.00    -0.067 NA
ATOM      6  H3  UNL     1      27.644  12.069  20.971  1.00  0.00     0.162 HD
ENDBRANCH   1   2
BRANCH   1   7
HETATM    7  C3  UNL     1      27.477   9.831  19.357  1.00  0.00     0.009 C 
HETATM    8  C4  UNL     1      27.123   9.031  18.163  1.00  0.00     0.007 C 
HETATM    9  C5  UNL     1      26.782   7.593  18.520  1.00  0.00     0.000 C 
HETATM   10  C6  UNL     1      26.126   7.471  19.855  1.00  0.00     0.000 C 
HETATM   11  C7  UNL     1      26.775   8.170  20.987  1.00  0.00     0.000 C 
HETATM   12  C8  UNL     1      27.981   8.935  20.502  1.00  0.00     0.007 C 
ENDBRANCH   1   7
BRANCH   1  13
HETATM   13  C9  UNL     1      27.870  12.088  18.248  1.00  0.00     0.026 C 
HETATM   14  C10 UNL     1      27.117  13.231  18.784  1.00  0.00     0.028 C 
HETATM   15  C11 UNL     1      27.728  14.591  18.436  1.00  0.00     0.132 C 
HETATM   16  N4  UNL     1      27.444  14.876  17.041  1.00  0.00    -0.320 N 
HETATM   17  S1  UNL     1      28.273  13.643  16.137  1.00  0.00     0.226 S 
ATOM     18  H4  UNL     1      26.877  15.638  16.670  1.00  0.00     0.172 HD
HETATM   19  O1  UNL     1      29.268  14.221  15.196  1.00  0.00    -0.206 OA
HETATM   20  O2  UNL     1      27.210  12.845  15.422  1.00  0.00    -0.206 OA
HETATM   21  C12 UNL     1      29.021  12.572  17.333  1.00  0.00     0.169 C 
ENDBRANCH   1  13
TORSDOF 3
ENDMDL
MODEL 4
REMARK VINA RESULT: -6.407830421      2.671      4.024
REMARK  3 active torsions:
REMARK  status: ('A' for Active; 'I' for Inactive)
REMARK    1  A    between atoms: N3_4  and  C2_6 
REMARK    2  A    between atoms: C2_6  and  C3_7 
REMARK    3  A    between atoms: C2_6  and  C9_13 
ROOT
HETATM    1  C2  UNL     1      29.737  10.752  19.631  1.00  0.00     0.093 C 
ENDROOT
BRANCH   1   2
HETATM    2  N3  UNL     1      30.643  10.120  20.650  1.00  0.00    -0.361 N 
HETATM    3  C1  UNL     1      31.727   9.524  20.232  1.00  0.00     0.197 C 
HETATM    4  N1  UNL     1      32.624   8.909  21.145  1.00  0.00    -0.067 NA
HETATM    5  N2  UNL     1      32.074   9.455  18.853  1.00  0.00    -0.067 NA
ATOM      6  H3  UNL     1      30.417  10.156  21.644  1.00  0.00     0.162 HD
ENDBRANCH   1   2
BRANCH   1   7
HETATM    7  C3  UNL     1      28.509   9.932  19.529  1.00  0.00     0.009 C 
HETATM    8  C4  UNL     1      28.182   9.339  18.212  1.00  0.00     0.007 C 
HETATM    9  C5  UNL     1      27.319   8.094  18.345  1.00  0.00     0.000 C 
HETATM   10  C6  UNL     1      26.385   8.163  19.507  1.00  0.00     0.000 C 
HETATM   11  C7  UNL     1      26.963   8.562  20.809  1.00  0.00     0.000 C 
HETATM   12  C8  UNL     1      28.428   8.882  20.651  1.00  0.00     0.007 C 
ENDBRANCH   1   7
BRANCH   1  13
HETATM   13  C9  UNL     1      29.606  12.150  20.124  1.00  0.00     0.026 C 
HETATM   14  C10 UNL     1      28.562  13.027  19.576  1.00  0.00     0.028 C 
HETATM   15  C11 UNL     1      27.640  13.630  20.639  1.00  0.00     0.132 C 
HETATM   16  N4  UNL     1      28.364  14.685  21.326  1.00  0.00    -0.320 N 
HETATM   17  S1  UNL     1      29.693  13.893  22.122  1.00  0.00     0.226 S 
ATOM     18  H4  UNL     1      28.141  15.679  21.339  1.00  0.00     0.172 HD
HETATM   19  O1  UNL     1      29.655  14.093  23.594  1.00  0.00    -0.206 OA
HETATM   20  O2  UNL     1      30.954  14.445  21.505  1.00  0.00    -0.206 OA
HETATM   21  C12 UNL     1      29.590  12.183  21.672  1.00  0.00     0.169 C 
ENDBRANCH   1  13
TORSDOF 3
ENDMDL
MODEL 5
REMARK VINA RESULT: -6.341697553      3.473      4.744
REMARK  3 active torsions:
REMARK  status: ('A' for Active; 'I' for Inactive)
REMARK    1  A    between atoms: N3_4  and  C2_6 
REMARK    2  A    between atoms: C2_6  and  C3_7 
REMARK    3  A    between atoms: C2_6  and  C9_13 
ROOT
HETATM    1  C2  UNL     1      29.895  11.120  20.123  1.00  0.00     0.093 C 
ENDROOT
BRANCH   1   2
HETATM    2  N3  UNL     1      30.598  10.805  21.414  1.00  0.00    -0.361 N 
HETATM    3  C1  UNL     1      31.888  10.605  21.385  1.00  0.00     0.197 C 
HETATM    4  N1  UNL     1      32.609  10.304  22.570  1.00  0.00    -0.067 NA
HETATM    5  N2  UNL     1      32.643  10.675  20.179  1.00  0.00    -0.067 NA
ATOM      6  H3  UNL     1      30.080  10.749  22.290  1.00  0.00     0.162 HD
ENDBRANCH   1   2
BRANCH   1   7
HETATM    7  C3  UNL     1      29.002   9.988  19.792  1.00  0.00     0.009 C 
HETATM    8  C4  UNL     1      28.366   9.258  20.912  1.00  0.00     0.007 C 
HETATM    9  C5  UNL     1      27.075   8.575  20.489  1.00  0.00     0.000 C 
HETATM   10  C6  UNL     1      27.110   8.104  19.074  1.00  0.00     0.000 C 
HETATM   11  C7  UNL     1      27.566   9.076  18.055  1.00  0.00     0.000 C 
HETATM   12  C8  UNL     1      27.970  10.370  18.716  1.00  0.00     0.007 C 
ENDBRANCH   1   7
BRANCH   1  13
HETATM   13  C9  UNL     1      29.274  12.445  20.397  1.00  0.00     0.026 C 
HETATM   14  C10 UNL     1      29.496  13.105  21.691  1.00  0.00     0.028 C 
HETATM   15  C11 UNL     1      30.067  14.521  21.573  1.00  0.00     0.132 C 
HETATM   16  N4  UNL     1      29.002  15.408  21.141  1.00  0.00    -0.320 N 
HETATM   17  S1  UNL     1      28.549  14.854  19.556  1.00  0.00     0.226 S 
ATOM     18  H4  UNL     1      28.603  16.191  21.659  1.00  0.00     0.172 HD
HETATM   19  O1  UNL     1      28.726  15.911  18.528  1.00  0.00    -0.206 OA
HETATM   20  O2  UNL     1      27.116  14.390  19.655  1.00  0.00    -0.206 OA
HETATM   21  C12 UNL     1      29.544  13.425  19.230  1.00  0.00     0.169 C 
ENDBRANCH   1  13
TORSDOF 3
ENDMDL
