MODEL 1
REMARK VINA RESULT: -6.463329781      0.000      0.000
REMARK  5 active torsions:
REMARK  status: ('A' for Active; 'I' for Inactive)
REMARK    1  A    between atoms: C1_4  and  C2_5 
REMARK    2  A    between atoms: C1_4  and  N3_10 
REMARK    3  A    between atoms: C2_5  and  N2_6 
REMARK    4  A    between atoms: N3_10  and  C6_12 
REMARK    5  A    between atoms: C9_15  and  C10_16 
ROOT
HETATM    1  C6  UNL     1      27.927  11.161  18.839  1.00  0.00     0.092 C 
HETATM    2  C7  UNL     1      28.465  11.078  20.208  1.00  0.00     0.015 C 
HETATM    3  C8  UNL     1      29.999  11.206  20.251  1.00  0.00     0.026 C 
HETATM    4  C9  UNL     1      29.996   9.675  20.094  1.00  0.00     0.043 C 
HETATM    5  C11 UNL     1      30.008   9.235  18.692  1.00  0.00     0.024 C 
HETATM    6  C12 UNL     1      28.719   8.891  18.064  1.00  0.00    -0.002 A 
HETATM    7  C13 UNL     1      27.560   8.660  18.878  1.00  0.00    -0.003 A 
HETATM    8  C14 UNL     1      27.713   8.682  20.359  1.00  0.00     0.011 C 
HETATM    9  C15 UNL     1      28.666   9.719  20.765  1.00  0.00     0.009 C 
HETATM   10  C16 UNL     1      27.561   9.905  18.169  1.00  0.00     0.018 A 
ENDROOT
BRANCH   1  11
HETATM   11  N3  UNL     1      26.800  12.109  18.772  1.00  0.00    -0.373 N 
ATOM     12  H3  UNL     1      25.841  11.764  18.730  1.00  0.00     0.161 HD
BRANCH  11  13
HETATM   13  C1  UNL     1      27.057  13.508  18.767  1.00  0.00     0.099 C 
HETATM   14  N1  UNL     1      27.329  14.065  17.641  1.00  0.00    -0.388 N 
ATOM     15  H12 UNL     1      27.514  15.069  17.638  1.00  0.00     0.157 HD
ATOM     16  H11 UNL     1      27.355  13.512  16.785  1.00  0.00     0.157 HD
BRANCH  13  17
HETATM   17  C2  UNL     1      27.019  14.318  20.020  1.00  0.00     0.347 C 
BRANCH  17  18
HETATM   18  N2  UNL     1      28.368  14.565  20.460  1.00  0.00     0.095 N 
HETATM   19  C3  UNL     1      28.569  14.464  21.883  1.00  0.00     0.274 C 
HETATM   20  C4  UNL     1      28.354  15.948  22.078  1.00  0.00     0.060 C 
HETATM   21  C5  UNL     1      28.643  15.997  20.582  1.00  0.00     0.274 C 
ENDBRANCH  17  18
ENDBRANCH  13  17
ENDBRANCH  11  13
ENDBRANCH   1  11
BRANCH   4  22
HETATM   22  C10 UNL     1      31.101   9.103  20.906  1.00  0.00     0.240 C 
HETATM   23  N4  UNL     1      31.959   8.111  20.351  1.00  0.00    -0.061 NA
HETATM   24  O1  UNL     1      31.332   9.456  22.092  1.00  0.00    -0.276 OA
ENDBRANCH   4  22
TORSDOF 5
ENDMDL
MODEL 2
REMARK VINA RESULT: -6.431474952      3.383      6.351
REMARK  5 active torsions:
REMARK  status: ('A' for Active; 'I' for Inactive)
REMARK    1  A    between atoms: C1_4  and  C2_5 
REMARK    2  A    between atoms: C1_4  and  N3_10 
REMARK    3  A    between atoms: C2_5  and  N2_6 
REMARK    4  A    between atoms: N3_10  and  C6_12 
REMARK    5  A    between atoms: C9_15  and  C10_16 
ROOT
HETATM    1  C6  UNL     1      27.460   9.537  19.562  1.00  0.00     0.092 C 
HETATM    2  C7  UNL     1      27.809  10.948  19.807  1.00  0.00     0.015 C 
HETATM    3  C8  UNL     1      26.791  11.925  19.188  1.00  0.00     0.026 C 
HETATM    4  C9  UNL     1      27.688  11.857  17.939  1.00  0.00     0.043 C 
HETATM    5  C11 UNL     1      27.314  10.779  17.013  1.00  0.00     0.024 C 
HETATM    6  C12 UNL     1      28.046   9.502  17.106  1.00  0.00    -0.002 A 
HETATM    7  C13 UNL     1      29.289   9.434  17.819  1.00  0.00    -0.003 A 
HETATM    8  C14 UNL     1      29.861  10.690  18.376  1.00  0.00     0.011 C 
HETATM    9  C15 UNL     1      28.799  11.561  18.889  1.00  0.00     0.009 C 
HETATM   10  C16 UNL     1      28.174   8.832  18.489  1.00  0.00     0.018 A 
ENDROOT
BRANCH   1  11
HETATM   11  N3  UNL     1      27.533   8.753  20.809  1.00  0.00    -0.373 N 
ATOM     12  H3  UNL     1      28.349   8.828  21.416  1.00  0.00     0.161 HD
BRANCH  11  13
HETATM   13  C1  UNL     1      26.457   7.892  21.162  1.00  0.00     0.099 C 
HETATM   14  N1  UNL     1      26.118   7.830  22.400  1.00  0.00    -0.388 N 
ATOM     15  H12 UNL     1      25.346   7.212  22.652  1.00  0.00     0.157 HD
ATOM     16  H11 UNL     1      26.611   8.386  23.098  1.00  0.00     0.157 HD
BRANCH  13  17
HETATM   17  C2  UNL     1      25.736   7.079  20.140  1.00  0.00     0.347 C 
BRANCH  17  18
HETATM   18  N2  UNL     1      24.468   6.660  20.682  1.00  0.00     0.095 N 
HETATM   19  C3  UNL     1      24.333   5.239  20.877  1.00  0.00     0.274 C 
HETATM   20  C4  UNL     1      23.684   5.056  19.523  1.00  0.00     0.060 C 
HETATM   21  C5  UNL     1      23.443   6.556  19.643  1.00  0.00     0.274 C 
ENDBRANCH  17  18
ENDBRANCH  13  17
ENDBRANCH  11  13
ENDBRANCH   1  11
BRANCH   4  22
HETATM   22  C10 UNL     1      27.735  13.198  17.302  1.00  0.00     0.240 C 
HETATM   23  N4  UNL     1      27.404  13.350  15.927  1.00  0.00    -0.061 NA
HETATM   24  O1  UNL     1      28.060  14.241  17.927  1.00  0.00    -0.276 OA
ENDBRANCH   4  22
TORSDOF 5
ENDMDL
MODEL 3
REMARK VINA RESULT: -6.383908791      2.958      5.768
REMARK  5 active torsions:
REMARK  status: ('A' for Active; 'I' for Inactive)
REMARK    1  A    between atoms: C1_4  and  C2_5 
REMARK    2  A    between atoms: C1_4  and  N3_10 
REMARK    3  A    between atoms: C2_5  and  N2_6 
REMARK    4  A    between atoms: N3_10  and  C6_12 
REMARK    5  A    between atoms: C9_15  and  C10_16 
ROOT
HETATM    1  C6  UNL     1      28.455   9.914  20.357  1.00  0.00     0.092 C 
HETATM    2  C7  UNL     1      29.783   9.311  20.148  1.00  0.00     0.015 C 
HETATM    3  C8  UNL     1      30.589   9.184  21.454  1.00  0.00     0.026 C 
HETATM    4  C9  UNL     1      31.107  10.592  21.114  1.00  0.00     0.043 C 
HETATM    5  C11 UNL     1      30.268  11.668  21.660  1.00  0.00     0.024 C 
HETATM    6  C12 UNL     1      29.255  12.273  20.776  1.00  0.00    -0.002 A 
HETATM    7  C13 UNL     1      29.323  12.068  19.357  1.00  0.00    -0.003 A 
HETATM    8  C14 UNL     1      30.481  11.317  18.800  1.00  0.00     0.011 C 
HETATM    9  C15 UNL     1      30.864  10.218  19.691  1.00  0.00     0.009 C 
HETATM   10  C16 UNL     1      28.288  11.336  20.024  1.00  0.00     0.018 A 
ENDROOT
BRANCH   1  11
HETATM   11  N3  UNL     1      27.405   9.119  19.694  1.00  0.00    -0.373 N 
ATOM     12  H3  UNL     1      27.202   9.260  18.704  1.00  0.00     0.161 HD
BRANCH  11  13
HETATM   13  C1  UNL     1      26.677   8.152  20.442  1.00  0.00     0.099 C 
HETATM   14  N1  UNL     1      26.677   8.259  21.723  1.00  0.00    -0.388 N 
ATOM     15  H12 UNL     1      26.155   7.566  22.259  1.00  0.00     0.157 HD
ATOM     16  H11 UNL     1      27.185   9.018  22.177  1.00  0.00     0.157 HD
BRANCH  13  17
HETATM   17  C2  UNL     1      25.934   7.043  19.777  1.00  0.00     0.347 C 
BRANCH  17  18
HETATM   18  N2  UNL     1      24.683   6.840  20.462  1.00  0.00     0.095 N 
HETATM   19  C3  UNL     1      24.469   5.501  20.949  1.00  0.00     0.274 C 
HETATM   20  C4  UNL     1      23.718   5.103  19.698  1.00  0.00     0.060 C 
HETATM   21  C5  UNL     1      23.583   6.612  19.523  1.00  0.00     0.274 C 
ENDBRANCH  17  18
ENDBRANCH  13  17
ENDBRANCH  11  13
ENDBRANCH   1  11
BRANCH   4  22
HETATM   22  C10 UNL     1      32.535  10.692  21.511  1.00  0.00     0.240 C 
HETATM   23  N4  UNL     1      32.986  10.090  22.719  1.00  0.00    -0.061 NA
HETATM   24  O1  UNL     1      33.397  11.296  20.820  1.00  0.00    -0.276 OA
ENDBRANCH   4  22
TORSDOF 5
ENDMDL
MODEL 4
REMARK VINA RESULT: -6.307573883      3.563      6.300
REMARK  5 active torsions:
REMARK  status: ('A' for Active; 'I' for Inactive)
REMARK    1  A    between atoms: C1_4  and  C2_5 
REMARK    2  A    between atoms: C1_4  and  N3_10 
REMARK    3  A    between atoms: C2_5  and  N2_6 
REMARK    4  A    between atoms: N3_10  and  C6_12 
REMARK    5  A    between atoms: C9_15  and  C10_16 
ROOT
HETATM    1  C6  UNL     1      27.970   8.824  20.496  1.00  0.00     0.092 C 
HETATM    2  C7  UNL     1      27.272   9.800  19.640  1.00  0.00     0.015 C 
HETATM    3  C8  UNL     1      27.199   9.351  18.168  1.00  0.00     0.026 C 
HETATM    4  C9  UNL     1      28.542  10.088  18.017  1.00  0.00     0.043 C 
HETATM    5  C11 UNL     1      29.706   9.233  18.287  1.00  0.00     0.024 C 
HETATM    6  C12 UNL     1      30.301   9.279  19.635  1.00  0.00    -0.002 A 
HETATM    7  C13 UNL     1      29.981  10.356  20.527  1.00  0.00    -0.003 A 
HETATM    8  C14 UNL     1      29.119  11.463  20.029  1.00  0.00     0.011 C 
HETATM    9  C15 UNL     1      28.072  10.945  19.143  1.00  0.00     0.009 C 
HETATM   10  C16 UNL     1      29.369   9.102  20.851  1.00  0.00     0.018 A 
ENDROOT
BRANCH   1  11
HETATM   11  N3  UNL     1      27.191   8.541  21.715  1.00  0.00    -0.373 N 
ATOM     12  H3  UNL     1      27.457   8.966  22.604  1.00  0.00     0.161 HD
BRANCH  11  13
HETATM   13  C1  UNL     1      26.066   7.674  21.645  1.00  0.00     0.099 C 
HETATM   14  N1  UNL     1      25.398   7.468  22.724  1.00  0.00    -0.388 N 
ATOM     15  H12 UNL     1      24.591   6.845  22.674  1.00  0.00     0.157 HD
ATOM     16  H11 UNL     1      25.674   7.919  23.595  1.00  0.00     0.157 HD
BRANCH  13  17
HETATM   17  C2  UNL     1      25.662   7.013  20.370  1.00  0.00     0.347 C 
BRANCH  17  18
HETATM   18  N2  UNL     1      24.309   6.536  20.496  1.00  0.00     0.095 N 
HETATM   19  C3  UNL     1      24.171   5.102  20.506  1.00  0.00     0.274 C 
HETATM   20  C4  UNL     1      23.926   5.058  19.014  1.00  0.00     0.060 C 
HETATM   21  C5  UNL     1      23.612   6.536  19.210  1.00  0.00     0.274 C 
ENDBRANCH  17  18
ENDBRANCH  13  17
ENDBRANCH  11  13
ENDBRANCH   1  11
BRANCH   4  22
HETATM   22  C10 UNL     1      28.585  10.749  16.688  1.00  0.00     0.240 C 
HETATM   23  N4  UNL     1      29.682  10.523  15.810  1.00  0.00    -0.061 NA
HETATM   24  O1  UNL     1      27.679  11.521  16.277  1.00  0.00    -0.276 OA
ENDBRANCH   4  22
TORSDOF 5
ENDMDL
MODEL 5
REMARK VINA RESULT: -6.125388958      2.033      2.811
REMARK  5 active torsions:
REMARK  status: ('A' for Active; 'I' for Inactive)
REMARK    1  A    between atoms: C1_4  and  C2_5 
REMARK    2  A    between atoms: C1_4  and  N3_10 
REMARK    3  A    between atoms: C2_5  and  N2_6 
REMARK    4  A    between atoms: N3_10  and  C6_12 
REMARK    5  A    between atoms: C9_15  and  C10_16 
ROOT
HETATM    1  C6  UNL     1      28.832  11.743  19.398  1.00  0.00     0.092 C 
HETATM    2  C7  UNL     1      27.637  11.041  18.896  1.00  0.00     0.015 C 
HETATM    3  C8  UNL     1      26.751  10.494  20.030  1.00  0.00     0.026 C 
HETATM    4  C9  UNL     1      27.619   9.227  19.915  1.00  0.00     0.043 C 
HETATM    5  C11 UNL     1      28.810   9.259  20.774  1.00  0.00     0.024 C 
HETATM    6  C12 UNL     1      30.085   9.691  20.173  1.00  0.00    -0.002 A 
HETATM    7  C13 UNL     1      30.229   9.739  18.746  1.00  0.00    -0.003 A 
HETATM    8  C14 UNL     1      29.104   9.256  17.899  1.00  0.00     0.011 C 
HETATM    9  C15 UNL     1      27.815   9.625  18.492  1.00  0.00     0.009 C 
HETATM   10  C16 UNL     1      30.109  11.016  19.384  1.00  0.00     0.018 A 
ENDROOT
BRANCH   1  11
HETATM   11  N3  UNL     1      28.993  13.049  18.734  1.00  0.00    -0.373 N 
ATOM     12  H3  UNL     1      29.806  13.229  18.144  1.00  0.00     0.161 HD
BRANCH  11  13
HETATM   13  C1  UNL     1      28.007  14.058  18.919  1.00  0.00     0.099 C 
HETATM   14  N1  UNL     1      27.464  14.567  17.871  1.00  0.00    -0.388 N 
ATOM     15  H12 UNL     1      26.757  15.291  18.005  1.00  0.00     0.157 HD
ATOM     16  H11 UNL     1      27.739  14.250  16.942  1.00  0.00     0.157 HD
BRANCH  13  17
HETATM   17  C2  UNL     1      27.605  14.522  20.279  1.00  0.00     0.347 C 
BRANCH  17  18
HETATM   18  N2  UNL     1      28.780  14.948  20.996  1.00  0.00     0.095 N 
HETATM   19  C3  UNL     1      28.641  14.964  22.430  1.00  0.00     0.274 C 
HETATM   20  C4  UNL     1      28.250  16.425  22.434  1.00  0.00     0.060 C 
HETATM   21  C5  UNL     1      28.884  16.406  21.048  1.00  0.00     0.274 C 
ENDBRANCH  17  18
ENDBRANCH  13  17
ENDBRANCH  11  13
ENDBRANCH   1  11
BRANCH   4  22
HETATM   22  C10 UNL     1      26.763   8.033  20.131  1.00  0.00     0.240 C 
HETATM   23  N4  UNL     1      26.408   7.634  21.450  1.00  0.00    -0.061 NA
HETATM   24  O1  UNL     1      26.317   7.330  19.186  1.00  0.00    -0.276 OA
ENDBRANCH   4  22
TORSDOF 5
ENDMDL
