MODEL 1
REMARK VINA RESULT: -8.441950778      0.000      0.000
REMARK  11 active torsions:
REMARK  status: ('A' for Active; 'I' for Inactive)
REMARK    1  A    between atoms: C2_2  and  N1_3 
REMARK    2  A    between atoms: N2_6  and  C5_7 
REMARK    3  A    between atoms: C5_7  and  N3_9 
REMARK    4  A    between atoms: N3_9  and  C6_11 
REMARK    5  A    between atoms: C6_11  and  C7_12 
REMARK    6  A    between atoms: C7_12  and  C8_13 
REMARK    7  A    between atoms: C13_18  and  C14_19 
REMARK    8  A    between atoms: C14_19  and  C15_20 
REMARK    9  A    between atoms: C15_20  and  C16_21 
REMARK   10  A    between atoms: C16_21  and  C17_22 
REMARK   11  A    between atoms: C17_22  and  N4_23 
REMARK       I    between atoms: N4_23  and  C18_25 
ROOT
HETATM    1  N1  UNL     1       2.531  17.983  18.385  1.00  0.00     0.091 N 
HETATM    2  C3  UNL     1       2.166  19.349  18.605  1.00  0.00     0.292 C 
HETATM    3  C4  UNL     1       0.913  19.816  18.007  1.00  0.00     0.156 C 
HETATM    4  N2  UNL     1       0.263  19.027  17.030  1.00  0.00    -0.350 N 
HETATM    5  C13 UNL     1       1.015  17.848  16.495  1.00  0.00     0.115 C 
HETATM    6  C19 UNL     1       1.520  17.204  17.732  1.00  0.00     0.297 C 
ENDROOT
BRANCH   4   7
HETATM    7  C5  UNL     1      -1.025  19.317  16.564  1.00  0.00     0.170 C 
HETATM    8  S1  UNL     1      -2.168  18.158  16.663  1.00  0.00    -0.041 SA
BRANCH   7   9
HETATM    9  N3  UNL     1      -1.391  20.573  16.020  1.00  0.00    -0.367 N 
ATOM     10  H3  UNL     1      -0.838  20.935  15.243  1.00  0.00     0.161 HD
BRANCH   9  11
HETATM   11  C6  UNL     1      -2.498  21.375  16.493  1.00  0.00     0.122 C 
BRANCH  11  12
HETATM   12  C7  UNL     1      -2.478  21.663  17.951  1.00  0.00     0.024 C 
BRANCH  12  13
HETATM   13  C8  UNL     1      -2.245  23.106  18.281  1.00  0.00    -0.013 C 
HETATM   14  C9  UNL     1      -2.603  24.047  17.156  1.00  0.00     0.005 C 
HETATM   15  C10 UNL     1      -2.102  25.363  17.735  1.00  0.00     0.000 C 
HETATM   16  C11 UNL     1      -0.843  24.992  18.479  1.00  0.00     0.000 C 
HETATM   17  C12 UNL     1      -0.828  23.472  18.561  1.00  0.00     0.005 C 
ENDBRANCH  12  13
ENDBRANCH  11  12
ENDBRANCH   9  11
ENDBRANCH   7   9
ENDBRANCH   4   7
BRANCH   5  18
HETATM   18  C14 UNL     1       1.988  18.408  15.539  1.00  0.00     0.027 C 
BRANCH  18  19
HETATM   19  C15 UNL     1       3.090  17.570  15.029  1.00  0.00     0.004 C 
BRANCH  19  20
HETATM   20  C16 UNL     1       4.370  18.202  14.654  1.00  0.00     0.020 C 
BRANCH  20  21
HETATM   21  C17 UNL     1       4.267  18.587  13.165  1.00  0.00     0.122 C 
BRANCH  21  22
HETATM   22  N4  UNL     1       5.385  19.370  12.726  1.00  0.00    -0.365 N 
HETATM   23  C18 UNL     1       5.399  20.090  11.499  1.00  0.00     0.181 C 
HETATM   24  N5  UNL     1       4.664  19.743  10.491  1.00  0.00    -0.374 N 
HETATM   25  N6  UNL     1       6.230  21.228  11.339  1.00  0.00    -0.064 NA
ATOM     26  H52 UNL     1       4.065  18.925  10.606  1.00  0.00     0.158 HD
ATOM     27  H51 UNL     1       4.674  20.260   9.612  1.00  0.00     0.158 HD
ATOM     28  H4  UNL     1       6.210  19.412  13.323  1.00  0.00     0.162 HD
ENDBRANCH  21  22
ENDBRANCH  20  21
ENDBRANCH  19  20
ENDBRANCH  18  19
ENDBRANCH   5  18
BRANCH   1  29
HETATM   29  C2  UNL     1       2.956  17.349  19.614  1.00  0.00     0.268 C 
HETATM   30  C1  UNL     1       4.282  16.666  19.505  1.00  0.00     0.037 C 
ENDBRANCH   1  29
TORSDOF 11
ENDMDL
MODEL 2
REMARK VINA RESULT: -7.993122490      0.767      1.082
REMARK  11 active torsions:
REMARK  status: ('A' for Active; 'I' for Inactive)
REMARK    1  A    between atoms: C2_2  and  N1_3 
REMARK    2  A    between atoms: N2_6  and  C5_7 
REMARK    3  A    between atoms: C5_7  and  N3_9 
REMARK    4  A    between atoms: N3_9  and  C6_11 
REMARK    5  A    between atoms: C6_11  and  C7_12 
REMARK    6  A    between atoms: C7_12  and  C8_13 
REMARK    7  A    between atoms: C13_18  and  C14_19 
REMARK    8  A    between atoms: C14_19  and  C15_20 
REMARK    9  A    between atoms: C15_20  and  C16_21 
REMARK   10  A    between atoms: C16_21  and  C17_22 
REMARK   11  A    between atoms: C17_22  and  N4_23 
REMARK       I    between atoms: N4_23  and  C18_25 
ROOT
HETATM    1  N1  UNL     1       2.532  18.450  18.508  1.00  0.00     0.091 N 
HETATM    2  C3  UNL     1       1.766  19.632  18.758  1.00  0.00     0.292 C 
HETATM    3  C4  UNL     1       0.419  19.696  18.183  1.00  0.00     0.156 C 
HETATM    4  N2  UNL     1       0.029  18.759  17.199  1.00  0.00    -0.350 N 
HETATM    5  C13 UNL     1       1.100  17.878  16.634  1.00  0.00     0.115 C 
HETATM    6  C19 UNL     1       1.801  17.405  17.852  1.00  0.00     0.297 C 
ENDROOT
BRANCH   4   7
HETATM    7  C5  UNL     1      -1.292  18.642  16.754  1.00  0.00     0.170 C 
HETATM    8  S1  UNL     1      -1.708  17.327  15.884  1.00  0.00    -0.041 SA
BRANCH   7   9
HETATM    9  N3  UNL     1      -2.295  19.604  17.031  1.00  0.00    -0.367 N 
ATOM     10  H3  UNL     1      -2.962  19.396  17.774  1.00  0.00     0.161 HD
BRANCH   9  11
HETATM   11  C6  UNL     1      -2.435  20.861  16.329  1.00  0.00     0.122 C 
BRANCH  11  12
HETATM   12  C7  UNL     1      -3.032  21.959  17.134  1.00  0.00     0.024 C 
BRANCH  12  13
HETATM   13  C8  UNL     1      -2.116  23.126  17.342  1.00  0.00    -0.013 C 
HETATM   14  C9  UNL     1      -1.399  23.102  18.670  1.00  0.00     0.005 C 
HETATM   15  C10 UNL     1      -0.714  24.461  18.632  1.00  0.00     0.000 C 
HETATM   16  C11 UNL     1      -1.712  25.367  17.955  1.00  0.00     0.000 C 
HETATM   17  C12 UNL     1      -2.782  24.459  17.365  1.00  0.00     0.005 C 
ENDBRANCH  12  13
ENDBRANCH  11  12
ENDBRANCH   9  11
ENDBRANCH   7   9
ENDBRANCH   4   7
BRANCH   5  18
HETATM   18  C14 UNL     1       1.836  18.725  15.677  1.00  0.00     0.027 C 
BRANCH  18  19
HETATM   19  C15 UNL     1       3.136  18.279  15.142  1.00  0.00     0.004 C 
BRANCH  19  20
HETATM   20  C16 UNL     1       3.171  17.372  13.978  1.00  0.00     0.020 C 
BRANCH  20  21
HETATM   21  C17 UNL     1       3.312  18.251  12.720  1.00  0.00     0.122 C 
BRANCH  21  22
HETATM   22  N4  UNL     1       4.591  18.894  12.644  1.00  0.00    -0.365 N 
HETATM   23  C18 UNL     1       4.963  19.770  11.587  1.00  0.00     0.181 C 
HETATM   24  N5  UNL     1       4.421  19.696  10.413  1.00  0.00    -0.374 N 
HETATM   25  N6  UNL     1       5.952  20.765  11.788  1.00  0.00    -0.064 NA
ATOM     26  H52 UNL     1       3.709  18.980  10.269  1.00  0.00     0.158 HD
ATOM     27  H51 UNL     1       4.688  20.325   9.655  1.00  0.00     0.158 HD
ATOM     28  H4  UNL     1       5.267  18.714  13.386  1.00  0.00     0.162 HD
ENDBRANCH  21  22
ENDBRANCH  20  21
ENDBRANCH  19  20
ENDBRANCH  18  19
ENDBRANCH   5  18
BRANCH   1  29
HETATM   29  C2  UNL     1       3.153  17.962  19.720  1.00  0.00     0.268 C 
HETATM   30  C1  UNL     1       4.100  16.828  19.489  1.00  0.00     0.037 C 
ENDBRANCH   1  29
TORSDOF 11
ENDMDL
MODEL 3
REMARK VINA RESULT: -7.972144293      2.328      3.286
REMARK  11 active torsions:
REMARK  status: ('A' for Active; 'I' for Inactive)
REMARK    1  A    between atoms: C2_2  and  N1_3 
REMARK    2  A    between atoms: N2_6  and  C5_7 
REMARK    3  A    between atoms: C5_7  and  N3_9 
REMARK    4  A    between atoms: N3_9  and  C6_11 
REMARK    5  A    between atoms: C6_11  and  C7_12 
REMARK    6  A    between atoms: C7_12  and  C8_13 
REMARK    7  A    between atoms: C13_18  and  C14_19 
REMARK    8  A    between atoms: C14_19  and  C15_20 
REMARK    9  A    between atoms: C15_20  and  C16_21 
REMARK   10  A    between atoms: C16_21  and  C17_22 
REMARK   11  A    between atoms: C17_22  and  N4_23 
REMARK       I    between atoms: N4_23  and  C18_25 
ROOT
HETATM    1  N1  UNL     1      -1.446  15.222  16.022  1.00  0.00     0.091 N 
HETATM    2  C3  UNL     1      -1.931  15.804  17.236  1.00  0.00     0.292 C 
HETATM    3  C4  UNL     1      -2.088  17.261  17.269  1.00  0.00     0.156 C 
HETATM    4  N2  UNL     1      -1.513  18.054  16.249  1.00  0.00    -0.350 N 
HETATM    5  C13 UNL     1      -0.577  17.370  15.301  1.00  0.00     0.115 C 
HETATM    6  C19 UNL     1      -1.332  16.148  14.934  1.00  0.00     0.297 C 
ENDROOT
BRANCH   4   7
HETATM    7  C5  UNL     1      -1.787  19.419  16.113  1.00  0.00     0.170 C 
HETATM    8  S1  UNL     1      -3.268  19.869  15.597  1.00  0.00    -0.041 SA
BRANCH   7   9
HETATM    9  N3  UNL     1      -0.847  20.436  16.412  1.00  0.00    -0.367 N 
ATOM     10  H3  UNL     1      -0.528  21.029  15.647  1.00  0.00     0.161 HD
BRANCH   9  11
HETATM   11  C6  UNL     1      -0.309  20.687  17.731  1.00  0.00     0.122 C 
BRANCH  11  12
HETATM   12  C7  UNL     1      -1.105  21.632  18.558  1.00  0.00     0.024 C 
BRANCH  12  13
HETATM   13  C8  UNL     1      -1.224  23.004  17.966  1.00  0.00    -0.013 C 
HETATM   14  C9  UNL     1      -0.953  24.112  18.954  1.00  0.00     0.005 C 
HETATM   15  C10 UNL     1      -1.315  25.324  18.106  1.00  0.00     0.000 C 
HETATM   16  C11 UNL     1      -2.495  24.869  17.283  1.00  0.00     0.000 C 
HETATM   17  C12 UNL     1      -2.578  23.358  17.455  1.00  0.00     0.005 C 
ENDBRANCH  12  13
ENDBRANCH  11  12
ENDBRANCH   9  11
ENDBRANCH   7   9
ENDBRANCH   4   7
BRANCH   5  18
HETATM   18  C14 UNL     1       0.690  17.225  16.041  1.00  0.00     0.027 C 
BRANCH  18  19
HETATM   19  C15 UNL     1       1.852  18.063  15.688  1.00  0.00     0.004 C 
BRANCH  19  20
HETATM   20  C16 UNL     1       2.933  17.494  14.858  1.00  0.00     0.020 C 
BRANCH  20  21
HETATM   21  C17 UNL     1       2.777  18.082  13.442  1.00  0.00     0.122 C 
BRANCH  21  22
HETATM   22  N4  UNL     1       4.004  18.623  12.939  1.00  0.00    -0.365 N 
HETATM   23  C18 UNL     1       4.140  19.167  11.631  1.00  0.00     0.181 C 
HETATM   24  N5  UNL     1       3.367  18.807  10.656  1.00  0.00    -0.374 N 
HETATM   25  N6  UNL     1       5.137  20.135  11.350  1.00  0.00    -0.064 NA
ATOM     26  H52 UNL     1       2.650  18.111  10.858  1.00  0.00     0.158 HD
ATOM     27  H51 UNL     1       3.464  19.198   9.718  1.00  0.00     0.158 HD
ATOM     28  H4  UNL     1       4.822  18.618  13.548  1.00  0.00     0.162 HD
ENDBRANCH  21  22
ENDBRANCH  20  21
ENDBRANCH  19  20
ENDBRANCH  18  19
ENDBRANCH   5  18
BRANCH   1  29
HETATM   29  C2  UNL     1      -2.235  14.072  15.641  1.00  0.00     0.268 C 
HETATM   30  C1  UNL     1      -1.703  13.355  14.441  1.00  0.00     0.037 C 
ENDBRANCH   1  29
TORSDOF 11
ENDMDL
MODEL 4
REMARK VINA RESULT: -7.916544375      2.006      3.540
REMARK  11 active torsions:
REMARK  status: ('A' for Active; 'I' for Inactive)
REMARK    1  A    between atoms: C2_2  and  N1_3 
REMARK    2  A    between atoms: N2_6  and  C5_7 
REMARK    3  A    between atoms: C5_7  and  N3_9 
REMARK    4  A    between atoms: N3_9  and  C6_11 
REMARK    5  A    between atoms: C6_11  and  C7_12 
REMARK    6  A    between atoms: C7_12  and  C8_13 
REMARK    7  A    between atoms: C13_18  and  C14_19 
REMARK    8  A    between atoms: C14_19  and  C15_20 
REMARK    9  A    between atoms: C15_20  and  C16_21 
REMARK   10  A    between atoms: C16_21  and  C17_22 
REMARK   11  A    between atoms: C17_22  and  N4_23 
REMARK       I    between atoms: N4_23  and  C18_25 
ROOT
HETATM    1  N1  UNL     1      -1.989  18.193  15.733  1.00  0.00     0.091 N 
HETATM    2  C3  UNL     1      -2.133  17.199  16.752  1.00  0.00     0.292 C 
HETATM    3  C4  UNL     1      -1.413  17.415  18.010  1.00  0.00     0.156 C 
HETATM    4  N2  UNL     1      -0.409  18.408  18.084  1.00  0.00    -0.350 N 
HETATM    5  C13 UNL     1       0.020  19.041  16.797  1.00  0.00     0.115 C 
HETATM    6  C19 UNL     1      -1.276  19.363  16.153  1.00  0.00     0.297 C 
ENDROOT
BRANCH   4   7
HETATM    7  C5  UNL     1       0.176  18.796  19.295  1.00  0.00     0.170 C 
HETATM    8  S1  UNL     1       1.458  17.952  19.847  1.00  0.00    -0.041 SA
BRANCH   7   9
HETATM    9  N3  UNL     1      -0.282  19.895  20.063  1.00  0.00    -0.367 N 
ATOM     10  H3  UNL     1       0.048  19.974  21.025  1.00  0.00     0.161 HD
BRANCH   9  11
HETATM   11  C6  UNL     1      -1.187  20.912  19.574  1.00  0.00     0.122 C 
BRANCH  11  12
HETATM   12  C7  UNL     1      -0.530  22.032  18.849  1.00  0.00     0.024 C 
BRANCH  12  13
HETATM   13  C8  UNL     1      -1.413  23.226  18.651  1.00  0.00    -0.013 C 
HETATM   14  C9  UNL     1      -2.224  23.172  17.378  1.00  0.00     0.005 C 
HETATM   15  C10 UNL     1      -2.851  24.559  17.399  1.00  0.00     0.000 C 
HETATM   16  C11 UNL     1      -1.773  25.452  17.960  1.00  0.00     0.000 C 
HETATM   17  C12 UNL     1      -0.699  24.526  18.516  1.00  0.00     0.005 C 
ENDBRANCH  12  13
ENDBRANCH  11  12
ENDBRANCH   9  11
ENDBRANCH   7   9
ENDBRANCH   4   7
BRANCH   5  18
HETATM   18  C14 UNL     1       0.905  18.053  16.153  1.00  0.00     0.027 C 
BRANCH  18  19
HETATM   19  C15 UNL     1       2.277  18.431  15.764  1.00  0.00     0.004 C 
BRANCH  19  20
HETATM   20  C16 UNL     1       3.042  17.556  14.854  1.00  0.00     0.020 C 
BRANCH  20  21
HETATM   21  C17 UNL     1       2.840  18.097  13.425  1.00  0.00     0.122 C 
BRANCH  21  22
HETATM   22  N4  UNL     1       4.044  18.646  12.874  1.00  0.00    -0.365 N 
HETATM   23  C18 UNL     1       4.121  19.206  11.569  1.00  0.00     0.181 C 
HETATM   24  N5  UNL     1       3.307  18.857  10.624  1.00  0.00    -0.374 N 
HETATM   25  N6  UNL     1       5.104  20.179  11.257  1.00  0.00    -0.064 NA
ATOM     26  H52 UNL     1       2.599  18.158  10.849  1.00  0.00     0.158 HD
ATOM     27  H51 UNL     1       3.362  19.260   9.688  1.00  0.00     0.158 HD
ATOM     28  H4  UNL     1       4.887  18.634  13.448  1.00  0.00     0.162 HD
ENDBRANCH  21  22
ENDBRANCH  20  21
ENDBRANCH  19  20
ENDBRANCH  18  19
ENDBRANCH   5  18
BRANCH   1  29
HETATM   29  C2  UNL     1      -3.270  18.547  15.161  1.00  0.00     0.268 C 
HETATM   30  C1  UNL     1      -3.622  19.990  15.334  1.00  0.00     0.037 C 
ENDBRANCH   1  29
TORSDOF 11
ENDMDL
MODEL 5
REMARK VINA RESULT: -7.865008810      2.470      3.724
REMARK  11 active torsions:
REMARK  status: ('A' for Active; 'I' for Inactive)
REMARK    1  A    between atoms: C2_2  and  N1_3 
REMARK    2  A    between atoms: N2_6  and  C5_7 
REMARK    3  A    between atoms: C5_7  and  N3_9 
REMARK    4  A    between atoms: N3_9  and  C6_11 
REMARK    5  A    between atoms: C6_11  and  C7_12 
REMARK    6  A    between atoms: C7_12  and  C8_13 
REMARK    7  A    between atoms: C13_18  and  C14_19 
REMARK    8  A    between atoms: C14_19  and  C15_20 
REMARK    9  A    between atoms: C15_20  and  C16_21 
REMARK   10  A    between atoms: C16_21  and  C17_22 
REMARK   11  A    between atoms: C17_22  and  N4_23 
REMARK       I    between atoms: N4_23  and  C18_25 
ROOT
HETATM    1  N1  UNL     1      -1.706  14.964  15.814  1.00  0.00     0.091 N 
HETATM    2  C3  UNL     1      -2.669  15.498  16.729  1.00  0.00     0.292 C 
HETATM    3  C4  UNL     1      -2.859  16.951  16.734  1.00  0.00     0.156 C 
HETATM    4  N2  UNL     1      -1.928  17.785  16.074  1.00  0.00    -0.350 N 
HETATM    5  C13 UNL     1      -0.665  17.144  15.586  1.00  0.00     0.115 C 
HETATM    6  C19 UNL     1      -1.168  15.929  14.901  1.00  0.00     0.297 C 
ENDROOT
BRANCH   4   7
HETATM    7  C5  UNL     1      -2.152  19.152  15.875  1.00  0.00     0.170 C 
HETATM    8  S1  UNL     1      -3.637  19.638  15.408  1.00  0.00    -0.041 SA
BRANCH   7   9
HETATM    9  N3  UNL     1      -1.156  20.140  16.070  1.00  0.00    -0.367 N 
ATOM     10  H3  UNL     1      -0.794  20.620  15.246  1.00  0.00     0.161 HD
BRANCH   9  11
HETATM   11  C6  UNL     1      -0.618  20.513  17.360  1.00  0.00     0.122 C 
BRANCH  11  12
HETATM   12  C7  UNL     1      -1.490  21.412  18.161  1.00  0.00     0.024 C 
BRANCH  12  13
HETATM   13  C8  UNL     1      -1.362  22.861  17.800  1.00  0.00    -0.013 C 
HETATM   14  C9  UNL     1      -0.951  23.736  18.959  1.00  0.00     0.005 C 
HETATM   15  C10 UNL     1      -1.080  25.111  18.318  1.00  0.00     0.000 C 
HETATM   16  C11 UNL     1      -2.287  24.996  17.420  1.00  0.00     0.000 C 
HETATM   17  C12 UNL     1      -2.621  23.513  17.342  1.00  0.00     0.005 C 
ENDBRANCH  12  13
ENDBRANCH  11  12
ENDBRANCH   9  11
ENDBRANCH   7   9
ENDBRANCH   4   7
BRANCH   5  18
HETATM   18  C14 UNL     1       0.178  16.984  16.786  1.00  0.00     0.027 C 
BRANCH  18  19
HETATM   19  C15 UNL     1       1.512  17.611  16.841  1.00  0.00     0.004 C 
BRANCH  19  20
HETATM   20  C16 UNL     1       2.005  18.373  15.677  1.00  0.00     0.020 C 
BRANCH  20  21
HETATM   21  C17 UNL     1       3.074  17.505  14.984  1.00  0.00     0.122 C 
BRANCH  21  22
HETATM   22  N4  UNL     1       3.646  18.153  13.841  1.00  0.00    -0.365 N 
HETATM   23  C18 UNL     1       4.935  18.754  13.848  1.00  0.00     0.181 C 
HETATM   24  N5  UNL     1       5.482  19.190  14.938  1.00  0.00    -0.374 N 
HETATM   25  N6  UNL     1       5.672  18.898  12.646  1.00  0.00    -0.064 NA
ATOM     26  H52 UNL     1       4.952  19.086  15.803  1.00  0.00     0.158 HD
ATOM     27  H51 UNL     1       6.407  19.621  14.943  1.00  0.00     0.158 HD
ATOM     28  H4  UNL     1       3.101  18.184  12.979  1.00  0.00     0.162 HD
ENDBRANCH  21  22
ENDBRANCH  20  21
ENDBRANCH  19  20
ENDBRANCH  18  19
ENDBRANCH   5  18
BRANCH   1  29
HETATM   29  C2  UNL     1      -2.236  13.821  15.104  1.00  0.00     0.268 C 
HETATM   30  C1  UNL     1      -1.529  13.539  13.817  1.00  0.00     0.037 C 
ENDBRANCH   1  29
TORSDOF 11
ENDMDL
