MODEL 1
REMARK VINA RESULT: -8.618409581      0.000      0.000
REMARK  10 active torsions:
REMARK  status: ('A' for Active; 'I' for Inactive)
REMARK    1  A    between atoms: C2_2  and  C3_3 
REMARK    2  A    between atoms: C3_3  and  C4_4 
REMARK    3  A    between atoms: C4_4  and  C5_5 
REMARK    4  A    between atoms: C5_5  and  C6_6 
REMARK    5  A    between atoms: C6_6  and  C7_7 
REMARK    6  A    between atoms: C7_7  and  C8_8 
REMARK       I    between atoms: C8_8  and  N1_10 
REMARK    7  A    between atoms: N1_10  and  C9_12 
REMARK       I    between atoms: N2_14  and  C11_15 
REMARK       I    between atoms: C11_15  and  N4_19 
REMARK    8  A    between atoms: N4_19  and  C12_21 
REMARK    9  A    between atoms: C12_21  and  C13_22 
REMARK   10  A    between atoms: C21_31  and  O3_32 
ROOT
HETATM    1  C9  UNL     1       1.277  19.173  18.204  1.00  0.00     0.139 C 
HETATM    2  C10 UNL     1       0.258  20.212  17.811  1.00  0.00     0.169 C 
HETATM    3  N2  UNL     1      -1.034  19.716  17.495  1.00  0.00    -0.209 N 
HETATM    4  C11 UNL     1      -1.860  20.275  16.462  1.00  0.00     0.670 C 
HETATM    5  N3  UNL     1      -2.118  19.641  15.379  1.00  0.00    -0.235 N 
ATOM      6  H31 UNL     1      -2.705  20.038  14.645  1.00  0.00     0.174 HD
ATOM      7  H32 UNL     1      -1.710  18.712  15.273  1.00  0.00     0.174 HD
HETATM    8  N4  UNL     1      -2.429  21.572  16.609  1.00  0.00    -0.226 N 
ATOM      9  H4  UNL     1      -2.135  22.342  16.009  1.00  0.00     0.177 HD
HETATM   10  C19 UNL     1      -1.578  18.599  18.223  1.00  0.00     0.222 C 
HETATM   11  C20 UNL     1      -0.719  18.331  19.392  1.00  0.00     0.175 C 
HETATM   12  O2  UNL     1      -1.220  18.150  20.479  1.00  0.00    -0.293 OA
HETATM   13  C21 UNL     1       0.764  18.272  19.300  1.00  0.00     0.213 C 
ENDROOT
BRANCH   1  14
HETATM   14  N1  UNL     1       1.704  18.353  17.092  1.00  0.00    -0.352 N 
HETATM   15  C8  UNL     1       3.028  18.300  16.625  1.00  0.00     0.218 C 
HETATM   16  O1  UNL     1       3.902  18.992  17.186  1.00  0.00    -0.274 OA
ATOM     17  H1  UNL     1       1.003  17.782  16.620  1.00  0.00     0.163 HD
BRANCH  15  18
HETATM   18  C7  UNL     1       3.376  17.438  15.488  1.00  0.00     0.103 C 
BRANCH  18  19
HETATM   19  C6  UNL     1       3.940  18.133  14.296  1.00  0.00     0.009 C 
BRANCH  19  20
HETATM   20  C5  UNL     1       3.055  18.207  13.102  1.00  0.00     0.000 C 
BRANCH  20  21
HETATM   21  C4  UNL     1       3.685  18.904  11.931  1.00  0.00     0.000 C 
BRANCH  21  22
HETATM   22  C3  UNL     1       5.016  19.526  12.241  1.00  0.00    -0.000 C 
BRANCH  22  23
HETATM   23  C2  UNL     1       5.517  20.372  11.090  1.00  0.00    -0.005 C 
HETATM   24  C1  UNL     1       6.440  21.466  11.553  1.00  0.00     0.005 C 
ENDBRANCH  22  23
ENDBRANCH  21  22
ENDBRANCH  20  21
ENDBRANCH  19  20
ENDBRANCH  18  19
ENDBRANCH  15  18
ENDBRANCH   1  14
BRANCH   8  25
HETATM   25  C12 UNL     1      -3.433  21.771  17.629  1.00  0.00     0.142 C 
BRANCH  25  26
HETATM   26  C13 UNL     1      -3.329  23.129  18.280  1.00  0.00     0.004 C 
HETATM   27  C14 UNL     1      -2.594  23.120  19.568  1.00  0.00     0.006 C 
HETATM   28  C15 UNL     1      -1.105  23.329  19.423  1.00  0.00     0.000 C 
HETATM   29  C16 UNL     1      -0.766  24.523  18.572  1.00  0.00     0.000 C 
HETATM   30  C17 UNL     1      -1.989  25.170  17.971  1.00  0.00     0.000 C 
HETATM   31  C18 UNL     1      -2.793  24.120  17.281  1.00  0.00     0.006 C 
ENDBRANCH  25  26
ENDBRANCH   8  25
BRANCH  13  32
HETATM   32  O3  UNL     1       1.321  18.608  20.529  1.00  0.00    -0.386 OA
ATOM     33  H3  UNL     1       0.764  19.213  21.005  1.00  0.00     0.210 HD
ENDBRANCH  13  32
TORSDOF 10
ENDMDL
MODEL 2
REMARK VINA RESULT: -8.393392510      0.945      1.189
REMARK  10 active torsions:
REMARK  status: ('A' for Active; 'I' for Inactive)
REMARK    1  A    between atoms: C2_2  and  C3_3 
REMARK    2  A    between atoms: C3_3  and  C4_4 
REMARK    3  A    between atoms: C4_4  and  C5_5 
REMARK    4  A    between atoms: C5_5  and  C6_6 
REMARK    5  A    between atoms: C6_6  and  C7_7 
REMARK    6  A    between atoms: C7_7  and  C8_8 
REMARK       I    between atoms: C8_8  and  N1_10 
REMARK    7  A    between atoms: N1_10  and  C9_12 
REMARK       I    between atoms: N2_14  and  C11_15 
REMARK       I    between atoms: C11_15  and  N4_19 
REMARK    8  A    between atoms: N4_19  and  C12_21 
REMARK    9  A    between atoms: C12_21  and  C13_22 
REMARK   10  A    between atoms: C21_31  and  O3_32 
ROOT
HETATM    1  C9  UNL     1       2.066  19.269  17.868  1.00  0.00     0.139 C 
HETATM    2  C10 UNL     1       0.827  20.126  17.821  1.00  0.00     0.169 C 
HETATM    3  N2  UNL     1      -0.399  19.445  18.049  1.00  0.00    -0.209 N 
HETATM    4  C11 UNL     1      -1.620  19.776  17.370  1.00  0.00     0.670 C 
HETATM    5  N3  UNL     1      -2.153  18.992  16.508  1.00  0.00    -0.235 N 
ATOM      6  H31 UNL     1      -3.021  19.226  16.025  1.00  0.00     0.174 HD
ATOM      7  H32 UNL     1      -1.674  18.112  16.318  1.00  0.00     0.174 HD
HETATM    8  N4  UNL     1      -2.289  21.004  17.635  1.00  0.00    -0.226 N 
ATOM      9  H4  UNL     1      -2.357  21.727  16.919  1.00  0.00     0.177 HD
HETATM   10  C19 UNL     1      -0.461  18.367  19.001  1.00  0.00     0.222 C 
HETATM   11  C20 UNL     1       0.795  18.343  19.775  1.00  0.00     0.175 C 
HETATM   12  O2  UNL     1       0.759  18.234  20.979  1.00  0.00    -0.293 OA
HETATM   13  C21 UNL     1       2.133  18.450  19.134  1.00  0.00     0.213 C 
ENDROOT
BRANCH   1  14
HETATM   14  N1  UNL     1       2.179  18.380  16.734  1.00  0.00    -0.352 N 
HETATM   15  C8  UNL     1       3.347  18.242  15.964  1.00  0.00     0.218 C 
HETATM   16  O1  UNL     1       4.355  18.916  16.258  1.00  0.00    -0.274 OA
ATOM     17  H1  UNL     1       1.366  17.821  16.478  1.00  0.00     0.163 HD
BRANCH  15  18
HETATM   18  C7  UNL     1       3.377  17.313  14.828  1.00  0.00     0.103 C 
BRANCH  18  19
HETATM   19  C6  UNL     1       2.972  17.885  13.512  1.00  0.00     0.009 C 
BRANCH  19  20
HETATM   20  C5  UNL     1       4.070  18.434  12.671  1.00  0.00     0.000 C 
BRANCH  20  21
HETATM   21  C4  UNL     1       3.584  19.133  11.434  1.00  0.00     0.000 C 
BRANCH  21  22
HETATM   22  C3  UNL     1       4.577  20.098  10.854  1.00  0.00    -0.000 C 
BRANCH  22  23
HETATM   23  C2  UNL     1       5.775  20.276  11.762  1.00  0.00    -0.005 C 
HETATM   24  C1  UNL     1       6.481  21.582  11.515  1.00  0.00     0.005 C 
ENDBRANCH  22  23
ENDBRANCH  21  22
ENDBRANCH  20  21
ENDBRANCH  19  20
ENDBRANCH  18  19
ENDBRANCH  15  18
ENDBRANCH   1  14
BRANCH   8  25
HETATM   25  C12 UNL     1      -2.871  21.202  18.943  1.00  0.00     0.142 C 
BRANCH  25  26
HETATM   26  C13 UNL     1      -3.031  22.664  19.285  1.00  0.00     0.004 C 
HETATM   27  C14 UNL     1      -1.775  23.315  19.732  1.00  0.00     0.006 C 
HETATM   28  C15 UNL     1      -0.958  23.902  18.606  1.00  0.00     0.000 C 
HETATM   29  C16 UNL     1      -1.771  24.781  17.695  1.00  0.00     0.000 C 
HETATM   30  C17 UNL     1      -3.237  24.784  18.052  1.00  0.00     0.000 C 
HETATM   31  C18 UNL     1      -3.708  23.372  18.141  1.00  0.00     0.006 C 
ENDBRANCH  25  26
ENDBRANCH   8  25
BRANCH  13  32
HETATM   32  O3  UNL     1       3.040  18.994  20.037  1.00  0.00    -0.386 OA
ATOM     33  H3  UNL     1       2.782  18.814  20.933  1.00  0.00     0.210 HD
ENDBRANCH  13  32
TORSDOF 10
ENDMDL
MODEL 3
REMARK VINA RESULT: -7.730872370      1.874      7.365
REMARK  10 active torsions:
REMARK  status: ('A' for Active; 'I' for Inactive)
REMARK    1  A    between atoms: C2_2  and  C3_3 
REMARK    2  A    between atoms: C3_3  and  C4_4 
REMARK    3  A    between atoms: C4_4  and  C5_5 
REMARK    4  A    between atoms: C5_5  and  C6_6 
REMARK    5  A    between atoms: C6_6  and  C7_7 
REMARK    6  A    between atoms: C7_7  and  C8_8 
REMARK       I    between atoms: C8_8  and  N1_10 
REMARK    7  A    between atoms: N1_10  and  C9_12 
REMARK       I    between atoms: N2_14  and  C11_15 
REMARK       I    between atoms: C11_15  and  N4_19 
REMARK    8  A    between atoms: N4_19  and  C12_21 
REMARK    9  A    between atoms: C12_21  and  C13_22 
REMARK   10  A    between atoms: C21_31  and  O3_32 
ROOT
HETATM    1  C9  UNL     1       1.293  17.399  19.730  1.00  0.00     0.139 C 
HETATM    2  C10 UNL     1       1.189  17.120  18.253  1.00  0.00     0.169 C 
HETATM    3  N2  UNL     1       1.641  18.161  17.399  1.00  0.00    -0.209 N 
HETATM    4  C11 UNL     1       1.015  18.477  16.146  1.00  0.00     0.670 C 
HETATM    5  N3  UNL     1       0.363  19.565  15.966  1.00  0.00    -0.235 N 
ATOM      6  H31 UNL     1      -0.082  19.790  15.076  1.00  0.00     0.174 HD
ATOM      7  H32 UNL     1       0.301  20.209  16.755  1.00  0.00     0.174 HD
HETATM    8  N4  UNL     1       1.101  17.580  15.044  1.00  0.00    -0.226 N 
ATOM      9  H4  UNL     1       0.270  17.103  14.693  1.00  0.00     0.177 HD
HETATM   10  C19 UNL     1       2.779  18.960  17.772  1.00  0.00     0.222 C 
HETATM   11  C20 UNL     1       3.437  18.334  18.935  1.00  0.00     0.175 C 
HETATM   12  O2  UNL     1       4.639  18.200  18.948  1.00  0.00    -0.293 OA
HETATM   13  C21 UNL     1       2.679  17.849  20.119  1.00  0.00     0.213 C 
ENDROOT
BRANCH   1  14
HETATM   14  N1  UNL     1       0.339  18.385  20.185  1.00  0.00    -0.352 N 
HETATM   15  C8  UNL     1      -1.009  18.099  20.462  1.00  0.00     0.218 C 
HETATM   16  O1  UNL     1      -1.428  16.934  20.311  1.00  0.00    -0.274 OA
ATOM     17  H1  UNL     1       0.664  19.344  20.314  1.00  0.00     0.163 HD
BRANCH  15  18
HETATM   18  C7  UNL     1      -1.910  19.162  20.923  1.00  0.00     0.103 C 
BRANCH  18  19
HETATM   19  C6  UNL     1      -1.365  20.549  20.858  1.00  0.00     0.009 C 
BRANCH  19  20
HETATM   20  C5  UNL     1      -1.696  21.325  19.632  1.00  0.00     0.000 C 
BRANCH  20  21
HETATM   21  C4  UNL     1      -1.439  22.798  19.769  1.00  0.00     0.000 C 
BRANCH  21  22
HETATM   22  C3  UNL     1      -0.648  23.382  18.634  1.00  0.00    -0.000 C 
BRANCH  22  23
HETATM   23  C2  UNL     1      -1.022  24.827  18.381  1.00  0.00    -0.005 C 
HETATM   24  C1  UNL     1      -2.252  24.950  17.522  1.00  0.00     0.005 C 
ENDBRANCH  22  23
ENDBRANCH  21  22
ENDBRANCH  20  21
ENDBRANCH  19  20
ENDBRANCH  18  19
ENDBRANCH  15  18
ENDBRANCH   1  14
BRANCH   8  25
HETATM   25  C12 UNL     1       2.392  17.360  14.433  1.00  0.00     0.142 C 
BRANCH  25  26
HETATM   26  C13 UNL     1       3.047  18.648  13.996  1.00  0.00     0.004 C 
HETATM   27  C14 UNL     1       4.219  19.033  14.820  1.00  0.00     0.006 C 
HETATM   28  C15 UNL     1       5.527  18.466  14.324  1.00  0.00     0.000 C 
HETATM   29  C16 UNL     1       5.748  18.713  12.856  1.00  0.00     0.000 C 
HETATM   30  C17 UNL     1       4.562  19.371  12.196  1.00  0.00     0.000 C 
HETATM   31  C18 UNL     1       3.338  18.583  12.520  1.00  0.00     0.006 C 
ENDBRANCH  25  26
ENDBRANCH   8  25
BRANCH  13  32
HETATM   32  O3  UNL     1       3.386  16.824  20.737  1.00  0.00    -0.386 OA
ATOM     33  H3  UNL     1       3.464  16.068  20.167  1.00  0.00     0.210 HD
ENDBRANCH  13  32
TORSDOF 10
ENDMDL
MODEL 4
REMARK VINA RESULT: -7.613146623      1.639      1.997
REMARK  10 active torsions:
REMARK  status: ('A' for Active; 'I' for Inactive)
REMARK    1  A    between atoms: C2_2  and  C3_3 
REMARK    2  A    between atoms: C3_3  and  C4_4 
REMARK    3  A    between atoms: C4_4  and  C5_5 
REMARK    4  A    between atoms: C5_5  and  C6_6 
REMARK    5  A    between atoms: C6_6  and  C7_7 
REMARK    6  A    between atoms: C7_7  and  C8_8 
REMARK       I    between atoms: C8_8  and  N1_10 
REMARK    7  A    between atoms: N1_10  and  C9_12 
REMARK       I    between atoms: N2_14  and  C11_15 
REMARK       I    between atoms: C11_15  and  N4_19 
REMARK    8  A    between atoms: N4_19  and  C12_21 
REMARK    9  A    between atoms: C12_21  and  C13_22 
REMARK   10  A    between atoms: C21_31  and  O3_32 
ROOT
HETATM    1  C9  UNL     1       0.190  17.037  17.234  1.00  0.00     0.139 C 
HETATM    2  C10 UNL     1      -0.069  18.420  17.775  1.00  0.00     0.169 C 
HETATM    3  N2  UNL     1      -1.161  19.113  17.190  1.00  0.00    -0.209 N 
HETATM    4  C11 UNL     1      -1.156  20.530  16.953  1.00  0.00     0.670 C 
HETATM    5  N3  UNL     1      -1.117  21.022  15.770  1.00  0.00    -0.235 N 
ATOM      6  H31 UNL     1      -1.114  22.028  15.602  1.00  0.00     0.174 HD
ATOM      7  H32 UNL     1      -1.088  20.364  14.991  1.00  0.00     0.174 HD
HETATM    8  N4  UNL     1      -1.197  21.448  18.040  1.00  0.00    -0.226 N 
ATOM      9  H4  UNL     1      -0.400  22.051  18.244  1.00  0.00     0.177 HD
HETATM   10  C19 UNL     1      -2.348  18.398  16.802  1.00  0.00     0.222 C 
HETATM   11  C20 UNL     1      -2.278  17.030  17.350  1.00  0.00     0.175 C 
HETATM   12  O2  UNL     1      -3.240  16.554  17.909  1.00  0.00    -0.293 OA
HETATM   13  C21 UNL     1      -1.056  16.188  17.248  1.00  0.00     0.213 C 
ENDROOT
BRANCH   1  14
HETATM   14  N1  UNL     1       0.728  17.050  15.892  1.00  0.00    -0.352 N 
HETATM   15  C8  UNL     1       2.053  17.404  15.585  1.00  0.00     0.218 C 
HETATM   16  O1  UNL     1       2.827  17.731  16.508  1.00  0.00    -0.274 OA
ATOM     17  H1  UNL     1       0.111  16.786  15.124  1.00  0.00     0.163 HD
BRANCH  15  18
HETATM   18  C7  UNL     1       2.519  17.388  14.193  1.00  0.00     0.103 C 
BRANCH  18  19
HETATM   19  C6  UNL     1       3.321  18.569  13.764  1.00  0.00     0.009 C 
BRANCH  19  20
HETATM   20  C5  UNL     1       4.788  18.483  13.995  1.00  0.00     0.000 C 
BRANCH  20  21
HETATM   21  C4  UNL     1       5.607  19.042  12.867  1.00  0.00     0.000 C 
BRANCH  21  22
HETATM   22  C3  UNL     1       4.786  19.658  11.772  1.00  0.00    -0.000 C 
BRANCH  22  23
HETATM   23  C2  UNL     1       5.633  20.518  10.858  1.00  0.00    -0.005 C 
HETATM   24  C1  UNL     1       6.462  21.511  11.627  1.00  0.00     0.005 C 
ENDBRANCH  22  23
ENDBRANCH  21  22
ENDBRANCH  20  21
ENDBRANCH  19  20
ENDBRANCH  18  19
ENDBRANCH  15  18
ENDBRANCH   1  14
BRANCH   8  25
HETATM   25  C12 UNL     1      -2.395  21.508  18.846  1.00  0.00     0.142 C 
BRANCH  25  26
HETATM   26  C13 UNL     1      -2.767  22.922  19.218  1.00  0.00     0.004 C 
HETATM   27  C14 UNL     1      -1.612  23.759  19.625  1.00  0.00     0.006 C 
HETATM   28  C15 UNL     1      -0.945  24.478  18.477  1.00  0.00     0.000 C 
HETATM   29  C16 UNL     1      -1.924  25.227  17.614  1.00  0.00     0.000 C 
HETATM   30  C17 UNL     1      -3.356  24.995  18.028  1.00  0.00     0.000 C 
HETATM   31  C18 UNL     1      -3.595  23.526  18.113  1.00  0.00     0.006 C 
ENDBRANCH  25  26
ENDBRANCH   8  25
BRANCH  13  32
HETATM   32  O3  UNL     1      -1.031  15.275  18.296  1.00  0.00    -0.386 OA
ATOM     33  H3  UNL     1      -1.800  14.718  18.286  1.00  0.00     0.210 HD
ENDBRANCH  13  32
TORSDOF 10
ENDMDL
MODEL 5
REMARK VINA RESULT: -7.487559095      3.185      7.785
REMARK  10 active torsions:
REMARK  status: ('A' for Active; 'I' for Inactive)
REMARK    1  A    between atoms: C2_2  and  C3_3 
REMARK    2  A    between atoms: C3_3  and  C4_4 
REMARK    3  A    between atoms: C4_4  and  C5_5 
REMARK    4  A    between atoms: C5_5  and  C6_6 
REMARK    5  A    between atoms: C6_6  and  C7_7 
REMARK    6  A    between atoms: C7_7  and  C8_8 
REMARK       I    between atoms: C8_8  and  N1_10 
REMARK    7  A    between atoms: N1_10  and  C9_12 
REMARK       I    between atoms: N2_14  and  C11_15 
REMARK       I    between atoms: C11_15  and  N4_19 
REMARK    8  A    between atoms: N4_19  and  C12_21 
REMARK    9  A    between atoms: C12_21  and  C13_22 
REMARK   10  A    between atoms: C21_31  and  O3_32 
ROOT
HETATM    1  C9  UNL     1       0.727  19.186  18.962  1.00  0.00     0.139 C 
HETATM    2  C10 UNL     1      -0.144  18.178  18.257  1.00  0.00     0.169 C 
HETATM    3  N2  UNL     1      -0.171  18.275  16.841  1.00  0.00    -0.209 N 
HETATM    4  C11 UNL     1      -1.350  18.027  16.059  1.00  0.00     0.670 C 
HETATM    5  N3  UNL     1      -1.963  18.964  15.435  1.00  0.00    -0.235 N 
ATOM      6  H31 UNL     1      -2.800  18.788  14.880  1.00  0.00     0.174 HD
ATOM      7  H32 UNL     1      -1.581  19.906  15.515  1.00  0.00     0.174 HD
HETATM    8  N4  UNL     1      -1.884  16.712  15.947  1.00  0.00    -0.226 N 
ATOM      9  H4  UNL     1      -2.791  16.480  16.353  1.00  0.00     0.177 HD
HETATM   10  C19 UNL     1       1.019  18.637  16.117  1.00  0.00     0.222 C 
HETATM   11  C20 UNL     1       2.168  18.597  17.042  1.00  0.00     0.175 C 
HETATM   12  O2  UNL     1       3.193  18.050  16.708  1.00  0.00    -0.293 OA
HETATM   13  C21 UNL     1       2.126  19.210  18.397  1.00  0.00     0.213 C 
ENDROOT
BRANCH   1  14
HETATM   14  N1  UNL     1       0.187  20.526  18.918  1.00  0.00    -0.352 N 
HETATM   15  C8  UNL     1      -0.699  21.042  19.880  1.00  0.00     0.218 C 
HETATM   16  O1  UNL     1      -1.054  20.320  20.833  1.00  0.00    -0.274 OA
ATOM     17  H1  UNL     1       0.465  21.131  18.146  1.00  0.00     0.163 HD
BRANCH  15  18
HETATM   18  C7  UNL     1      -1.200  22.417  19.760  1.00  0.00     0.103 C 
BRANCH  18  19
HETATM   19  C6  UNL     1      -0.761  23.165  18.547  1.00  0.00     0.009 C 
BRANCH  19  20
HETATM   20  C5  UNL     1      -0.768  24.649  18.655  1.00  0.00     0.000 C 
BRANCH  20  21
HETATM   21  C4  UNL     1      -1.835  25.304  17.827  1.00  0.00     0.000 C 
BRANCH  21  22
HETATM   22  C3  UNL     1      -2.943  24.375  17.422  1.00  0.00    -0.000 C 
BRANCH  22  23
HETATM   23  C2  UNL     1      -4.129  24.483  18.357  1.00  0.00    -0.005 C 
HETATM   24  C1  UNL     1      -4.669  23.132  18.741  1.00  0.00     0.005 C 
ENDBRANCH  22  23
ENDBRANCH  21  22
ENDBRANCH  20  21
ENDBRANCH  19  20
ENDBRANCH  18  19
ENDBRANCH  15  18
ENDBRANCH   1  14
BRANCH   8  25
HETATM   25  C12 UNL     1      -1.111  15.713  15.244  1.00  0.00     0.142 C 
BRANCH  25  26
HETATM   26  C13 UNL     1      -1.984  14.732  14.499  1.00  0.00     0.004 C 
HETATM   27  C14 UNL     1      -2.007  13.376  15.099  1.00  0.00     0.006 C 
HETATM   28  C15 UNL     1      -3.083  13.189  16.143  1.00  0.00     0.000 C 
HETATM   29  C16 UNL     1      -4.439  13.633  15.666  1.00  0.00     0.000 C 
HETATM   30  C17 UNL     1      -4.392  14.265  14.296  1.00  0.00     0.000 C 
HETATM   31  C18 UNL     1      -3.351  15.333  14.300  1.00  0.00     0.006 C 
ENDBRANCH  25  26
ENDBRANCH   8  25
BRANCH  13  32
HETATM   32  O3  UNL     1       3.018  18.548  19.235  1.00  0.00    -0.386 OA
ATOM     33  H3  UNL     1       3.536  17.914  18.753  1.00  0.00     0.210 HD
ENDBRANCH  13  32
TORSDOF 10
ENDMDL
