MODEL 1
REMARK VINA RESULT: -6.409938619      0.000      0.000
REMARK  4 active torsions:
REMARK  status: ('A' for Active; 'I' for Inactive)
REMARK    1  A    between atoms: C2_2  and  C3_4 
REMARK       I    between atoms: C3_4  and  N1_6 
REMARK    2  A    between atoms: N1_6  and  N2_7 
REMARK       I    between atoms: N2_7  and  C4_8 
REMARK       I    between atoms: C4_8  and  N4_12 
REMARK    3  A    between atoms: N4_12  and  N5_13 
REMARK    4  A    between atoms: N4_12  and  N6_16 
ROOT
HETATM    1  N6  UNL     1      24.347  71.119   9.974  1.00  0.00    -0.211 N 
ATOM      2  H6  UNL     1      24.182  70.324  10.592  1.00  0.00     0.201 HD
HETATM    3  C5  UNL     1      23.849  71.051   8.663  1.00  0.00     0.199 C 
HETATM    4  N7  UNL     1      23.466  71.021   7.590  1.00  0.00    -0.170 NA
ENDROOT
BRANCH   1   5
HETATM    5  N4  UNL     1      25.030  72.173  10.464  1.00  0.00    -0.145 N 
HETATM    6  C4  UNL     1      24.475  73.331  11.180  1.00  0.00     0.327 C 
HETATM    7  N2  UNL     1      25.320  74.384  11.407  1.00  0.00    -0.203 NA
HETATM    8  N3  UNL     1      23.305  73.225  11.601  1.00  0.00    -0.354 N 
ATOM      9  H32 UNL     1      22.919  74.028  12.097  1.00  0.00     0.160 HD
ATOM     10  H31 UNL     1      22.675  72.441  11.431  1.00  0.00     0.160 HD
BRANCH   7  11
HETATM   11  N1  UNL     1      26.090  75.361  11.592  1.00  0.00    -0.197 NA
HETATM   12  C3  UNL     1      26.971  76.433  11.826  1.00  0.00     0.395 C 
HETATM   13  O2  UNL     1      27.906  76.463  12.635  1.00  0.00    -0.245 OA
BRANCH  12  14
HETATM   14  C2  UNL     1      26.753  77.689  11.041  1.00  0.00     0.230 C 
HETATM   15  C1  UNL     1      25.752  77.735   9.881  1.00  0.00     0.103 C 
HETATM   16  O1  UNL     1      27.467  78.685  11.360  1.00  0.00    -0.286 OA
ENDBRANCH  12  14
ENDBRANCH   7  11
BRANCH   5  17
HETATM   17  N5  UNL     1      26.466  72.292  10.335  1.00  0.00    -0.320 N 
ATOM     18  H52 UNL     1      27.096  72.171  11.127  1.00  0.00     0.179 HD
ATOM     19  H51 UNL     1      26.726  72.504   9.371  1.00  0.00     0.179 HD
ENDBRANCH   5  17
ENDBRANCH   1   5
TORSDOF 4
ENDMDL
MODEL 2
REMARK VINA RESULT: -6.349397208      1.574      2.233
REMARK  4 active torsions:
REMARK  status: ('A' for Active; 'I' for Inactive)
REMARK    1  A    between atoms: C2_2  and  C3_4 
REMARK       I    between atoms: C3_4  and  N1_6 
REMARK    2  A    between atoms: N1_6  and  N2_7 
REMARK       I    between atoms: N2_7  and  C4_8 
REMARK       I    between atoms: C4_8  and  N4_12 
REMARK    3  A    between atoms: N4_12  and  N5_13 
REMARK    4  A    between atoms: N4_12  and  N6_16 
ROOT
HETATM    1  N6  UNL     1      23.776  70.443   9.462  1.00  0.00    -0.211 N 
ATOM      2  H6  UNL     1      23.802  69.876  10.310  1.00  0.00     0.201 HD
HETATM    3  C5  UNL     1      23.237  69.870   8.299  1.00  0.00     0.199 C 
HETATM    4  N7  UNL     1      22.814  69.427   7.338  1.00  0.00    -0.170 NA
ENDROOT
BRANCH   1   5
HETATM    5  N4  UNL     1      24.261  71.700   9.523  1.00  0.00    -0.145 N 
HETATM    6  C4  UNL     1      25.415  72.164  10.307  1.00  0.00     0.327 C 
HETATM    7  N2  UNL     1      25.607  73.518  10.385  1.00  0.00    -0.203 NA
HETATM    8  N3  UNL     1      26.175  71.288  10.764  1.00  0.00    -0.354 N 
ATOM      9  H32 UNL     1      26.976  71.610  11.308  1.00  0.00     0.160 HD
ATOM     10  H31 UNL     1      26.032  70.280  10.707  1.00  0.00     0.160 HD
BRANCH   7  11
HETATM   11  N1  UNL     1      25.768  74.762  10.477  1.00  0.00    -0.197 NA
HETATM   12  C3  UNL     1      25.917  76.159  10.558  1.00  0.00     0.395 C 
HETATM   13  O2  UNL     1      25.227  77.013   9.989  1.00  0.00    -0.245 OA
BRANCH  12  14
HETATM   14  C2  UNL     1      27.041  76.686  11.394  1.00  0.00     0.230 C 
HETATM   15  C1  UNL     1      27.384  78.180  11.409  1.00  0.00     0.103 C 
HETATM   16  O1  UNL     1      27.710  75.831  12.045  1.00  0.00    -0.286 OA
ENDBRANCH  12  14
ENDBRANCH   7  11
BRANCH   5  17
HETATM   17  N5  UNL     1      23.670  72.794   8.784  1.00  0.00    -0.320 N 
ATOM     18  H52 UNL     1      23.573  73.729   9.179  1.00  0.00     0.179 HD
ATOM     19  H51 UNL     1      23.384  72.488   7.853  1.00  0.00     0.179 HD
ENDBRANCH   5  17
ENDBRANCH   1   5
TORSDOF 4
ENDMDL
MODEL 3
REMARK VINA RESULT: -6.296218475      0.926      1.686
REMARK  4 active torsions:
REMARK  status: ('A' for Active; 'I' for Inactive)
REMARK    1  A    between atoms: C2_2  and  C3_4 
REMARK       I    between atoms: C3_4  and  N1_6 
REMARK    2  A    between atoms: N1_6  and  N2_7 
REMARK       I    between atoms: N2_7  and  C4_8 
REMARK       I    between atoms: C4_8  and  N4_12 
REMARK    3  A    between atoms: N4_12  and  N5_13 
REMARK    4  A    between atoms: N4_12  and  N6_16 
ROOT
HETATM    1  N6  UNL     1      24.453  71.153  10.143  1.00  0.00    -0.211 N 
ATOM      2  H6  UNL     1      24.450  70.346  10.768  1.00  0.00     0.201 HD
HETATM    3  C5  UNL     1      23.894  71.000   8.864  1.00  0.00     0.199 C 
HETATM    4  N7  UNL     1      23.456  70.902   7.816  1.00  0.00    -0.170 NA
ENDROOT
BRANCH   1   5
HETATM    5  N4  UNL     1      24.994  72.304  10.593  1.00  0.00    -0.145 N 
HETATM    6  C4  UNL     1      24.303  73.381  11.317  1.00  0.00     0.327 C 
HETATM    7  N2  UNL     1      24.994  74.549  11.497  1.00  0.00    -0.203 NA
HETATM    8  N3  UNL     1      23.178  73.114  11.784  1.00  0.00    -0.354 N 
ATOM      9  H32 UNL     1      22.698  73.862  12.287  1.00  0.00     0.160 HD
ATOM     10  H31 UNL     1      22.663  72.244  11.650  1.00  0.00     0.160 HD
BRANCH   7  11
HETATM   11  N1  UNL     1      25.620  75.631  11.639  1.00  0.00    -0.197 NA
HETATM   12  C3  UNL     1      26.291  76.859  11.780  1.00  0.00     0.395 C 
HETATM   13  O2  UNL     1      25.921  77.960  11.354  1.00  0.00    -0.245 OA
BRANCH  12  14
HETATM   14  C2  UNL     1      27.606  76.850  12.494  1.00  0.00     0.230 C 
HETATM   15  C1  UNL     1      28.253  78.152  12.979  1.00  0.00     0.103 C 
HETATM   16  O1  UNL     1      28.165  75.722  12.633  1.00  0.00    -0.286 OA
ENDBRANCH  12  14
ENDBRANCH   7  11
BRANCH   5  17
HETATM   17  N5  UNL     1      26.391  72.627  10.405  1.00  0.00    -0.320 N 
ATOM     18  H52 UNL     1      26.712  73.580  10.235  1.00  0.00     0.179 HD
ATOM     19  H51 UNL     1      26.968  71.787  10.467  1.00  0.00     0.179 HD
ENDBRANCH   5  17
ENDBRANCH   1   5
TORSDOF 4
ENDMDL
MODEL 4
REMARK VINA RESULT: -6.296084377      4.126      6.996
REMARK  4 active torsions:
REMARK  status: ('A' for Active; 'I' for Inactive)
REMARK    1  A    between atoms: C2_2  and  C3_4 
REMARK       I    between atoms: C3_4  and  N1_6 
REMARK    2  A    between atoms: N1_6  and  N2_7 
REMARK       I    between atoms: N2_7  and  C4_8 
REMARK       I    between atoms: C4_8  and  N4_12 
REMARK    3  A    between atoms: N4_12  and  N5_13 
REMARK    4  A    between atoms: N4_12  and  N6_16 
ROOT
HETATM    1  N6  UNL     1      25.557  74.434  11.742  1.00  0.00    -0.211 N 
ATOM      2  H6  UNL     1      26.014  74.028  12.559  1.00  0.00     0.201 HD
HETATM    3  C5  UNL     1      25.667  75.820  11.542  1.00  0.00     0.199 C 
HETATM    4  N7  UNL     1      25.731  76.943  11.360  1.00  0.00    -0.170 NA
ENDROOT
BRANCH   1   5
HETATM    5  N4  UNL     1      24.880  73.609  10.917  1.00  0.00    -0.145 N 
HETATM    6  C4  UNL     1      24.253  72.327  11.269  1.00  0.00     0.327 C 
HETATM    7  N2  UNL     1      23.798  71.554  10.234  1.00  0.00    -0.203 NA
HETATM    8  N3  UNL     1      24.107  72.086  12.484  1.00  0.00    -0.354 N 
ATOM      9  H32 UNL     1      23.671  71.196  12.729  1.00  0.00     0.160 HD
ATOM     10  H31 UNL     1      24.446  72.661  13.255  1.00  0.00     0.160 HD
BRANCH   7  11
HETATM   11  N1  UNL     1      23.403  70.833   9.282  1.00  0.00    -0.197 NA
HETATM   12  C3  UNL     1      22.969  70.057   8.192  1.00  0.00     0.395 C 
HETATM   13  O2  UNL     1      22.876  70.419   7.013  1.00  0.00    -0.245 OA
BRANCH  12  14
HETATM   14  C2  UNL     1      22.544  68.650   8.473  1.00  0.00     0.230 C 
HETATM   15  C1  UNL     1      21.626  67.891   7.507  1.00  0.00     0.103 C 
HETATM   16  O1  UNL     1      22.946  68.145   9.563  1.00  0.00    -0.286 OA
ENDBRANCH  12  14
ENDBRANCH   7  11
BRANCH   5  17
HETATM   17  N5  UNL     1      24.684  73.907   9.515  1.00  0.00    -0.320 N 
ATOM     18  H52 UNL     1      23.903  74.471   9.183  1.00  0.00     0.179 HD
ATOM     19  H51 UNL     1      25.418  73.481   8.949  1.00  0.00     0.179 HD
ENDBRANCH   5  17
ENDBRANCH   1   5
TORSDOF 4
ENDMDL
MODEL 5
REMARK VINA RESULT: -6.262317836      3.521      6.310
REMARK  4 active torsions:
REMARK  status: ('A' for Active; 'I' for Inactive)
REMARK    1  A    between atoms: C2_2  and  C3_4 
REMARK       I    between atoms: C3_4  and  N1_6 
REMARK    2  A    between atoms: N1_6  and  N2_7 
REMARK       I    between atoms: N2_7  and  C4_8 
REMARK       I    between atoms: C4_8  and  N4_12 
REMARK    3  A    between atoms: N4_12  and  N5_13 
REMARK    4  A    between atoms: N4_12  and  N6_16 
ROOT
HETATM    1  N6  UNL     1      27.218  77.410  11.827  1.00  0.00    -0.211 N 
ATOM      2  H6  UNL     1      26.600  78.218  11.748  1.00  0.00     0.201 HD
HETATM    3  C5  UNL     1      28.312  77.498  12.704  1.00  0.00     0.199 C 
HETATM    4  N7  UNL     1      29.213  77.544  13.401  1.00  0.00    -0.170 NA
ENDROOT
BRANCH   1   5
HETATM    5  N4  UNL     1      26.938  76.320  11.084  1.00  0.00    -0.145 N 
HETATM    6  C4  UNL     1      25.864  76.181  10.090  1.00  0.00     0.327 C 
HETATM    7  N2  UNL     1      25.630  74.923   9.602  1.00  0.00    -0.203 NA
HETATM    8  N3  UNL     1      25.312  77.231   9.706  1.00  0.00    -0.354 N 
ATOM      9  H32 UNL     1      24.567  77.134   9.016  1.00  0.00     0.160 HD
ATOM     10  H31 UNL     1      25.486  78.168  10.069  1.00  0.00     0.160 HD
BRANCH   7  11
HETATM   11  N1  UNL     1      25.399  73.763   9.174  1.00  0.00    -0.197 NA
HETATM   12  C3  UNL     1      25.177  72.464   8.682  1.00  0.00     0.395 C 
HETATM   13  O2  UNL     1      25.989  71.747   8.085  1.00  0.00    -0.245 OA
BRANCH  12  14
HETATM   14  C2  UNL     1      23.811  71.879   8.867  1.00  0.00     0.230 C 
HETATM   15  C1  UNL     1      22.649  72.274   7.949  1.00  0.00     0.103 C 
HETATM   16  O1  UNL     1      23.665  71.084   9.842  1.00  0.00    -0.286 OA
ENDBRANCH  12  14
ENDBRANCH   7  11
BRANCH   5  17
HETATM   17  N5  UNL     1      27.705  75.098  11.185  1.00  0.00    -0.320 N 
ATOM     18  H52 UNL     1      27.553  74.306  10.560  1.00  0.00     0.179 HD
ATOM     19  H51 UNL     1      28.384  75.158  11.944  1.00  0.00     0.179 HD
ENDBRANCH   5  17
ENDBRANCH   1   5
TORSDOF 4
ENDMDL
