MODEL 1
REMARK VINA RESULT: -9.398347809      0.000      0.000
REMARK  7 active torsions:
REMARK  status: ('A' for Active; 'I' for Inactive)
REMARK    1  A    between atoms: C7_11  and  C8_12 
REMARK    2  A    between atoms: C8_12  and  C9_15 
REMARK    3  A    between atoms: C9_15  and  C10_16 
REMARK    4  A    between atoms: C10_16  and  C11_17 
REMARK    5  A    between atoms: C11_17  and  C12_18 
REMARK    6  A    between atoms: C12_18  and  N1_19 
REMARK    7  A    between atoms: N1_19  and  C13_21 
ROOT
HETATM    1  C9  UNL     1       5.611   1.076  44.958  1.00  0.00     0.082 C 
ENDROOT
BRANCH   1   2
HETATM    2  C8  UNL     1       5.778   2.581  44.926  1.00  0.00     0.270 C 
HETATM    3  F3  UNL     1       5.443   2.977  46.243  1.00  0.00    -0.203 F 
HETATM    4  F4  UNL     1       4.825   3.114  44.127  1.00  0.00    -0.203 F 
BRANCH   2   5
HETATM    5  C7  UNL     1       7.174   3.043  44.704  1.00  0.00     0.209 A 
HETATM    6  C2  UNL     1       7.754   3.220  43.385  1.00  0.00     0.038 A 
HETATM    7  C1  UNL     1       6.954   2.964  42.136  1.00  0.00     0.023 C 
HETATM    8  C3  UNL     1       9.162   2.666  43.256  1.00  0.00     0.025 C 
HETATM    9  C6  UNL     1       7.809   4.670  43.729  1.00  0.00     0.278 A 
HETATM   10  C4  UNL     1      10.064   3.083  44.386  1.00  0.00     0.113 C 
HETATM   11  C5  UNL     1       9.930   4.561  44.656  1.00  0.00     0.356 C 
HETATM   12  F1  UNL     1      11.156   5.206  44.550  1.00  0.00    -0.176 F 
HETATM   13  F2  UNL     1       9.430   4.866  45.888  1.00  0.00    -0.176 F 
HETATM   14  O1  UNL     1       9.125   5.101  43.671  1.00  0.00    -0.294 OA
HETATM   15  O2  UNL     1       7.280   4.401  44.964  1.00  0.00    -0.348 OA
ENDBRANCH   2   5
ENDBRANCH   1   2
BRANCH   1  16
HETATM   16  C10 UNL     1       4.318   0.709  45.632  1.00  0.00     0.008 C 
BRANCH  16  17
HETATM   17  C11 UNL     1       3.249   0.289  44.670  1.00  0.00     0.020 C 
BRANCH  17  18
HETATM   18  C12 UNL     1       1.976   1.047  44.795  1.00  0.00     0.120 C 
BRANCH  18  19
HETATM   19  N1  UNL     1       1.777   1.844  43.612  1.00  0.00    -0.388 N 
ATOM     20  H1  UNL     1       2.155   2.792  43.615  1.00  0.00     0.159 HD
BRANCH  19  21
HETATM   21  C13 UNL     1       1.096   1.416  42.441  1.00  0.00     0.056 A 
HETATM   22  C14 UNL     1      -0.250   1.518  42.185  1.00  0.00     0.049 A 
HETATM   23  C15 UNL     1      -0.532   0.971  40.940  1.00  0.00     0.099 A 
HETATM   24  N2  UNL     1       0.643   0.541  40.451  1.00  0.00    -0.331 N 
HETATM   25  C16 UNL     1       0.926  -0.069  39.273  1.00  0.00     0.096 A 
HETATM   26  C20 UNL     1       1.641   0.793  41.327  1.00  0.00     0.065 A 
HETATM   27  C17 UNL     1       2.206  -0.456  38.911  1.00  0.00     0.018 A 
HETATM   28  C18 UNL     1       3.203  -0.179  39.836  1.00  0.00     0.004 A 
HETATM   29  C19 UNL     1       2.930   0.437  41.031  1.00  0.00     0.032 A 
ENDBRANCH  19  21
ENDBRANCH  18  19
ENDBRANCH  17  18
ENDBRANCH  16  17
ENDBRANCH   1  16
TORSDOF 7
ENDMDL
MODEL 2
REMARK VINA RESULT: -9.285551129      1.167      1.423
REMARK  7 active torsions:
REMARK  status: ('A' for Active; 'I' for Inactive)
REMARK    1  A    between atoms: C7_11  and  C8_12 
REMARK    2  A    between atoms: C8_12  and  C9_15 
REMARK    3  A    between atoms: C9_15  and  C10_16 
REMARK    4  A    between atoms: C10_16  and  C11_17 
REMARK    5  A    between atoms: C11_17  and  C12_18 
REMARK    6  A    between atoms: C12_18  and  N1_19 
REMARK    7  A    between atoms: N1_19  and  C13_21 
ROOT
HETATM    1  C9  UNL     1       5.156   1.852  43.771  1.00  0.00     0.082 C 
ENDROOT
BRANCH   1   2
HETATM    2  C8  UNL     1       5.963   2.516  42.676  1.00  0.00     0.270 C 
HETATM    3  F3  UNL     1       5.188   3.652  42.339  1.00  0.00    -0.203 F 
HETATM    4  F4  UNL     1       5.952   1.725  41.578  1.00  0.00    -0.203 F 
BRANCH   2   5
HETATM    5  C7  UNL     1       7.284   3.040  43.113  1.00  0.00     0.209 A 
HETATM    6  C2  UNL     1       8.218   3.695  42.214  1.00  0.00     0.038 A 
HETATM    7  C1  UNL     1       7.888   3.911  40.762  1.00  0.00     0.023 C 
HETATM    8  C3  UNL     1       9.656   3.241  42.387  1.00  0.00     0.025 C 
HETATM    9  C6  UNL     1       7.970   4.917  43.033  1.00  0.00     0.278 A 
HETATM   10  C4  UNL     1      10.098   3.219  43.825  1.00  0.00     0.113 C 
HETATM   11  C5  UNL     1       9.692   4.493  44.525  1.00  0.00     0.356 C 
HETATM   12  F1  UNL     1      10.793   5.142  45.069  1.00  0.00    -0.176 F 
HETATM   13  F2  UNL     1       8.797   4.318  45.540  1.00  0.00    -0.176 F 
HETATM   14  O1  UNL     1       9.170   5.351  43.576  1.00  0.00    -0.294 OA
HETATM   15  O2  UNL     1       7.124   4.208  43.843  1.00  0.00    -0.348 OA
ENDBRANCH   2   5
ENDBRANCH   1   2
BRANCH   1  16
HETATM   16  C10 UNL     1       3.907   2.641  44.051  1.00  0.00     0.008 C 
BRANCH  16  17
HETATM   17  C11 UNL     1       2.996   1.976  45.037  1.00  0.00     0.020 C 
BRANCH  17  18
HETATM   18  C12 UNL     1       1.962   1.100  44.427  1.00  0.00     0.120 C 
BRANCH  18  19
HETATM   19  N1  UNL     1       1.214   1.851  43.452  1.00  0.00    -0.388 N 
ATOM     20  H1  UNL     1       1.011   2.828  43.667  1.00  0.00     0.159 HD
BRANCH  19  21
HETATM   21  C13 UNL     1       0.737   1.341  42.215  1.00  0.00     0.056 A 
HETATM   22  C14 UNL     1      -0.564   1.323  41.776  1.00  0.00     0.049 A 
HETATM   23  C15 UNL     1      -0.628   0.727  40.523  1.00  0.00     0.099 A 
HETATM   24  N2  UNL     1       0.635   0.388  40.211  1.00  0.00    -0.331 N 
HETATM   25  C16 UNL     1       1.125  -0.221  39.104  1.00  0.00     0.096 A 
HETATM   26  C20 UNL     1       1.479   0.743  41.205  1.00  0.00     0.065 A 
HETATM   27  C17 UNL     1       2.469  -0.506  38.931  1.00  0.00     0.018 A 
HETATM   28  C18 UNL     1       3.305  -0.125  39.972  1.00  0.00     0.004 A 
HETATM   29  C19 UNL     1       2.821   0.491  41.098  1.00  0.00     0.032 A 
ENDBRANCH  19  21
ENDBRANCH  18  19
ENDBRANCH  17  18
ENDBRANCH  16  17
ENDBRANCH   1  16
TORSDOF 7
ENDMDL
MODEL 3
REMARK VINA RESULT: -9.130982318      0.753      1.785
REMARK  7 active torsions:
REMARK  status: ('A' for Active; 'I' for Inactive)
REMARK    1  A    between atoms: C7_11  and  C8_12 
REMARK    2  A    between atoms: C8_12  and  C9_15 
REMARK    3  A    between atoms: C9_15  and  C10_16 
REMARK    4  A    between atoms: C10_16  and  C11_17 
REMARK    5  A    between atoms: C11_17  and  C12_18 
REMARK    6  A    between atoms: C12_18  and  N1_19 
REMARK    7  A    between atoms: N1_19  and  C13_21 
ROOT
HETATM    1  C9  UNL     1       5.953   1.246  45.995  1.00  0.00     0.082 C 
ENDROOT
BRANCH   1   2
HETATM    2  C8  UNL     1       6.073   2.734  45.745  1.00  0.00     0.270 C 
HETATM    3  F3  UNL     1       5.940   3.297  47.037  1.00  0.00    -0.203 F 
HETATM    4  F4  UNL     1       4.991   3.152  45.047  1.00  0.00    -0.203 F 
BRANCH   2   5
HETATM    5  C7  UNL     1       7.403   3.171  45.245  1.00  0.00     0.209 A 
HETATM    6  C2  UNL     1       7.743   3.233  43.834  1.00  0.00     0.038 A 
HETATM    7  C1  UNL     1       6.741   2.875  42.770  1.00  0.00     0.023 C 
HETATM    8  C3  UNL     1       9.113   2.667  43.509  1.00  0.00     0.025 C 
HETATM    9  C6  UNL     1       7.839   4.708  44.040  1.00  0.00     0.278 A 
HETATM   10  C4  UNL     1      10.193   3.176  44.425  1.00  0.00     0.113 C 
HETATM   11  C5  UNL     1      10.090   4.672  44.589  1.00  0.00     0.356 C 
HETATM   12  F1  UNL     1      11.271   5.302  44.217  1.00  0.00    -0.176 F 
HETATM   13  F2  UNL     1       9.809   5.082  45.859  1.00  0.00    -0.176 F 
HETATM   14  O1  UNL     1       9.120   5.129  43.718  1.00  0.00    -0.294 OA
HETATM   15  O2  UNL     1       7.536   4.547  45.366  1.00  0.00    -0.348 OA
ENDBRANCH   2   5
ENDBRANCH   1   2
BRANCH   1  16
HETATM   16  C10 UNL     1       5.127   0.600  44.917  1.00  0.00     0.008 C 
BRANCH  16  17
HETATM   17  C11 UNL     1       3.784   0.140  45.397  1.00  0.00     0.020 C 
BRANCH  17  18
HETATM   18  C12 UNL     1       2.639   0.922  44.861  1.00  0.00     0.120 C 
BRANCH  18  19
HETATM   19  N1  UNL     1       3.008   1.504  43.596  1.00  0.00    -0.388 N 
ATOM     20  H1  UNL     1       3.642   2.304  43.615  1.00  0.00     0.159 HD
BRANCH  19  21
HETATM   21  C13 UNL     1       2.561   1.054  42.325  1.00  0.00     0.056 A 
HETATM   22  C14 UNL     1       3.339   0.580  41.297  1.00  0.00     0.049 A 
HETATM   23  C15 UNL     1       2.534   0.255  40.212  1.00  0.00     0.099 A 
HETATM   24  N2  UNL     1       1.276   0.535  40.590  1.00  0.00    -0.331 N 
HETATM   25  C16 UNL     1       0.111   0.402  39.908  1.00  0.00     0.096 A 
HETATM   26  C20 UNL     1       1.256   1.016  41.853  1.00  0.00     0.065 A 
HETATM   27  C17 UNL     1      -1.121   0.739  40.444  1.00  0.00     0.018 A 
HETATM   28  C18 UNL     1      -1.100   1.228  41.742  1.00  0.00     0.004 A 
HETATM   29  C19 UNL     1       0.072   1.368  42.443  1.00  0.00     0.032 A 
ENDBRANCH  19  21
ENDBRANCH  18  19
ENDBRANCH  17  18
ENDBRANCH  16  17
ENDBRANCH   1  16
TORSDOF 7
ENDMDL
MODEL 4
REMARK VINA RESULT: -9.033962925      0.897      2.016
REMARK  7 active torsions:
REMARK  status: ('A' for Active; 'I' for Inactive)
REMARK    1  A    between atoms: C7_11  and  C8_12 
REMARK    2  A    between atoms: C8_12  and  C9_15 
REMARK    3  A    between atoms: C9_15  and  C10_16 
REMARK    4  A    between atoms: C10_16  and  C11_17 
REMARK    5  A    between atoms: C11_17  and  C12_18 
REMARK    6  A    between atoms: C12_18  and  N1_19 
REMARK    7  A    between atoms: N1_19  and  C13_21 
ROOT
HETATM    1  C9  UNL     1       5.794   1.114  45.183  1.00  0.00     0.082 C 
ENDROOT
BRANCH   1   2
HETATM    2  C8  UNL     1       5.921   2.615  45.041  1.00  0.00     0.270 C 
HETATM    3  F3  UNL     1       5.592   3.098  46.330  1.00  0.00    -0.203 F 
HETATM    4  F4  UNL     1       4.945   3.065  44.219  1.00  0.00    -0.203 F 
BRANCH   2   5
HETATM    5  C7  UNL     1       7.302   3.095  44.767  1.00  0.00     0.209 A 
HETATM    6  C2  UNL     1       7.839   3.254  43.427  1.00  0.00     0.038 A 
HETATM    7  C1  UNL     1       7.007   2.959  42.209  1.00  0.00     0.023 C 
HETATM    8  C3  UNL     1       9.252   2.721  43.267  1.00  0.00     0.025 C 
HETATM    9  C6  UNL     1       7.879   4.712  43.740  1.00  0.00     0.278 A 
HETATM   10  C4  UNL     1      10.180   3.175  44.361  1.00  0.00     0.113 C 
HETATM   11  C5  UNL     1      10.029   4.657  44.604  1.00  0.00     0.356 C 
HETATM   12  F1  UNL     1      11.240   5.319  44.448  1.00  0.00    -0.176 F 
HETATM   13  F2  UNL     1       9.561   4.979  45.844  1.00  0.00    -0.176 F 
HETATM   14  O1  UNL     1       9.186   5.163  43.634  1.00  0.00    -0.294 OA
HETATM   15  O2  UNL     1       7.393   4.460  44.995  1.00  0.00    -0.348 OA
ENDBRANCH   2   5
ENDBRANCH   1   2
BRANCH   1  16
HETATM   16  C10 UNL     1       4.383   0.680  44.895  1.00  0.00     0.008 C 
BRANCH  16  17
HETATM   17  C11 UNL     1       4.306  -0.560  44.056  1.00  0.00     0.020 C 
BRANCH  17  18
HETATM   18  C12 UNL     1       4.920  -0.430  42.709  1.00  0.00     0.120 C 
BRANCH  18  19
HETATM   19  N1  UNL     1       4.246   0.609  41.974  1.00  0.00    -0.388 N 
ATOM     20  H1  UNL     1       4.615   1.557  42.056  1.00  0.00     0.159 HD
BRANCH  19  21
HETATM   21  C13 UNL     1       3.108   0.420  41.146  1.00  0.00     0.056 A 
HETATM   22  C14 UNL     1       3.082  -0.146  39.894  1.00  0.00     0.049 A 
HETATM   23  C15 UNL     1       1.784  -0.135  39.402  1.00  0.00     0.099 A 
HETATM   24  N2  UNL     1       1.032   0.436  40.357  1.00  0.00    -0.331 N 
HETATM   25  C16 UNL     1      -0.301   0.689  40.382  1.00  0.00     0.096 A 
HETATM   26  C20 UNL     1       1.795   0.782  41.418  1.00  0.00     0.065 A 
HETATM   27  C17 UNL     1      -0.934   1.293  41.455  1.00  0.00     0.018 A 
HETATM   28  C18 UNL     1      -0.118   1.632  42.525  1.00  0.00     0.004 A 
HETATM   29  C19 UNL     1       1.232   1.382  42.512  1.00  0.00     0.032 A 
ENDBRANCH  19  21
ENDBRANCH  18  19
ENDBRANCH  17  18
ENDBRANCH  16  17
ENDBRANCH   1  16
TORSDOF 7
ENDMDL
MODEL 5
REMARK VINA RESULT: -8.902669345      1.170      1.939
REMARK  7 active torsions:
REMARK  status: ('A' for Active; 'I' for Inactive)
REMARK    1  A    between atoms: C7_11  and  C8_12 
REMARK    2  A    between atoms: C8_12  and  C9_15 
REMARK    3  A    between atoms: C9_15  and  C10_16 
REMARK    4  A    between atoms: C10_16  and  C11_17 
REMARK    5  A    between atoms: C11_17  and  C12_18 
REMARK    6  A    between atoms: C12_18  and  N1_19 
REMARK    7  A    between atoms: N1_19  and  C13_21 
ROOT
HETATM    1  C9  UNL     1       5.922   1.080  45.574  1.00  0.00     0.082 C 
ENDROOT
BRANCH   1   2
HETATM    2  C8  UNL     1       6.074   2.586  45.593  1.00  0.00     0.270 C 
HETATM    3  F3  UNL     1       5.996   2.908  46.969  1.00  0.00    -0.203 F 
HETATM    4  F4  UNL     1       4.983   3.147  45.021  1.00  0.00    -0.203 F 
BRANCH   2   5
HETATM    5  C7  UNL     1       7.399   3.079  45.134  1.00  0.00     0.209 A 
HETATM    6  C2  UNL     1       7.746   3.245  43.734  1.00  0.00     0.038 A 
HETATM    7  C1  UNL     1       6.757   2.945  42.640  1.00  0.00     0.023 C 
HETATM    8  C3  UNL     1       9.128   2.725  43.379  1.00  0.00     0.025 C 
HETATM    9  C6  UNL     1       7.816   4.703  44.042  1.00  0.00     0.278 A 
HETATM   10  C4  UNL     1      10.194   3.186  44.337  1.00  0.00     0.113 C 
HETATM   11  C5  UNL     1      10.065   4.665  44.603  1.00  0.00     0.356 C 
HETATM   12  F1  UNL     1      11.237   5.339  44.284  1.00  0.00    -0.176 F 
HETATM   13  F2  UNL     1       9.769   4.981  45.897  1.00  0.00    -0.176 F 
HETATM   14  O1  UNL     1       9.092   5.166  43.759  1.00  0.00    -0.294 OA
HETATM   15  O2  UNL     1       7.509   4.445  45.352  1.00  0.00    -0.348 OA
ENDBRANCH   2   5
ENDBRANCH   1   2
BRANCH   1  16
HETATM   16  C10 UNL     1       4.503   0.695  45.889  1.00  0.00     0.008 C 
BRANCH  16  17
HETATM   17  C11 UNL     1       3.826  -0.038  44.771  1.00  0.00     0.020 C 
BRANCH  17  18
HETATM   18  C12 UNL     1       2.848   0.778  44.004  1.00  0.00     0.120 C 
BRANCH  18  19
HETATM   19  N1  UNL     1       3.484   1.300  42.821  1.00  0.00    -0.388 N 
ATOM     20  H1  UNL     1       3.780   2.276  42.840  1.00  0.00     0.159 HD
BRANCH  19  21
HETATM   21  C13 UNL     1       3.733   0.563  41.633  1.00  0.00     0.056 A 
HETATM   22  C14 UNL     1       4.925   0.006  41.241  1.00  0.00     0.049 A 
HETATM   23  C15 UNL     1       4.770  -0.618  40.010  1.00  0.00     0.099 A 
HETATM   24  N2  UNL     1       3.484  -0.435  39.664  1.00  0.00    -0.331 N 
HETATM   25  C16 UNL     1       2.813  -0.841  38.558  1.00  0.00     0.096 A 
HETATM   26  C20 UNL     1       2.834   0.271  40.616  1.00  0.00     0.065 A 
HETATM   27  C17 UNL     1       1.472  -0.568  38.346  1.00  0.00     0.018 A 
HETATM   28  C18 UNL     1       0.839   0.157  39.345  1.00  0.00     0.004 A 
HETATM   29  C19 UNL     1       1.507   0.575  40.469  1.00  0.00     0.032 A 
ENDBRANCH  19  21
ENDBRANCH  18  19
ENDBRANCH  17  18
ENDBRANCH  16  17
ENDBRANCH   1  16
TORSDOF 7
ENDMDL
