MODEL 1
REMARK VINA RESULT: -7.384413111      0.000      0.000
REMARK  7 active torsions:
REMARK  status: ('A' for Active; 'I' for Inactive)
REMARK    1  A    between atoms: C2_2  and  C3_3 
REMARK    2  A    between atoms: C3_3  and  C4_4 
REMARK    3  A    between atoms: C4_4  and  C5_5 
REMARK    4  A    between atoms: C5_5  and  C6_6 
REMARK    5  A    between atoms: C7_9  and  S1_10 
REMARK    6  A    between atoms: C10_16  and  S2_17 
REMARK    7  A    between atoms: S2_17  and  C11_18 
ROOT
HETATM    1  C6  UNL     1       2.474   0.233  40.855  1.00  0.00     0.056 A 
HETATM    2  N1  UNL     1       2.529  -0.284  39.582  1.00  0.00    -0.336 N 
ATOM      3  H1  UNL     1       3.422  -0.656  39.260  1.00  0.00     0.168 HD
HETATM    4  C7  UNL     1       1.504  -0.333  38.745  1.00  0.00     0.147 A 
HETATM    5  N2  UNL     1       0.297   0.139  39.102  1.00  0.00    -0.303 N 
ATOM      6  H2  UNL     1      -0.494   0.101  38.458  1.00  0.00     0.171 HD
HETATM    7  C9  UNL     1       0.162   0.668  40.347  1.00  0.00     0.266 A 
HETATM    8  O1  UNL     1      -0.949   1.122  40.720  1.00  0.00    -0.267 OA
HETATM    9  C10 UNL     1       1.253   0.716  41.223  1.00  0.00     0.100 A 
ENDROOT
BRANCH   1  10
HETATM   10  C5  UNL     1       3.676   0.175  41.671  1.00  0.00     0.028 C 
BRANCH  10  11
HETATM   11  C4  UNL     1       4.469   1.311  42.044  1.00  0.00    -0.015 C 
BRANCH  11  12
HETATM   12  C3  UNL     1       5.290   1.616  43.190  1.00  0.00    -0.018 C 
HETATM   13  C12 UNL     1       4.922   2.874  43.919  1.00  0.00     0.014 C 
HETATM   14  C13 UNL     1       3.604   2.724  44.665  1.00  0.00     0.007 C 
HETATM   15  C14 UNL     1       3.747   1.780  45.815  1.00  0.00     0.079 C 
HETATM   16  C15 UNL     1       4.956   0.887  45.617  1.00  0.00     0.244 C 
HETATM   17  F3  UNL     1       6.080   1.343  46.238  1.00  0.00    -0.206 F 
HETATM   18  F4  UNL     1       4.622  -0.289  46.340  1.00  0.00    -0.206 F 
HETATM   19  C16 UNL     1       5.088   0.445  44.218  1.00  0.00     0.092 C 
BRANCH  12  20
HETATM   20  C2  UNL     1       6.794   1.605  43.024  1.00  0.00     0.009 C 
HETATM   21  C1  UNL     1       7.467   2.848  43.560  1.00  0.00     0.006 C 
ENDBRANCH  12  20
ENDBRANCH  11  12
ENDBRANCH  10  11
ENDBRANCH   1  10
BRANCH   9  22
HETATM   22  S2  UNL     1       0.935   1.494  42.788  1.00  0.00    -0.053 SA
BRANCH  22  23
HETATM   23  C11 UNL     1       0.611   0.347  44.122  1.00  0.00     0.420 C 
HETATM   24  F1  UNL     1      -0.509  -0.402  43.859  1.00  0.00    -0.202 F 
HETATM   25  F2  UNL     1       1.741  -0.412  44.339  1.00  0.00    -0.202 F 
ENDBRANCH  22  23
ENDBRANCH   9  22
BRANCH   4  26
HETATM   26  S1  UNL     1       1.675  -1.026  37.108  1.00  0.00    -0.098 SA
HETATM   27  C8  UNL     1       2.978  -2.256  37.035  1.00  0.00     0.099 C 
ENDBRANCH   4  26
TORSDOF 7
ENDMDL
MODEL 2
REMARK VINA RESULT: -7.305481292      2.017      3.131
REMARK  7 active torsions:
REMARK  status: ('A' for Active; 'I' for Inactive)
REMARK    1  A    between atoms: C2_2  and  C3_3 
REMARK    2  A    between atoms: C3_3  and  C4_4 
REMARK    3  A    between atoms: C4_4  and  C5_5 
REMARK    4  A    between atoms: C5_5  and  C6_6 
REMARK    5  A    between atoms: C7_9  and  S1_10 
REMARK    6  A    between atoms: C10_16  and  S2_17 
REMARK    7  A    between atoms: S2_17  and  C11_18 
ROOT
HETATM    1  C6  UNL     1       1.772   0.987  42.148  1.00  0.00     0.056 A 
HETATM    2  N1  UNL     1       2.955   0.501  41.644  1.00  0.00    -0.336 N 
ATOM      3  H1  UNL     1       3.775   0.526  42.251  1.00  0.00     0.168 HD
HETATM    4  C7  UNL     1       3.107   0.003  40.426  1.00  0.00     0.147 A 
HETATM    5  N2  UNL     1       2.071  -0.060  39.572  1.00  0.00    -0.303 N 
ATOM      6  H2  UNL     1       2.186  -0.444  38.634  1.00  0.00     0.171 HD
HETATM    7  C9  UNL     1       0.865   0.403  39.996  1.00  0.00     0.266 A 
HETATM    8  O1  UNL     1      -0.129   0.363  39.228  1.00  0.00    -0.267 OA
HETATM    9  C10 UNL     1       0.717   0.928  41.285  1.00  0.00     0.100 A 
ENDROOT
BRANCH   1  10
HETATM   10  C5  UNL     1       1.755   1.462  43.521  1.00  0.00     0.028 C 
BRANCH  10  11
HETATM   11  C4  UNL     1       2.860   2.089  44.186  1.00  0.00    -0.015 C 
BRANCH  11  12
HETATM   12  C3  UNL     1       3.958   1.590  44.977  1.00  0.00    -0.018 C 
HETATM   13  C12 UNL     1       5.168   1.175  44.194  1.00  0.00     0.014 C 
HETATM   14  C13 UNL     1       5.892   2.375  43.601  1.00  0.00     0.007 C 
HETATM   15  C14 UNL     1       6.535   3.192  44.675  1.00  0.00     0.079 C 
HETATM   16  C15 UNL     1       5.888   2.905  46.016  1.00  0.00     0.244 C 
HETATM   17  F3  UNL     1       6.548   1.965  46.750  1.00  0.00    -0.206 F 
HETATM   18  F4  UNL     1       6.088   4.107  46.745  1.00  0.00    -0.206 F 
HETATM   19  C16 UNL     1       4.425   2.771  45.902  1.00  0.00     0.092 C 
BRANCH  12  20
HETATM   20  C2  UNL     1       3.680   0.509  45.999  1.00  0.00     0.009 C 
HETATM   21  C1  UNL     1       4.759  -0.547  46.066  1.00  0.00     0.006 C 
ENDBRANCH  12  20
ENDBRANCH  11  12
ENDBRANCH  10  11
ENDBRANCH   1  10
BRANCH   9  22
HETATM   22  S2  UNL     1      -0.902   1.551  41.670  1.00  0.00    -0.053 SA
BRANCH  22  23
HETATM   23  C11 UNL     1      -2.197   0.320  41.588  1.00  0.00     0.420 C 
HETATM   24  F1  UNL     1      -2.100  -0.558  42.639  1.00  0.00    -0.202 F 
HETATM   25  F2  UNL     1      -3.415   0.961  41.517  1.00  0.00    -0.202 F 
ENDBRANCH  22  23
ENDBRANCH   9  22
BRANCH   4  26
HETATM   26  S1  UNL     1       4.688  -0.605  39.862  1.00  0.00    -0.098 SA
HETATM   27  C8  UNL     1       5.568  -1.480  41.157  1.00  0.00     0.099 C 
ENDBRANCH   4  26
TORSDOF 7
ENDMDL
MODEL 3
REMARK VINA RESULT: -7.274173159      4.374      6.678
REMARK  7 active torsions:
REMARK  status: ('A' for Active; 'I' for Inactive)
REMARK    1  A    between atoms: C2_2  and  C3_3 
REMARK    2  A    between atoms: C3_3  and  C4_4 
REMARK    3  A    between atoms: C4_4  and  C5_5 
REMARK    4  A    between atoms: C5_5  and  C6_6 
REMARK    5  A    between atoms: C7_9  and  S1_10 
REMARK    6  A    between atoms: C10_16  and  S2_17 
REMARK    7  A    between atoms: S2_17  and  C11_18 
ROOT
HETATM    1  C6  UNL     1       7.358   2.898  42.866  1.00  0.00     0.056 A 
HETATM    2  N1  UNL     1       7.282   3.636  41.709  1.00  0.00    -0.336 N 
ATOM      3  H1  UNL     1       6.742   3.250  40.935  1.00  0.00     0.168 HD
HETATM    4  C7  UNL     1       7.862   4.813  41.528  1.00  0.00     0.147 A 
HETATM    5  N2  UNL     1       8.590   5.382  42.504  1.00  0.00    -0.303 N 
ATOM      6  H2  UNL     1       9.036   6.289  42.367  1.00  0.00     0.171 HD
HETATM    7  C9  UNL     1       8.713   4.712  43.681  1.00  0.00     0.266 A 
HETATM    8  O1  UNL     1       9.385   5.208  44.620  1.00  0.00    -0.267 OA
HETATM    9  C10 UNL     1       8.097   3.468  43.860  1.00  0.00     0.100 A 
ENDROOT
BRANCH   1  10
HETATM   10  C5  UNL     1       6.629   1.641  42.927  1.00  0.00     0.028 C 
BRANCH  10  11
HETATM   11  C4  UNL     1       5.462   1.331  42.152  1.00  0.00    -0.015 C 
BRANCH  11  12
HETATM   12  C3  UNL     1       4.076   1.112  42.487  1.00  0.00    -0.018 C 
HETATM   13  C12 UNL     1       3.775  -0.220  43.107  1.00  0.00     0.014 C 
HETATM   14  C13 UNL     1       4.330  -0.320  44.521  1.00  0.00     0.007 C 
HETATM   15  C14 UNL     1       3.584   0.583  45.450  1.00  0.00     0.079 C 
HETATM   16  C15 UNL     1       2.868   1.668  44.670  1.00  0.00     0.244 C 
HETATM   17  F3  UNL     1       1.567   1.373  44.391  1.00  0.00    -0.206 F 
HETATM   18  F4  UNL     1       2.781   2.741  45.596  1.00  0.00    -0.206 F 
HETATM   19  C16 UNL     1       3.695   2.188  43.567  1.00  0.00     0.092 C 
BRANCH  12  20
HETATM   20  C2  UNL     1       3.027   1.373  41.428  1.00  0.00     0.009 C 
HETATM   21  C1  UNL     1       2.785   0.192  40.517  1.00  0.00     0.006 C 
ENDBRANCH  12  20
ENDBRANCH  11  12
ENDBRANCH  10  11
ENDBRANCH   1  10
BRANCH   9  22
HETATM   22  S2  UNL     1       8.403   2.689  45.427  1.00  0.00    -0.053 SA
BRANCH  22  23
HETATM   23  C11 UNL     1       6.924   2.334  46.369  1.00  0.00     0.420 C 
HETATM   24  F1  UNL     1       5.855   3.046  45.882  1.00  0.00    -0.202 F 
HETATM   25  F2  UNL     1       6.718   0.971  46.376  1.00  0.00    -0.202 F 
ENDBRANCH  22  23
ENDBRANCH   9  22
BRANCH   4  26
HETATM   26  S1  UNL     1       7.705   5.698  39.985  1.00  0.00    -0.098 SA
HETATM   27  C8  UNL     1       7.279   7.420  40.242  1.00  0.00     0.099 C 
ENDBRANCH   4  26
TORSDOF 7
ENDMDL
MODEL 4
REMARK VINA RESULT: -7.216389912      2.557      3.798
REMARK  7 active torsions:
REMARK  status: ('A' for Active; 'I' for Inactive)
REMARK    1  A    between atoms: C2_2  and  C3_3 
REMARK    2  A    between atoms: C3_3  and  C4_4 
REMARK    3  A    between atoms: C4_4  and  C5_5 
REMARK    4  A    between atoms: C5_5  and  C6_6 
REMARK    5  A    between atoms: C7_9  and  S1_10 
REMARK    6  A    between atoms: C10_16  and  S2_17 
REMARK    7  A    between atoms: S2_17  and  C11_18 
ROOT
HETATM    1  C6  UNL     1       3.623   1.519  42.308  1.00  0.00     0.056 A 
HETATM    2  N1  UNL     1       2.907   1.175  41.186  1.00  0.00    -0.336 N 
ATOM      3  H1  UNL     1       3.402   1.162  40.294  1.00  0.00     0.168 HD
HETATM    4  C7  UNL     1       1.622   0.857  41.181  1.00  0.00     0.147 A 
HETATM    5  N2  UNL     1       0.907   0.853  42.319  1.00  0.00    -0.303 N 
ATOM      6  H2  UNL     1      -0.083   0.609  42.317  1.00  0.00     0.171 HD
HETATM    7  C9  UNL     1       1.543   1.185  43.473  1.00  0.00     0.266 A 
HETATM    8  O1  UNL     1       0.912   1.194  44.560  1.00  0.00    -0.267 OA
HETATM    9  C10 UNL     1       2.903   1.520  43.466  1.00  0.00     0.100 A 
ENDROOT
BRANCH   1  10
HETATM   10  C5  UNL     1       5.041   1.800  42.158  1.00  0.00     0.028 C 
BRANCH  10  11
HETATM   11  C4  UNL     1       5.628   3.108  42.201  1.00  0.00    -0.015 C 
BRANCH  11  12
HETATM   12  C3  UNL     1       6.986   3.585  42.297  1.00  0.00    -0.018 C 
HETATM   13  C12 UNL     1       7.388   4.090  43.651  1.00  0.00     0.014 C 
HETATM   14  C13 UNL     1       7.514   2.957  44.659  1.00  0.00     0.007 C 
HETATM   15  C14 UNL     1       8.687   2.088  44.339  1.00  0.00     0.079 C 
HETATM   16  C15 UNL     1       9.091   2.261  42.888  1.00  0.00     0.244 C 
HETATM   17  F3  UNL     1      10.093   3.168  42.705  1.00  0.00    -0.206 F 
HETATM   18  F4  UNL     1       9.695   1.018  42.560  1.00  0.00    -0.206 F 
HETATM   19  C16 UNL     1       7.921   2.357  41.999  1.00  0.00     0.092 C 
BRANCH  12  20
HETATM   20  C2  UNL     1       7.475   4.583  41.271  1.00  0.00     0.009 C 
HETATM   21  C1  UNL     1       8.092   5.821  41.882  1.00  0.00     0.006 C 
ENDBRANCH  12  20
ENDBRANCH  11  12
ENDBRANCH  10  11
ENDBRANCH   1  10
BRANCH   9  22
HETATM   22  S2  UNL     1       3.577   1.991  45.041  1.00  0.00    -0.053 SA
BRANCH  22  23
HETATM   23  C11 UNL     1       4.534   0.709  45.840  1.00  0.00     0.420 C 
HETATM   24  F1  UNL     1       3.724  -0.323  46.244  1.00  0.00    -0.202 F 
HETATM   25  F2  UNL     1       5.545   0.315  44.990  1.00  0.00    -0.202 F 
ENDBRANCH  22  23
ENDBRANCH   9  22
BRANCH   4  26
HETATM   26  S1  UNL     1       0.779   0.422  39.668  1.00  0.00    -0.098 SA
HETATM   27  C8  UNL     1       1.795  -0.608  38.609  1.00  0.00     0.099 C 
ENDBRANCH   4  26
TORSDOF 7
ENDMDL
MODEL 5
REMARK VINA RESULT: -7.183472154      3.112      5.218
REMARK  7 active torsions:
REMARK  status: ('A' for Active; 'I' for Inactive)
REMARK    1  A    between atoms: C2_2  and  C3_3 
REMARK    2  A    between atoms: C3_3  and  C4_4 
REMARK    3  A    between atoms: C4_4  and  C5_5 
REMARK    4  A    between atoms: C5_5  and  C6_6 
REMARK    5  A    between atoms: C7_9  and  S1_10 
REMARK    6  A    between atoms: C10_16  and  S2_17 
REMARK    7  A    between atoms: S2_17  and  C11_18 
ROOT
HETATM    1  C6  UNL     1       5.302  -0.338  41.615  1.00  0.00     0.056 A 
HETATM    2  N1  UNL     1       4.850  -1.158  40.608  1.00  0.00    -0.336 N 
ATOM      3  H1  UNL     1       4.103  -1.816  40.831  1.00  0.00     0.168 HD
HETATM    4  C7  UNL     1       5.316  -1.154  39.368  1.00  0.00     0.147 A 
HETATM    5  N2  UNL     1       6.301  -0.315  39.003  1.00  0.00    -0.303 N 
ATOM      6  H2  UNL     1       6.660  -0.310  38.048  1.00  0.00     0.171 HD
HETATM    7  C9  UNL     1       6.802   0.528  39.944  1.00  0.00     0.266 A 
HETATM    8  O1  UNL     1       7.723   1.329  39.645  1.00  0.00    -0.267 OA
HETATM    9  C10 UNL     1       6.302   0.514  41.252  1.00  0.00     0.100 A 
ENDROOT
BRANCH   1  10
HETATM   10  C5  UNL     1       4.658  -0.431  42.915  1.00  0.00     0.028 C 
BRANCH  10  11
HETATM   11  C4  UNL     1       3.280  -0.125  43.172  1.00  0.00    -0.015 C 
BRANCH  11  12
HETATM   12  C3  UNL     1       2.452   1.027  42.912  1.00  0.00    -0.018 C 
HETATM   13  C12 UNL     1       2.494   1.533  41.501  1.00  0.00     0.014 C 
HETATM   14  C13 UNL     1       1.797   0.579  40.542  1.00  0.00     0.007 C 
HETATM   15  C14 UNL     1       0.321   0.568  40.779  1.00  0.00     0.079 C 
HETATM   16  C15 UNL     1       0.007   1.084  42.170  1.00  0.00     0.244 C 
HETATM   17  F3  UNL     1      -0.299   2.412  42.203  1.00  0.00    -0.206 F 
HETATM   18  F4  UNL     1      -1.219   0.445  42.493  1.00  0.00    -0.206 F 
HETATM   19  C16 UNL     1       0.967   0.585  43.171  1.00  0.00     0.092 C 
BRANCH  12  20
HETATM   20  C2  UNL     1       2.568   2.222  43.832  1.00  0.00     0.009 C 
HETATM   21  C1  UNL     1       2.807   1.849  45.277  1.00  0.00     0.006 C 
ENDBRANCH  12  20
ENDBRANCH  11  12
ENDBRANCH  10  11
ENDBRANCH   1  10
BRANCH   9  22
HETATM   22  S2  UNL     1       7.102   1.628  42.382  1.00  0.00    -0.053 SA
BRANCH  22  23
HETATM   23  C11 UNL     1       6.144   3.088  42.770  1.00  0.00     0.420 C 
HETATM   24  F1  UNL     1       5.106   3.238  41.885  1.00  0.00    -0.202 F 
HETATM   25  F2  UNL     1       5.739   3.016  44.086  1.00  0.00    -0.202 F 
ENDBRANCH  22  23
ENDBRANCH   9  22
BRANCH   4  26
HETATM   26  S1  UNL     1       4.663  -2.260  38.127  1.00  0.00    -0.098 SA
HETATM   27  C8  UNL     1       3.100  -1.677  37.470  1.00  0.00     0.099 C 
ENDBRANCH   4  26
TORSDOF 7
ENDMDL
