MODEL 1
REMARK VINA RESULT: -7.964419305      0.000      0.000
REMARK  9 active torsions:
REMARK  status: ('A' for Active; 'I' for Inactive)
REMARK    1  A    between atoms: O1_1  and  C1_3 
REMARK    2  A    between atoms: C1_3  and  C2_4 
REMARK    3  A    between atoms: C1_3  and  C6_11 
REMARK    4  A    between atoms: C1_3  and  C12_18 
REMARK    5  A    between atoms: C2_4  and  N1_5 
REMARK    6  A    between atoms: C12_18  and  C13_19 
REMARK    7  A    between atoms: C12_18  and  S1_24 
REMARK    8  A    between atoms: C13_19  and  C14_20 
REMARK    9  A    between atoms: S1_24  and  C15_25 
ROOT
HETATM    1  C1  UNL     1       3.954   0.991  42.527  1.00  0.00     0.114 C 
ENDROOT
BRANCH   1   2
HETATM    2  O1  UNL     1       3.758   0.403  43.808  1.00  0.00    -0.382 OA
ATOM      3  H1  UNL     1       2.966   0.825  44.120  1.00  0.00     0.211 HD
ENDBRANCH   1   2
BRANCH   1   4
HETATM    4  C2  UNL     1       4.262   2.439  42.856  1.00  0.00     0.173 C 
BRANCH   4   5
HETATM    5  N1  UNL     1       4.528   2.567  44.306  1.00  0.00    -0.348 N 
HETATM    6  C3  UNL     1       5.774   2.558  44.833  1.00  0.00     0.108 A 
HETATM    7  C4  UNL     1       5.665   2.709  46.196  1.00  0.00     0.106 A 
HETATM    8  N2  UNL     1       4.349   2.803  46.432  1.00  0.00    -0.361 N 
HETATM    9  C5  UNL     1       3.647   2.718  45.284  1.00  0.00     0.182 A 
ATOM     10  H2  UNL     1       3.935   2.922  47.356  1.00  0.00     0.166 HD
ENDBRANCH   4   5
ENDBRANCH   1   4
BRANCH   1  11
HETATM   11  C6  UNL     1       2.669   0.880  41.812  1.00  0.00    -0.021 A 
HETATM   12  C7  UNL     1       1.502   1.187  42.489  1.00  0.00     0.013 A 
HETATM   13  C8  UNL     1       0.244   1.114  41.947  1.00  0.00     0.043 A 
HETATM   14  C9  UNL     1       0.112   0.711  40.642  1.00  0.00     0.116 A 
HETATM   15  F1  UNL     1      -1.134   0.646  40.144  1.00  0.00    -0.206 F 
HETATM   16  C10 UNL     1       1.239   0.397  39.931  1.00  0.00     0.043 A 
HETATM   17  C11 UNL     1       2.512   0.479  40.504  1.00  0.00     0.013 A 
ENDBRANCH   1  11
BRANCH   1  18
HETATM   18  C12 UNL     1       5.018   0.253  41.782  1.00  0.00     0.101 C 
BRANCH  18  19
HETATM   19  C13 UNL     1       5.117  -1.150  42.341  1.00  0.00     0.136 C 
BRANCH  19  20
HETATM   20  C14 UNL     1       5.512  -2.139  41.262  1.00  0.00     0.389 C 
HETATM   21  F2  UNL     1       5.092  -3.391  41.724  1.00  0.00    -0.171 F 
HETATM   22  F3  UNL     1       4.874  -1.899  40.086  1.00  0.00    -0.171 F 
HETATM   23  F4  UNL     1       6.878  -2.195  41.168  1.00  0.00    -0.171 F 
ENDBRANCH  19  20
ENDBRANCH  18  19
BRANCH  18  24
HETATM   24  S1  UNL     1       6.574   1.054  41.521  1.00  0.00    -0.121 SA
BRANCH  24  25
HETATM   25  C15 UNL     1       7.095   1.288  39.863  1.00  0.00     0.001 A 
HETATM   26  C16 UNL     1       6.793   0.501  38.776  1.00  0.00     0.018 A 
HETATM   27  C17 UNL     1       7.215   0.714  37.502  1.00  0.00     0.001 A 
HETATM   28  C18 UNL     1       8.018   1.815  37.261  1.00  0.00     0.000 A 
HETATM   29  C19 UNL     1       8.359   2.647  38.306  1.00  0.00     0.001 A 
HETATM   30  C20 UNL     1       7.903   2.381  39.575  1.00  0.00     0.018 A 
ENDBRANCH  24  25
ENDBRANCH  18  24
ENDBRANCH   1  18
TORSDOF 9
ENDMDL
MODEL 2
REMARK VINA RESULT: -7.787817840      2.268      3.328
REMARK  9 active torsions:
REMARK  status: ('A' for Active; 'I' for Inactive)
REMARK    1  A    between atoms: O1_1  and  C1_3 
REMARK    2  A    between atoms: C1_3  and  C2_4 
REMARK    3  A    between atoms: C1_3  and  C6_11 
REMARK    4  A    between atoms: C1_3  and  C12_18 
REMARK    5  A    between atoms: C2_4  and  N1_5 
REMARK    6  A    between atoms: C12_18  and  C13_19 
REMARK    7  A    between atoms: C12_18  and  S1_24 
REMARK    8  A    between atoms: C13_19  and  C14_20 
REMARK    9  A    between atoms: S1_24  and  C15_25 
ROOT
HETATM    1  C1  UNL     1       4.046   1.004  42.955  1.00  0.00     0.114 C 
ENDROOT
BRANCH   1   2
HETATM    2  O1  UNL     1       4.397  -0.340  43.261  1.00  0.00    -0.382 OA
ATOM      3  H1  UNL     1       4.964  -0.584  42.539  1.00  0.00     0.211 HD
ENDBRANCH   1   2
BRANCH   1   4
HETATM    4  C2  UNL     1       3.840   1.628  44.322  1.00  0.00     0.173 C 
BRANCH   4   5
HETATM    5  N1  UNL     1       4.613   0.866  45.329  1.00  0.00    -0.348 N 
HETATM    6  C3  UNL     1       4.129  -0.228  45.960  1.00  0.00     0.108 A 
HETATM    7  C4  UNL     1       5.102  -0.696  46.814  1.00  0.00     0.106 A 
HETATM    8  N2  UNL     1       6.135   0.143  46.659  1.00  0.00    -0.361 N 
HETATM    9  C5  UNL     1       5.847   1.099  45.754  1.00  0.00     0.182 A 
ATOM     10  H2  UNL     1       7.020   0.068  47.159  1.00  0.00     0.166 HD
ENDBRANCH   4   5
ENDBRANCH   1   4
BRANCH   1  11
HETATM   11  C6  UNL     1       2.772   0.947  42.212  1.00  0.00    -0.021 A 
HETATM   12  C7  UNL     1       1.605   1.301  42.864  1.00  0.00     0.013 A 
HETATM   13  C8  UNL     1       0.357   1.280  42.295  1.00  0.00     0.043 A 
HETATM   14  C9  UNL     1       0.237   0.884  40.987  1.00  0.00     0.116 A 
HETATM   15  F1  UNL     1      -1.000   0.870  40.462  1.00  0.00    -0.206 F 
HETATM   16  C10 UNL     1       1.365   0.524  40.300  1.00  0.00     0.043 A 
HETATM   17  C11 UNL     1       2.628   0.553  40.900  1.00  0.00     0.013 A 
ENDBRANCH   1  11
BRANCH   1  18
HETATM   18  C12 UNL     1       5.104   1.631  42.107  1.00  0.00     0.101 C 
BRANCH  18  19
HETATM   19  C13 UNL     1       6.310   0.717  42.083  1.00  0.00     0.136 C 
BRANCH  19  20
HETATM   20  C14 UNL     1       6.745   0.429  40.659  1.00  0.00     0.389 C 
HETATM   21  F2  UNL     1       5.618  -0.096  40.018  1.00  0.00    -0.171 F 
HETATM   22  F3  UNL     1       7.109   1.556  39.994  1.00  0.00    -0.171 F 
HETATM   23  F4  UNL     1       7.691  -0.563  40.661  1.00  0.00    -0.171 F 
ENDBRANCH  19  20
ENDBRANCH  18  19
BRANCH  18  24
HETATM   24  S1  UNL     1       5.481   3.341  42.358  1.00  0.00    -0.121 SA
BRANCH  24  25
HETATM   25  C15 UNL     1       7.113   3.745  42.856  1.00  0.00     0.001 A 
HETATM   26  C16 UNL     1       8.215   3.906  42.047  1.00  0.00     0.018 A 
HETATM   27  C17 UNL     1       9.467   4.220  42.468  1.00  0.00     0.001 A 
HETATM   28  C18 UNL     1       9.669   4.398  43.826  1.00  0.00     0.000 A 
HETATM   29  C19 UNL     1       8.608   4.253  44.693  1.00  0.00     0.001 A 
HETATM   30  C20 UNL     1       7.362   3.933  44.209  1.00  0.00     0.018 A 
ENDBRANCH  24  25
ENDBRANCH  18  24
ENDBRANCH   1  18
TORSDOF 9
ENDMDL
MODEL 3
REMARK VINA RESULT: -7.775202196      1.990      2.775
REMARK  9 active torsions:
REMARK  status: ('A' for Active; 'I' for Inactive)
REMARK    1  A    between atoms: O1_1  and  C1_3 
REMARK    2  A    between atoms: C1_3  and  C2_4 
REMARK    3  A    between atoms: C1_3  and  C6_11 
REMARK    4  A    between atoms: C1_3  and  C12_18 
REMARK    5  A    between atoms: C2_4  and  N1_5 
REMARK    6  A    between atoms: C12_18  and  C13_19 
REMARK    7  A    between atoms: C12_18  and  S1_24 
REMARK    8  A    between atoms: C13_19  and  C14_20 
REMARK    9  A    between atoms: S1_24  and  C15_25 
ROOT
HETATM    1  C1  UNL     1       3.586   0.827  42.874  1.00  0.00     0.114 C 
ENDROOT
BRANCH   1   2
HETATM    2  O1  UNL     1       3.856  -0.526  43.218  1.00  0.00    -0.382 OA
ATOM      3  H1  UNL     1       3.190  -1.008  42.740  1.00  0.00     0.211 HD
ENDBRANCH   1   2
BRANCH   1   4
HETATM    4  C2  UNL     1       3.404   1.497  44.222  1.00  0.00     0.173 C 
BRANCH   4   5
HETATM    5  N1  UNL     1       4.335   0.891  45.200  1.00  0.00    -0.348 N 
HETATM    6  C3  UNL     1       5.562   1.395  45.462  1.00  0.00     0.108 A 
HETATM    7  C4  UNL     1       6.154   0.605  46.422  1.00  0.00     0.106 A 
HETATM    8  N2  UNL     1       5.250  -0.345  46.696  1.00  0.00    -0.361 N 
HETATM    9  C5  UNL     1       4.136  -0.179  45.956  1.00  0.00     0.182 A 
ATOM     10  H2  UNL     1       5.388  -1.095  47.374  1.00  0.00     0.166 HD
ENDBRANCH   4   5
ENDBRANCH   1   4
BRANCH   1  11
HETATM   11  C6  UNL     1       2.319   0.824  42.117  1.00  0.00    -0.021 A 
HETATM   12  C7  UNL     1       1.146   1.134  42.783  1.00  0.00     0.013 A 
HETATM   13  C8  UNL     1      -0.096   1.155  42.203  1.00  0.00     0.043 A 
HETATM   14  C9  UNL     1      -0.205   0.852  40.870  1.00  0.00     0.116 A 
HETATM   15  F1  UNL     1      -1.438   0.877  40.335  1.00  0.00    -0.206 F 
HETATM   16  C10 UNL     1       0.928   0.539  40.169  1.00  0.00     0.043 A 
HETATM   17  C11 UNL     1       2.185   0.524  40.780  1.00  0.00     0.013 A 
ENDBRANCH   1  11
BRANCH   1  18
HETATM   18  C12 UNL     1       4.687   1.369  42.022  1.00  0.00     0.101 C 
BRANCH  18  19
HETATM   19  C13 UNL     1       5.840   0.388  42.038  1.00  0.00     0.136 C 
BRANCH  19  20
HETATM   20  C14 UNL     1       6.063  -0.212  40.663  1.00  0.00     0.389 C 
HETATM   21  F2  UNL     1       7.167  -1.060  40.795  1.00  0.00    -0.171 F 
HETATM   22  F3  UNL     1       5.010  -0.968  40.255  1.00  0.00    -0.171 F 
HETATM   23  F4  UNL     1       6.430   0.775  39.787  1.00  0.00    -0.171 F 
ENDBRANCH  19  20
ENDBRANCH  18  19
BRANCH  18  24
HETATM   24  S1  UNL     1       5.158   3.062  42.230  1.00  0.00    -0.121 SA
BRANCH  24  25
HETATM   25  C15 UNL     1       6.872   3.416  42.349  1.00  0.00     0.001 A 
HETATM   26  C16 UNL     1       7.823   3.266  41.366  1.00  0.00     0.018 A 
HETATM   27  C17 UNL     1       9.145   3.552  41.494  1.00  0.00     0.001 A 
HETATM   28  C18 UNL     1       9.588   4.038  42.712  1.00  0.00     0.000 A 
HETATM   29  C19 UNL     1       8.687   4.213  43.740  1.00  0.00     0.001 A 
HETATM   30  C20 UNL     1       7.361   3.906  43.553  1.00  0.00     0.018 A 
ENDBRANCH  24  25
ENDBRANCH  18  24
ENDBRANCH   1  18
TORSDOF 9
ENDMDL
MODEL 4
REMARK VINA RESULT: -7.757466887      1.477      2.030
REMARK  9 active torsions:
REMARK  status: ('A' for Active; 'I' for Inactive)
REMARK    1  A    between atoms: O1_1  and  C1_3 
REMARK    2  A    between atoms: C1_3  and  C2_4 
REMARK    3  A    between atoms: C1_3  and  C6_11 
REMARK    4  A    between atoms: C1_3  and  C12_18 
REMARK    5  A    between atoms: C2_4  and  N1_5 
REMARK    6  A    between atoms: C12_18  and  C13_19 
REMARK    7  A    between atoms: C12_18  and  S1_24 
REMARK    8  A    between atoms: C13_19  and  C14_20 
REMARK    9  A    between atoms: S1_24  and  C15_25 
ROOT
HETATM    1  C1  UNL     1       3.888   1.048  42.389  1.00  0.00     0.114 C 
ENDROOT
BRANCH   1   2
HETATM    2  O1  UNL     1       3.789   0.378  43.640  1.00  0.00    -0.382 OA
ATOM      3  H1  UNL     1       2.988   0.730  44.011  1.00  0.00     0.211 HD
ENDBRANCH   1   2
BRANCH   1   4
HETATM    4  C2  UNL     1       4.165   2.485  42.788  1.00  0.00     0.173 C 
BRANCH   4   5
HETATM    5  N1  UNL     1       4.434   2.547  44.242  1.00  0.00    -0.348 N 
HETATM    6  C3  UNL     1       5.681   2.519  44.765  1.00  0.00     0.108 A 
HETATM    7  C4  UNL     1       5.575   2.607  46.134  1.00  0.00     0.106 A 
HETATM    8  N2  UNL     1       4.259   2.683  46.377  1.00  0.00    -0.361 N 
HETATM    9  C5  UNL     1       3.555   2.649  45.228  1.00  0.00     0.182 A 
ATOM     10  H2  UNL     1       3.847   2.758  47.306  1.00  0.00     0.166 HD
ENDBRANCH   4   5
ENDBRANCH   1   4
BRANCH   1  11
HETATM   11  C6  UNL     1       2.566   0.932  41.744  1.00  0.00    -0.021 A 
HETATM   12  C7  UNL     1       1.440   1.280  42.467  1.00  0.00     0.013 A 
HETATM   13  C8  UNL     1       0.155   1.206  41.993  1.00  0.00     0.043 A 
HETATM   14  C9  UNL     1      -0.048   0.760  40.711  1.00  0.00     0.116 A 
HETATM   15  F1  UNL     1      -1.319   0.696  40.280  1.00  0.00    -0.206 F 
HETATM   16  C10 UNL     1       1.036   0.404  39.956  1.00  0.00     0.043 A 
HETATM   17  C11 UNL     1       2.338   0.487  40.461  1.00  0.00     0.013 A 
ENDBRANCH   1  11
BRANCH   1  18
HETATM   18  C12 UNL     1       4.930   0.398  41.539  1.00  0.00     0.101 C 
BRANCH  18  19
HETATM   19  C13 UNL     1       5.451  -0.826  42.263  1.00  0.00     0.136 C 
BRANCH  19  20
HETATM   20  C14 UNL     1       5.621  -1.991  41.308  1.00  0.00     0.389 C 
HETATM   21  F2  UNL     1       5.091  -3.103  41.970  1.00  0.00    -0.171 F 
HETATM   22  F3  UNL     1       4.917  -1.822  40.158  1.00  0.00    -0.171 F 
HETATM   23  F4  UNL     1       6.956  -2.244  41.127  1.00  0.00    -0.171 F 
ENDBRANCH  19  20
ENDBRANCH  18  19
BRANCH  18  24
HETATM   24  S1  UNL     1       6.183   1.415  40.816  1.00  0.00    -0.121 SA
BRANCH  24  25
HETATM   25  C15 UNL     1       7.810   1.272  41.455  1.00  0.00     0.001 A 
HETATM   26  C16 UNL     1       8.304   1.834  42.611  1.00  0.00     0.018 A 
HETATM   27  C17 UNL     1       9.573   1.700  43.076  1.00  0.00     0.001 A 
HETATM   28  C18 UNL     1      10.458   0.936  42.336  1.00  0.00     0.000 A 
HETATM   29  C19 UNL     1      10.029   0.343  41.168  1.00  0.00     0.001 A 
HETATM   30  C20 UNL     1       8.732   0.514  40.745  1.00  0.00     0.018 A 
ENDBRANCH  24  25
ENDBRANCH  18  24
ENDBRANCH   1  18
TORSDOF 9
ENDMDL
MODEL 5
REMARK VINA RESULT: -7.734155328      2.312      3.594
REMARK  9 active torsions:
REMARK  status: ('A' for Active; 'I' for Inactive)
REMARK    1  A    between atoms: O1_1  and  C1_3 
REMARK    2  A    between atoms: C1_3  and  C2_4 
REMARK    3  A    between atoms: C1_3  and  C6_11 
REMARK    4  A    between atoms: C1_3  and  C12_18 
REMARK    5  A    between atoms: C2_4  and  N1_5 
REMARK    6  A    between atoms: C12_18  and  C13_19 
REMARK    7  A    between atoms: C12_18  and  S1_24 
REMARK    8  A    between atoms: C13_19  and  C14_20 
REMARK    9  A    between atoms: S1_24  and  C15_25 
ROOT
HETATM    1  C1  UNL     1       4.130   1.033  43.047  1.00  0.00     0.114 C 
ENDROOT
BRANCH   1   2
HETATM    2  O1  UNL     1       4.492  -0.309  43.350  1.00  0.00    -0.382 OA
ATOM      3  H1  UNL     1       5.229  -0.470  42.772  1.00  0.00     0.211 HD
ENDBRANCH   1   2
BRANCH   1   4
HETATM    4  C2  UNL     1       3.986   1.670  44.416  1.00  0.00     0.173 C 
BRANCH   4   5
HETATM    5  N1  UNL     1       4.738   0.871  45.409  1.00  0.00    -0.348 N 
HETATM    6  C3  UNL     1       4.222  -0.216  46.027  1.00  0.00     0.108 A 
HETATM    7  C4  UNL     1       5.183  -0.726  46.871  1.00  0.00     0.106 A 
HETATM    8  N2  UNL     1       6.241   0.082  46.723  1.00  0.00    -0.361 N 
HETATM    9  C5  UNL     1       5.980   1.059  45.832  1.00  0.00     0.182 A 
ATOM     10  H2  UNL     1       7.125  -0.028  47.219  1.00  0.00     0.166 HD
ENDBRANCH   4   5
ENDBRANCH   1   4
BRANCH   1  11
HETATM   11  C6  UNL     1       2.825   0.972  42.360  1.00  0.00    -0.021 A 
HETATM   12  C7  UNL     1       2.788   0.569  41.038  1.00  0.00     0.013 A 
HETATM   13  C8  UNL     1       1.646   0.482  40.282  1.00  0.00     0.043 A 
HETATM   14  C9  UNL     1       0.447   0.812  40.861  1.00  0.00     0.116 A 
HETATM   15  F1  UNL     1      -0.651   0.719  40.091  1.00  0.00    -0.206 F 
HETATM   16  C10 UNL     1       0.434   1.216  42.168  1.00  0.00     0.043 A 
HETATM   17  C11 UNL     1       1.610   1.298  42.920  1.00  0.00     0.013 A 
ENDBRANCH   1  11
BRANCH   1  18
HETATM   18  C12 UNL     1       5.151   1.649  42.148  1.00  0.00     0.101 C 
BRANCH  18  19
HETATM   19  C13 UNL     1       6.373   0.756  42.118  1.00  0.00     0.136 C 
BRANCH  19  20
HETATM   20  C14 UNL     1       6.771   0.425  40.693  1.00  0.00     0.389 C 
HETATM   21  F2  UNL     1       7.096   1.648  40.098  1.00  0.00    -0.171 F 
HETATM   22  F3  UNL     1       7.874  -0.366  40.637  1.00  0.00    -0.171 F 
HETATM   23  F4  UNL     1       5.684  -0.063  40.015  1.00  0.00    -0.171 F 
ENDBRANCH  19  20
ENDBRANCH  18  19
BRANCH  18  24
HETATM   24  S1  UNL     1       5.504   3.373  42.329  1.00  0.00    -0.121 SA
BRANCH  24  25
HETATM   25  C15 UNL     1       7.070   3.814  42.986  1.00  0.00     0.001 A 
HETATM   26  C16 UNL     1       7.417   3.918  44.313  1.00  0.00     0.018 A 
HETATM   27  C17 UNL     1       8.643   4.262  44.786  1.00  0.00     0.001 A 
HETATM   28  C18 UNL     1       9.640   4.535  43.865  1.00  0.00     0.000 A 
HETATM   29  C19 UNL     1       9.360   4.449  42.518  1.00  0.00     0.001 A 
HETATM   30  C20 UNL     1       8.100   4.096  42.098  1.00  0.00     0.018 A 
ENDBRANCH  24  25
ENDBRANCH  18  24
ENDBRANCH   1  18
TORSDOF 9
ENDMDL
