MODEL 1
REMARK VINA RESULT: -9.677828688      0.000      0.000
REMARK  5 active torsions:
REMARK  status: ('A' for Active; 'I' for Inactive)
REMARK    1  A    between atoms: C2_2  and  C4_4 
REMARK    2  A    between atoms: C9_9  and  C10_10 
REMARK       I    between atoms: C10_10  and  N1_12 
REMARK    3  A    between atoms: N1_12  and  C11_14 
REMARK    4  A    between atoms: C18_21  and  C19_22 
REMARK    5  A    between atoms: C22_27  and  C23_28 
ROOT
HETATM    1  C10 UNL     1     -17.698 -37.363   2.831  1.00  0.00     0.226 C 
HETATM    2  O1  UNL     1     -16.809 -38.236   2.839  1.00  0.00    -0.273 OA
HETATM    3  N1  UNL     1     -18.984 -37.563   3.410  1.00  0.00    -0.355 N 
ATOM      4  H1  UNL     1     -19.659 -36.800   3.363  1.00  0.00     0.162 HD
ENDROOT
BRANCH   1   5
HETATM    5  C9  UNL     1     -17.388 -36.061   2.187  1.00  0.00     0.112 C 
HETATM    6  C8  UNL     1     -16.126 -36.114   1.399  1.00  0.00     0.024 C 
HETATM    7  C7  UNL     1     -16.350 -35.141   0.271  1.00  0.00    -0.005 C 
HETATM    8  C6  UNL     1     -15.622 -35.571  -0.983  1.00  0.00     0.006 C 
HETATM    9  C24 UNL     1     -17.823 -35.240  -0.051  1.00  0.00     0.029 C 
HETATM   10  C5  UNL     1     -16.573 -36.504  -1.629  1.00  0.00     0.006 C 
HETATM   11  C4  UNL     1     -17.954 -36.266  -1.077  1.00  0.00    -0.003 C 
HETATM   12  C22 UNL     1     -18.416 -35.482   1.307  1.00  0.00     0.003 C 
BRANCH  11  13
HETATM   13  C2  UNL     1     -18.789 -35.847  -2.286  1.00  0.00    -0.018 C 
HETATM   14  C1  UNL     1     -18.791 -37.035  -3.259  1.00  0.00     0.010 C 
HETATM   15  C3  UNL     1     -18.263 -34.634  -2.963  1.00  0.00     0.010 C 
ENDBRANCH  11  13
BRANCH  12  16
HETATM   16  C23 UNL     1     -19.772 -35.998   1.368  1.00  0.00     0.258 C 
HETATM   17  N3  UNL     1     -20.708 -35.432   2.317  1.00  0.00    -0.058 NA
HETATM   18  O3  UNL     1     -20.276 -36.919   0.676  1.00  0.00    -0.272 OA
ENDBRANCH  12  16
ENDBRANCH   1   5
BRANCH   3  19
HETATM   19  C11 UNL     1     -19.382 -38.787   4.062  1.00  0.00     0.092 C 
HETATM   20  C12 UNL     1     -19.619 -39.911   3.076  1.00  0.00     0.010 C 
HETATM   21  C13 UNL     1     -20.946 -39.796   2.374  1.00  0.00     0.011 C 
HETATM   22  C21 UNL     1     -19.673 -41.188   3.891  1.00  0.00     0.025 C 
HETATM   23  C14 UNL     1     -22.069 -39.589   3.355  1.00  0.00    -0.013 C 
HETATM   24  C15 UNL     1     -21.857 -38.459   4.307  1.00  0.00     0.011 C 
HETATM   25  C20 UNL     1     -22.148 -40.867   4.193  1.00  0.00     0.023 C 
HETATM   26  C16 UNL     1     -20.529 -38.609   5.012  1.00  0.00     0.010 C 
HETATM   27  C17 UNL     1     -20.619 -39.897   5.824  1.00  0.00     0.025 C 
HETATM   28  C18 UNL     1     -20.816 -41.069   4.874  1.00  0.00     0.040 C 
BRANCH  28  29
HETATM   29  C19 UNL     1     -20.836 -42.301   5.679  1.00  0.00     0.239 C 
HETATM   30  N2  UNL     1     -22.074 -42.913   5.978  1.00  0.00    -0.061 NA
HETATM   31  O2  UNL     1     -19.767 -42.796   6.090  1.00  0.00    -0.276 OA
ENDBRANCH  28  29
ENDBRANCH   3  19
TORSDOF 5
ENDMDL
MODEL 2
REMARK VINA RESULT: -9.486299811      2.775      8.369
REMARK  5 active torsions:
REMARK  status: ('A' for Active; 'I' for Inactive)
REMARK    1  A    between atoms: C2_2  and  C4_4 
REMARK    2  A    between atoms: C9_9  and  C10_10 
REMARK       I    between atoms: C10_10  and  N1_12 
REMARK    3  A    between atoms: N1_12  and  C11_14 
REMARK    4  A    between atoms: C18_21  and  C19_22 
REMARK    5  A    between atoms: C22_27  and  C23_28 
ROOT
HETATM    1  C10 UNL     1     -19.545 -37.792   0.106  1.00  0.00     0.226 C 
HETATM    2  O1  UNL     1     -19.550 -38.913  -0.435  1.00  0.00    -0.273 OA
HETATM    3  N1  UNL     1     -18.857 -36.671  -0.441  1.00  0.00    -0.355 N 
ATOM      4  H1  UNL     1     -18.900 -35.785   0.063  1.00  0.00     0.162 HD
ENDROOT
BRANCH   1   5
HETATM    5  C9  UNL     1     -20.297 -37.630   1.377  1.00  0.00     0.112 C 
HETATM    6  C8  UNL     1     -21.537 -38.453   1.401  1.00  0.00     0.024 C 
HETATM    7  C7  UNL     1     -21.719 -38.811   2.853  1.00  0.00    -0.005 C 
HETATM    8  C6  UNL     1     -22.373 -40.166   3.010  1.00  0.00     0.006 C 
HETATM    9  C24 UNL     1     -20.320 -38.962   3.401  1.00  0.00     0.029 C 
HETATM   10  C5  UNL     1     -21.233 -41.108   2.943  1.00  0.00     0.006 C 
HETATM   11  C4  UNL     1     -19.956 -40.363   3.230  1.00  0.00    -0.003 C 
HETATM   12  C22 UNL     1     -19.575 -37.913   2.628  1.00  0.00     0.003 C 
BRANCH  11  13
HETATM   13  C2  UNL     1     -19.392 -41.027   4.485  1.00  0.00    -0.018 C 
HETATM   14  C1  UNL     1     -20.250 -42.271   4.755  1.00  0.00     0.010 C 
HETATM   15  C3  UNL     1     -19.405 -40.131   5.672  1.00  0.00     0.010 C 
ENDBRANCH  11  13
BRANCH  12  16
HETATM   16  C23 UNL     1     -18.125 -37.994   2.605  1.00  0.00     0.258 C 
HETATM   17  N3  UNL     1     -17.342 -36.775   2.605  1.00  0.00    -0.058 NA
HETATM   18  O3  UNL     1     -17.413 -39.030   2.583  1.00  0.00    -0.272 OA
ENDBRANCH  12  16
ENDBRANCH   1   5
BRANCH   3  19
HETATM   19  C11 UNL     1     -18.104 -36.723  -1.670  1.00  0.00     0.092 C 
HETATM   20  C12 UNL     1     -16.834 -35.902  -1.600  1.00  0.00     0.010 C 
HETATM   21  C13 UNL     1     -17.088 -34.427  -1.761  1.00  0.00     0.011 C 
HETATM   22  C21 UNL     1     -15.988 -36.324  -2.785  1.00  0.00     0.025 C 
HETATM   23  C14 UNL     1     -17.938 -34.144  -2.971  1.00  0.00    -0.013 C 
HETATM   24  C15 UNL     1     -19.210 -34.925  -3.028  1.00  0.00     0.011 C 
HETATM   25  C20 UNL     1     -17.106 -34.561  -4.186  1.00  0.00     0.023 C 
HETATM   26  C16 UNL     1     -18.925 -36.402  -2.885  1.00  0.00     0.010 C 
HETATM   27  C17 UNL     1     -18.079 -36.793  -4.091  1.00  0.00     0.025 C 
HETATM   28  C18 UNL     1     -16.766 -36.025  -4.047  1.00  0.00     0.040 C 
BRANCH  28  29
HETATM   29  C19 UNL     1     -15.947 -36.470  -5.186  1.00  0.00     0.239 C 
HETATM   30  N2  UNL     1     -15.053 -35.558  -5.793  1.00  0.00    -0.061 NA
HETATM   31  O2  UNL     1     -16.044 -37.640  -5.607  1.00  0.00    -0.276 OA
ENDBRANCH  28  29
ENDBRANCH   3  19
TORSDOF 5
ENDMDL
MODEL 3
REMARK VINA RESULT: -8.914647356      2.101      3.518
REMARK  5 active torsions:
REMARK  status: ('A' for Active; 'I' for Inactive)
REMARK    1  A    between atoms: C2_2  and  C4_4 
REMARK    2  A    between atoms: C9_9  and  C10_10 
REMARK       I    between atoms: C10_10  and  N1_12 
REMARK    3  A    between atoms: N1_12  and  C11_14 
REMARK    4  A    between atoms: C18_21  and  C19_22 
REMARK    5  A    between atoms: C22_27  and  C23_28 
ROOT
HETATM    1  C10 UNL     1     -20.427 -38.757   0.609  1.00  0.00     0.226 C 
HETATM    2  O1  UNL     1     -21.271 -37.860   0.418  1.00  0.00    -0.273 OA
HETATM    3  N1  UNL     1     -20.478 -39.643   1.723  1.00  0.00    -0.355 N 
ATOM      4  H1  UNL     1     -19.749 -40.351   1.810  1.00  0.00     0.162 HD
ENDROOT
BRANCH   1   5
HETATM    5  C9  UNL     1     -19.328 -38.898  -0.380  1.00  0.00     0.112 C 
HETATM    6  C8  UNL     1     -19.795 -38.655  -1.773  1.00  0.00     0.024 C 
HETATM    7  C7  UNL     1     -18.596 -38.067  -2.470  1.00  0.00    -0.005 C 
HETATM    8  C6  UNL     1     -19.007 -37.087  -3.545  1.00  0.00     0.006 C 
HETATM    9  C24 UNL     1     -17.887 -37.249  -1.416  1.00  0.00     0.029 C 
HETATM   10  C5  UNL     1     -19.174 -35.815  -2.807  1.00  0.00     0.006 C 
HETATM   11  C4  UNL     1     -18.438 -35.902  -1.496  1.00  0.00    -0.003 C 
HETATM   12  C22 UNL     1     -18.130 -38.067  -0.181  1.00  0.00     0.003 C 
BRANCH  11  13
HETATM   13  C2  UNL     1     -17.389 -34.794  -1.565  1.00  0.00    -0.018 C 
HETATM   14  C1  UNL     1     -17.602 -34.060  -2.896  1.00  0.00     0.010 C 
HETATM   15  C3  UNL     1     -15.996 -35.306  -1.481  1.00  0.00     0.010 C 
ENDBRANCH  11  13
BRANCH  12  16
HETATM   16  C23 UNL     1     -17.921 -37.425   1.105  1.00  0.00     0.258 C 
HETATM   17  N3  UNL     1     -17.528 -38.226   2.246  1.00  0.00    -0.058 NA
HETATM   18  O3  UNL     1     -18.040 -36.205   1.385  1.00  0.00    -0.272 OA
ENDBRANCH  12  16
ENDBRANCH   1   5
BRANCH   3  19
HETATM   19  C11 UNL     1     -21.505 -39.591   2.735  1.00  0.00     0.092 C 
HETATM   20  C12 UNL     1     -21.089 -38.763   3.933  1.00  0.00     0.010 C 
HETATM   21  C13 UNL     1     -20.153 -39.503   4.851  1.00  0.00     0.011 C 
HETATM   22  C21 UNL     1     -22.353 -38.500   4.728  1.00  0.00     0.025 C 
HETATM   23  C14 UNL     1     -20.689 -40.866   5.200  1.00  0.00    -0.013 C 
HETATM   24  C15 UNL     1     -21.068 -41.701   4.021  1.00  0.00     0.011 C 
HETATM   25  C20 UNL     1     -21.969 -40.631   6.006  1.00  0.00     0.023 C 
HETATM   26  C16 UNL     1     -22.022 -40.944   3.127  1.00  0.00     0.010 C 
HETATM   27  C17 UNL     1     -23.280 -40.701   3.953  1.00  0.00     0.025 C 
HETATM   28  C18 UNL     1     -22.926 -39.834   5.152  1.00  0.00     0.040 C 
BRANCH  28  29
HETATM   29  C19 UNL     1     -24.168 -39.565   5.894  1.00  0.00     0.239 C 
HETATM   30  N2  UNL     1     -25.163 -40.566   5.967  1.00  0.00    -0.061 NA
HETATM   31  O2  UNL     1     -24.336 -38.462   6.452  1.00  0.00    -0.276 OA
ENDBRANCH  28  29
ENDBRANCH   3  19
TORSDOF 5
ENDMDL
MODEL 4
REMARK VINA RESULT: -8.862516074      2.517      7.879
REMARK  5 active torsions:
REMARK  status: ('A' for Active; 'I' for Inactive)
REMARK    1  A    between atoms: C2_2  and  C4_4 
REMARK    2  A    between atoms: C9_9  and  C10_10 
REMARK       I    between atoms: C10_10  and  N1_12 
REMARK    3  A    between atoms: N1_12  and  C11_14 
REMARK    4  A    between atoms: C18_21  and  C19_22 
REMARK    5  A    between atoms: C22_27  and  C23_28 
ROOT
HETATM    1  C10 UNL     1     -19.249 -36.248   1.512  1.00  0.00     0.226 C 
HETATM    2  O1  UNL     1     -18.291 -35.565   1.920  1.00  0.00    -0.273 OA
HETATM    3  N1  UNL     1     -19.440 -36.570   0.138  1.00  0.00    -0.355 N 
ATOM      4  H1  UNL     1     -20.251 -37.134  -0.118  1.00  0.00     0.162 HD
ENDROOT
BRANCH   1   5
HETATM    5  C9  UNL     1     -20.226 -36.744   2.514  1.00  0.00     0.112 C 
HETATM    6  C8  UNL     1     -21.306 -37.556   1.889  1.00  0.00     0.024 C 
HETATM    7  C7  UNL     1     -21.678 -38.560   2.948  1.00  0.00    -0.005 C 
HETATM    8  C6  UNL     1     -22.126 -39.869   2.336  1.00  0.00     0.006 C 
HETATM    9  C24 UNL     1     -20.389 -38.865   3.675  1.00  0.00     0.029 C 
HETATM   10  C5  UNL     1     -20.858 -40.600   2.119  1.00  0.00     0.006 C 
HETATM   11  C4  UNL     1     -19.785 -40.000   2.989  1.00  0.00    -0.003 C 
HETATM   12  C22 UNL     1     -19.697 -37.534   3.639  1.00  0.00     0.003 C 
BRANCH  11  13
HETATM   13  C2  UNL     1     -19.349 -41.137   3.911  1.00  0.00    -0.018 C 
HETATM   14  C1  UNL     1     -20.177 -42.369   3.520  1.00  0.00     0.010 C 
HETATM   15  C3  UNL     1     -19.547 -40.825   5.351  1.00  0.00     0.010 C 
ENDBRANCH  11  13
BRANCH  12  16
HETATM   16  C23 UNL     1     -18.271 -37.507   3.912  1.00  0.00     0.258 C 
HETATM   17  N3  UNL     1     -17.755 -36.611   4.926  1.00  0.00    -0.058 NA
HETATM   18  O3  UNL     1     -17.369 -38.190   3.361  1.00  0.00    -0.272 OA
ENDBRANCH  12  16
ENDBRANCH   1   5
BRANCH   3  19
HETATM   19  C11 UNL     1     -18.548 -36.141  -0.912  1.00  0.00     0.092 C 
HETATM   20  C12 UNL     1     -19.293 -35.651  -2.134  1.00  0.00     0.010 C 
HETATM   21  C13 UNL     1     -19.824 -36.778  -2.980  1.00  0.00     0.011 C 
HETATM   22  C21 UNL     1     -18.277 -34.915  -2.986  1.00  0.00     0.025 C 
HETATM   23  C14 UNL     1     -18.753 -37.793  -3.277  1.00  0.00    -0.013 C 
HETATM   24  C15 UNL     1     -18.037 -38.307  -2.071  1.00  0.00     0.011 C 
HETATM   25  C20 UNL     1     -17.711 -37.076  -4.140  1.00  0.00     0.023 C 
HETATM   26  C16 UNL     1     -17.498 -37.158  -1.252  1.00  0.00     0.010 C 
HETATM   27  C17 UNL     1     -16.479 -36.445  -2.134  1.00  0.00     0.025 C 
HETATM   28  C18 UNL     1     -17.186 -35.893  -3.363  1.00  0.00     0.040 C 
BRANCH  28  29
HETATM   29  C19 UNL     1     -16.192 -35.158  -4.161  1.00  0.00     0.239 C 
HETATM   30  N2  UNL     1     -15.736 -35.712  -5.379  1.00  0.00    -0.061 NA
HETATM   31  O2  UNL     1     -15.760 -34.058  -3.763  1.00  0.00    -0.276 OA
ENDBRANCH  28  29
ENDBRANCH   3  19
TORSDOF 5
ENDMDL
MODEL 5
REMARK VINA RESULT: -8.840795084      2.874      8.426
REMARK  5 active torsions:
REMARK  status: ('A' for Active; 'I' for Inactive)
REMARK    1  A    between atoms: C2_2  and  C4_4 
REMARK    2  A    between atoms: C9_9  and  C10_10 
REMARK       I    between atoms: C10_10  and  N1_12 
REMARK    3  A    between atoms: N1_12  and  C11_14 
REMARK    4  A    between atoms: C18_21  and  C19_22 
REMARK    5  A    between atoms: C22_27  and  C23_28 
ROOT
HETATM    1  C10 UNL     1     -19.609 -37.231  -0.237  1.00  0.00     0.226 C 
HETATM    2  O1  UNL     1     -19.489 -38.338  -0.796  1.00  0.00    -0.273 OA
HETATM    3  N1  UNL     1     -19.050 -36.033  -0.765  1.00  0.00    -0.355 N 
ATOM      4  H1  UNL     1     -19.191 -35.165  -0.247  1.00  0.00     0.162 HD
ENDROOT
BRANCH   1   5
HETATM    5  C9  UNL     1     -20.375 -37.175   1.035  1.00  0.00     0.112 C 
HETATM    6  C8  UNL     1     -21.491 -38.159   1.059  1.00  0.00     0.024 C 
HETATM    7  C7  UNL     1     -21.621 -38.539   2.511  1.00  0.00    -0.005 C 
HETATM    8  C6  UNL     1     -22.083 -39.971   2.669  1.00  0.00     0.006 C 
HETATM    9  C24 UNL     1     -20.214 -38.497   3.059  1.00  0.00     0.029 C 
HETATM   10  C5  UNL     1     -20.824 -40.747   2.601  1.00  0.00     0.006 C 
HETATM   11  C4  UNL     1     -19.662 -39.835   2.888  1.00  0.00    -0.003 C 
HETATM   12  C22 UNL     1     -19.620 -37.355   2.286  1.00  0.00     0.003 C 
BRANCH  11  13
HETATM   13  C2  UNL     1     -19.011 -40.415   4.142  1.00  0.00    -0.018 C 
HETATM   14  C1  UNL     1     -19.662 -41.783   4.389  1.00  0.00     0.010 C 
HETATM   15  C3  UNL     1     -19.179 -39.547   5.337  1.00  0.00     0.010 C 
ENDBRANCH  11  13
BRANCH  12  16
HETATM   16  C23 UNL     1     -18.173 -37.237   2.261  1.00  0.00     0.258 C 
HETATM   17  N3  UNL     1     -17.565 -35.923   2.223  1.00  0.00    -0.058 NA
HETATM   18  O3  UNL     1     -17.325 -38.166   2.269  1.00  0.00    -0.272 OA
ENDBRANCH  12  16
ENDBRANCH   1   5
BRANCH   3  19
HETATM   19  C11 UNL     1     -18.294 -35.981  -1.993  1.00  0.00     0.092 C 
HETATM   20  C12 UNL     1     -16.837 -36.334  -1.785  1.00  0.00     0.010 C 
HETATM   21  C13 UNL     1     -16.045 -35.199  -1.193  1.00  0.00     0.011 C 
HETATM   22  C21 UNL     1     -16.260 -36.587  -3.164  1.00  0.00     0.025 C 
HETATM   23  C14 UNL     1     -16.266 -33.919  -1.953  1.00  0.00    -0.013 C 
HETATM   24  C15 UNL     1     -17.702 -33.546  -2.130  1.00  0.00     0.011 C 
HETATM   25  C20 UNL     1     -15.691 -34.146  -3.353  1.00  0.00     0.023 C 
HETATM   26  C16 UNL     1     -18.469 -34.694  -2.745  1.00  0.00     0.010 C 
HETATM   27  C17 UNL     1     -17.869 -34.918  -4.127  1.00  0.00     0.025 C 
HETATM   28  C18 UNL     1     -16.409 -35.319  -3.975  1.00  0.00     0.040 C 
BRANCH  28  29
HETATM   29  C19 UNL     1     -15.874 -35.590  -5.319  1.00  0.00     0.239 C 
HETATM   30  N2  UNL     1     -15.503 -36.910  -5.664  1.00  0.00    -0.061 NA
HETATM   31  O2  UNL     1     -15.752 -34.661  -6.142  1.00  0.00    -0.276 OA
ENDBRANCH  28  29
ENDBRANCH   3  19
TORSDOF 5
ENDMDL
