MODEL 1
REMARK VINA RESULT: -7.875448718      0.000      0.000
REMARK  7 active torsions:
REMARK  status: ('A' for Active; 'I' for Inactive)
REMARK    1  A    between atoms: C2_2  and  N1_4 
REMARK       I    between atoms: N1_4  and  C4_6 
REMARK    2  A    between atoms: C4_6  and  C5_8 
REMARK       I    between atoms: N2_13  and  C10_14 
REMARK    3  A    between atoms: C10_14  and  C11_16 
REMARK    4  A    between atoms: C11_16  and  C12_17 
REMARK    5  A    between atoms: C11_16  and  N3_22 
REMARK    6  A    between atoms: C12_17  and  C13_18 
REMARK       I    between atoms: N3_22  and  C17_24 
REMARK       I    between atoms: C17_24  and  N4_26 
REMARK    7  A    between atoms: N4_26  and  C18_28 
ROOT
HETATM    1  C11 UNL     1     -18.176 -36.479   0.016  1.00  0.00     0.179 C 
ENDROOT
BRANCH   1   2
HETATM    2  C10 UNL     1     -19.513 -37.149   0.069  1.00  0.00     0.243 C 
HETATM    3  N2  UNL     1     -19.894 -38.130  -0.917  1.00  0.00    -0.332 N 
HETATM    4  C5  UNL     1     -21.128 -38.849  -0.944  1.00  0.00     0.180 C 
HETATM    5  C9  UNL     1     -19.089 -38.566  -2.023  1.00  0.00     0.092 A 
HETATM    6  C6  UNL     1     -21.195 -39.660  -2.192  1.00  0.00     0.042 C 
HETATM    7  C7  UNL     1     -19.822 -39.572  -2.786  1.00  0.00     0.013 A 
HETATM    8  C8  UNL     1     -19.405 -38.298  -3.428  1.00  0.00     0.032 A 
HETATM    9  O2  UNL     1     -20.366 -36.910   0.966  1.00  0.00    -0.271 OA
BRANCH   4  10
HETATM   10  C4  UNL     1     -21.304 -39.723   0.245  1.00  0.00     0.241 C 
HETATM   11  N1  UNL     1     -21.916 -39.226   1.414  1.00  0.00    -0.355 N 
ATOM     12  H1  UNL     1     -22.235 -38.257   1.418  1.00  0.00     0.162 HD
HETATM   13  O1  UNL     1     -20.898 -40.901   0.187  1.00  0.00    -0.271 OA
BRANCH  11  14
HETATM   14  C2  UNL     1     -22.116 -40.016   2.608  1.00  0.00     0.076 C 
HETATM   15  C1  UNL     1     -22.119 -39.232   3.872  1.00  0.00     0.032 C 
HETATM   16  C3  UNL     1     -23.404 -40.814   2.533  1.00  0.00     0.032 C 
ENDBRANCH  11  14
ENDBRANCH   4  10
ENDBRANCH   1   2
BRANCH   1  17
HETATM   17  C12 UNL     1     -18.230 -35.396  -0.997  1.00  0.00     0.043 C 
BRANCH  17  18
HETATM   18  C13 UNL     1     -16.934 -35.048  -1.667  1.00  0.00    -0.049 C 
HETATM   19  C14 UNL     1     -16.572 -35.955  -2.810  1.00  0.00     0.014 C 
HETATM   20  C15 UNL     1     -17.194 -33.673  -2.316  1.00  0.00     0.014 C 
HETATM   21  C16 UNL     1     -15.758 -34.871  -0.784  1.00  0.00     0.014 C 
ENDBRANCH  17  18
ENDBRANCH   1  17
BRANCH   1  22
HETATM   22  N3  UNL     1     -18.100 -35.792   1.338  1.00  0.00    -0.330 N 
HETATM   23  C17 UNL     1     -17.368 -36.354   2.394  1.00  0.00     0.317 C 
HETATM   24  O3  UNL     1     -16.742 -37.461   2.285  1.00  0.00    -0.247 OA
HETATM   25  N4  UNL     1     -17.296 -35.709   3.645  1.00  0.00    -0.339 N 
ATOM     26  H4  UNL     1     -17.775 -34.815   3.766  1.00  0.00     0.164 HD
ATOM     27  H3  UNL     1     -18.584 -34.905   1.475  1.00  0.00     0.165 HD
BRANCH  25  28
HETATM   28  C18 UNL     1     -16.564 -36.269   4.770  1.00  0.00     0.086 C 
HETATM   29  C19 UNL     1     -15.407 -35.460   5.222  1.00  0.00     0.025 C 
HETATM   30  C20 UNL     1     -14.842 -36.021   6.490  1.00  0.00     0.002 C 
HETATM   31  C21 UNL     1     -15.353 -37.403   6.710  1.00  0.00     0.000 C 
HETATM   32  C22 UNL     1     -16.857 -37.427   6.909  1.00  0.00     0.002 C 
HETATM   33  C23 UNL     1     -17.550 -36.645   5.844  1.00  0.00     0.025 C 
ENDBRANCH  25  28
ENDBRANCH   1  22
TORSDOF 7
ENDMDL
MODEL 2
REMARK VINA RESULT: -7.872358997      2.077      7.698
REMARK  7 active torsions:
REMARK  status: ('A' for Active; 'I' for Inactive)
REMARK    1  A    between atoms: C2_2  and  N1_4 
REMARK       I    between atoms: N1_4  and  C4_6 
REMARK    2  A    between atoms: C4_6  and  C5_8 
REMARK       I    between atoms: N2_13  and  C10_14 
REMARK    3  A    between atoms: C10_14  and  C11_16 
REMARK    4  A    between atoms: C11_16  and  C12_17 
REMARK    5  A    between atoms: C11_16  and  N3_22 
REMARK    6  A    between atoms: C12_17  and  C13_18 
REMARK       I    between atoms: N3_22  and  C17_24 
REMARK       I    between atoms: C17_24  and  N4_26 
REMARK    7  A    between atoms: N4_26  and  C18_28 
ROOT
HETATM    1  C11 UNL     1     -20.491 -38.404   1.983  1.00  0.00     0.179 C 
ENDROOT
BRANCH   1   2
HETATM    2  C10 UNL     1     -20.039 -37.367   2.963  1.00  0.00     0.243 C 
HETATM    3  N2  UNL     1     -19.522 -37.740   4.256  1.00  0.00    -0.332 N 
HETATM    4  C5  UNL     1     -19.037 -36.837   5.252  1.00  0.00     0.180 C 
HETATM    5  C9  UNL     1     -19.385 -39.080   4.751  1.00  0.00     0.092 A 
HETATM    6  C6  UNL     1     -18.725 -37.599   6.493  1.00  0.00     0.042 C 
HETATM    7  C7  UNL     1     -18.817 -39.042   6.096  1.00  0.00     0.013 A 
HETATM    8  C8  UNL     1     -20.162 -39.630   5.865  1.00  0.00     0.032 A 
HETATM    9  O2  UNL     1     -20.072 -36.130   2.717  1.00  0.00    -0.271 OA
BRANCH   4  10
HETATM   10  C4  UNL     1     -17.842 -36.080   4.800  1.00  0.00     0.241 C 
HETATM   11  N1  UNL     1     -17.124 -36.491   3.657  1.00  0.00    -0.355 N 
ATOM     12  H1  UNL     1     -17.449 -37.316   3.153  1.00  0.00     0.162 HD
HETATM   13  O1  UNL     1     -17.487 -35.077   5.451  1.00  0.00    -0.271 OA
BRANCH  11  14
HETATM   14  C2  UNL     1     -15.950 -35.807   3.163  1.00  0.00     0.076 C 
HETATM   15  C1  UNL     1     -14.664 -36.482   3.478  1.00  0.00     0.032 C 
HETATM   16  C3  UNL     1     -16.027 -35.594   1.662  1.00  0.00     0.032 C 
ENDBRANCH  11  14
ENDBRANCH   4  10
ENDBRANCH   1   2
BRANCH   1  17
HETATM   17  C12 UNL     1     -21.865 -38.829   2.345  1.00  0.00     0.043 C 
BRANCH  17  18
HETATM   18  C13 UNL     1     -22.174 -40.288   2.181  1.00  0.00    -0.049 C 
HETATM   19  C14 UNL     1     -22.964 -40.611   0.943  1.00  0.00     0.014 C 
HETATM   20  C15 UNL     1     -20.799 -40.949   1.960  1.00  0.00     0.014 C 
HETATM   21  C16 UNL     1     -22.777 -40.974   3.346  1.00  0.00     0.014 C 
ENDBRANCH  17  18
ENDBRANCH   1  17
BRANCH   1  22
HETATM   22  N3  UNL     1     -20.630 -37.624   0.719  1.00  0.00    -0.330 N 
HETATM   23  C17 UNL     1     -19.577 -37.570  -0.206  1.00  0.00     0.317 C 
HETATM   24  O3  UNL     1     -18.466 -38.170  -0.021  1.00  0.00    -0.247 OA
HETATM   25  N4  UNL     1     -19.705 -36.832  -1.401  1.00  0.00    -0.339 N 
ATOM     26  H4  UNL     1     -20.584 -36.348  -1.589  1.00  0.00     0.164 HD
ATOM     27  H3  UNL     1     -21.499 -37.126   0.525  1.00  0.00     0.165 HD
BRANCH  25  28
HETATM   28  C18 UNL     1     -18.630 -36.735  -2.376  1.00  0.00     0.086 C 
HETATM   29  C19 UNL     1     -18.795 -37.598  -3.570  1.00  0.00     0.025 C 
HETATM   30  C20 UNL     1     -17.744 -37.286  -4.588  1.00  0.00     0.002 C 
HETATM   31  C21 UNL     1     -16.646 -36.495  -3.963  1.00  0.00     0.000 C 
HETATM   32  C22 UNL     1     -17.129 -35.143  -3.476  1.00  0.00     0.002 C 
HETATM   33  C23 UNL     1     -18.370 -35.280  -2.660  1.00  0.00     0.025 C 
ENDBRANCH  25  28
ENDBRANCH   1  22
TORSDOF 7
ENDMDL
MODEL 3
REMARK VINA RESULT: -7.846558916      1.544      6.272
REMARK  7 active torsions:
REMARK  status: ('A' for Active; 'I' for Inactive)
REMARK    1  A    between atoms: C2_2  and  N1_4 
REMARK       I    between atoms: N1_4  and  C4_6 
REMARK    2  A    between atoms: C4_6  and  C5_8 
REMARK       I    between atoms: N2_13  and  C10_14 
REMARK    3  A    between atoms: C10_14  and  C11_16 
REMARK    4  A    between atoms: C11_16  and  C12_17 
REMARK    5  A    between atoms: C11_16  and  N3_22 
REMARK    6  A    between atoms: C12_17  and  C13_18 
REMARK       I    between atoms: N3_22  and  C17_24 
REMARK       I    between atoms: C17_24  and  N4_26 
REMARK    7  A    between atoms: N4_26  and  C18_28 
ROOT
HETATM    1  C11 UNL     1     -17.915 -36.896   3.441  1.00  0.00     0.179 C 
ENDROOT
BRANCH   1   2
HETATM    2  C10 UNL     1     -18.453 -38.255   3.121  1.00  0.00     0.243 C 
HETATM    3  N2  UNL     1     -19.807 -38.619   3.459  1.00  0.00    -0.332 N 
HETATM    4  C5  UNL     1     -20.428 -39.874   3.174  1.00  0.00     0.180 C 
HETATM    5  C9  UNL     1     -20.765 -37.775   4.115  1.00  0.00     0.092 A 
HETATM    6  C6  UNL     1     -21.777 -39.906   3.805  1.00  0.00     0.042 C 
HETATM    7  C7  UNL     1     -22.021 -38.503   4.272  1.00  0.00     0.013 A 
HETATM    8  C8  UNL     1     -21.283 -38.012   5.465  1.00  0.00     0.032 A 
HETATM    9  O2  UNL     1     -17.772 -39.143   2.539  1.00  0.00    -0.271 OA
BRANCH   4  10
HETATM   10  C4  UNL     1     -20.538 -40.137   1.717  1.00  0.00     0.241 C 
HETATM   11  N1  UNL     1     -20.542 -39.070   0.795  1.00  0.00    -0.355 N 
ATOM     12  H1  UNL     1     -20.466 -38.119   1.156  1.00  0.00     0.162 HD
HETATM   13  O1  UNL     1     -20.627 -41.319   1.327  1.00  0.00    -0.271 OA
BRANCH  11  14
HETATM   14  C2  UNL     1     -20.650 -39.250  -0.636  1.00  0.00     0.076 C 
HETATM   15  C1  UNL     1     -22.021 -39.568  -1.116  1.00  0.00     0.032 C 
HETATM   16  C3  UNL     1     -20.148 -38.030  -1.385  1.00  0.00     0.032 C 
ENDBRANCH  11  14
ENDBRANCH   4  10
ENDBRANCH   1   2
BRANCH   1  17
HETATM   17  C12 UNL     1     -17.125 -36.983   4.693  1.00  0.00     0.043 C 
BRANCH  17  18
HETATM   18  C13 UNL     1     -17.509 -36.032   5.788  1.00  0.00    -0.049 C 
HETATM   19  C14 UNL     1     -17.702 -36.687   7.127  1.00  0.00     0.014 C 
HETATM   20  C15 UNL     1     -16.272 -35.126   5.962  1.00  0.00     0.014 C 
HETATM   21  C16 UNL     1     -18.646 -35.126   5.511  1.00  0.00     0.014 C 
ENDBRANCH  17  18
ENDBRANCH   1  17
BRANCH   1  22
HETATM   22  N3  UNL     1     -16.923 -36.669   2.351  1.00  0.00    -0.330 N 
HETATM   23  C17 UNL     1     -17.302 -36.033   1.160  1.00  0.00     0.317 C 
HETATM   24  O3  UNL     1     -18.491 -35.621   0.947  1.00  0.00    -0.247 OA
HETATM   25  N4  UNL     1     -16.366 -35.819   0.127  1.00  0.00    -0.339 N 
ATOM     26  H4  UNL     1     -15.402 -36.124   0.266  1.00  0.00     0.164 HD
ATOM     27  H3  UNL     1     -15.959 -36.981   2.472  1.00  0.00     0.165 HD
BRANCH  25  28
HETATM   28  C18 UNL     1     -16.725 -35.180  -1.129  1.00  0.00     0.086 C 
HETATM   29  C19 UNL     1     -15.819 -34.085  -1.549  1.00  0.00     0.025 C 
HETATM   30  C20 UNL     1     -16.162 -33.626  -2.932  1.00  0.00     0.002 C 
HETATM   31  C21 UNL     1     -17.511 -34.127  -3.317  1.00  0.00     0.000 C 
HETATM   32  C22 UNL     1     -17.554 -35.641  -3.388  1.00  0.00     0.002 C 
HETATM   33  C23 UNL     1     -16.966 -36.251  -2.160  1.00  0.00     0.025 C 
ENDBRANCH  25  28
ENDBRANCH   1  22
TORSDOF 7
ENDMDL
MODEL 4
REMARK VINA RESULT: -7.828764193      2.245      7.466
REMARK  7 active torsions:
REMARK  status: ('A' for Active; 'I' for Inactive)
REMARK    1  A    between atoms: C2_2  and  N1_4 
REMARK       I    between atoms: N1_4  and  C4_6 
REMARK    2  A    between atoms: C4_6  and  C5_8 
REMARK       I    between atoms: N2_13  and  C10_14 
REMARK    3  A    between atoms: C10_14  and  C11_16 
REMARK    4  A    between atoms: C11_16  and  C12_17 
REMARK    5  A    between atoms: C11_16  and  N3_22 
REMARK    6  A    between atoms: C12_17  and  C13_18 
REMARK       I    between atoms: N3_22  and  C17_24 
REMARK       I    between atoms: C17_24  and  N4_26 
REMARK    7  A    between atoms: N4_26  and  C18_28 
ROOT
HETATM    1  C11 UNL     1     -20.216 -38.572   1.752  1.00  0.00     0.179 C 
ENDROOT
BRANCH   1   2
HETATM    2  C10 UNL     1     -20.063 -37.987   3.121  1.00  0.00     0.243 C 
HETATM    3  N2  UNL     1     -19.768 -38.822   4.259  1.00  0.00    -0.332 N 
HETATM    4  C5  UNL     1     -19.573 -38.366   5.599  1.00  0.00     0.180 C 
HETATM    5  C9  UNL     1     -19.596 -40.247   4.232  1.00  0.00     0.092 A 
HETATM    6  C6  UNL     1     -19.429 -39.544   6.500  1.00  0.00     0.042 C 
HETATM    7  C7  UNL     1     -19.302 -40.722   5.582  1.00  0.00     0.013 A 
HETATM    8  C8  UNL     1     -20.514 -41.198   4.865  1.00  0.00     0.032 A 
HETATM    9  O2  UNL     1     -20.170 -36.752   3.356  1.00  0.00    -0.271 OA
BRANCH   4  10
HETATM   10  C4  UNL     1     -18.394 -37.473   5.730  1.00  0.00     0.241 C 
HETATM   11  N1  UNL     1     -17.132 -37.877   5.247  1.00  0.00    -0.355 N 
ATOM     12  H1  UNL     1     -17.055 -38.792   4.804  1.00  0.00     0.162 HD
HETATM   13  O1  UNL     1     -18.543 -36.362   6.278  1.00  0.00    -0.271 OA
BRANCH  11  14
HETATM   14  C2  UNL     1     -15.942 -37.062   5.344  1.00  0.00     0.076 C 
HETATM   15  C1  UNL     1     -14.907 -37.591   6.272  1.00  0.00     0.032 C 
HETATM   16  C3  UNL     1     -15.305 -36.852   3.983  1.00  0.00     0.032 C 
ENDBRANCH  11  14
ENDBRANCH   4  10
ENDBRANCH   1   2
BRANCH   1  17
HETATM   17  C12 UNL     1     -21.634 -38.962   1.560  1.00  0.00     0.043 C 
BRANCH  17  18
HETATM   18  C13 UNL     1     -21.882 -40.152   0.681  1.00  0.00    -0.049 C 
HETATM   19  C14 UNL     1     -20.927 -41.290   0.906  1.00  0.00     0.014 C 
HETATM   20  C15 UNL     1     -23.255 -40.687   1.138  1.00  0.00     0.014 C 
HETATM   21  C16 UNL     1     -22.006 -39.890  -0.771  1.00  0.00     0.014 C 
ENDBRANCH  17  18
ENDBRANCH   1  17
BRANCH   1  22
HETATM   22  N3  UNL     1     -19.997 -37.393   0.864  1.00  0.00    -0.330 N 
HETATM   23  C17 UNL     1     -19.178 -37.493  -0.269  1.00  0.00     0.317 C 
HETATM   24  O3  UNL     1     -18.585 -38.575  -0.596  1.00  0.00    -0.247 OA
HETATM   25  N4  UNL     1     -18.968 -36.380  -1.109  1.00  0.00    -0.339 N 
ATOM     26  H4  UNL     1     -19.436 -35.501  -0.885  1.00  0.00     0.164 HD
ATOM     27  H3  UNL     1     -20.449 -36.505   1.083  1.00  0.00     0.165 HD
BRANCH  25  28
HETATM   28  C18 UNL     1     -18.110 -36.440  -2.282  1.00  0.00     0.086 C 
HETATM   29  C19 UNL     1     -18.594 -37.335  -3.359  1.00  0.00     0.025 C 
HETATM   30  C20 UNL     1     -17.748 -37.180  -4.585  1.00  0.00     0.002 C 
HETATM   31  C21 UNL     1     -16.479 -36.478  -4.244  1.00  0.00     0.000 C 
HETATM   32  C22 UNL     1     -16.728 -35.062  -3.761  1.00  0.00     0.002 C 
HETATM   33  C23 UNL     1     -17.783 -35.033  -2.707  1.00  0.00     0.025 C 
ENDBRANCH  25  28
ENDBRANCH   1  22
TORSDOF 7
ENDMDL
MODEL 5
REMARK VINA RESULT: -7.780855324      1.888      6.468
REMARK  7 active torsions:
REMARK  status: ('A' for Active; 'I' for Inactive)
REMARK    1  A    between atoms: C2_2  and  N1_4 
REMARK       I    between atoms: N1_4  and  C4_6 
REMARK    2  A    between atoms: C4_6  and  C5_8 
REMARK       I    between atoms: N2_13  and  C10_14 
REMARK    3  A    between atoms: C10_14  and  C11_16 
REMARK    4  A    between atoms: C11_16  and  C12_17 
REMARK    5  A    between atoms: C11_16  and  N3_22 
REMARK    6  A    between atoms: C12_17  and  C13_18 
REMARK       I    between atoms: N3_22  and  C17_24 
REMARK       I    between atoms: C17_24  and  N4_26 
REMARK    7  A    between atoms: N4_26  and  C18_28 
ROOT
HETATM    1  C11 UNL     1     -16.735 -36.748   3.708  1.00  0.00     0.179 C 
ENDROOT
BRANCH   1   2
HETATM    2  C10 UNL     1     -17.483 -38.033   3.533  1.00  0.00     0.243 C 
HETATM    3  N2  UNL     1     -18.817 -38.195   4.056  1.00  0.00    -0.332 N 
HETATM    4  C5  UNL     1     -19.629 -39.362   3.921  1.00  0.00     0.180 C 
HETATM    5  C9  UNL     1     -19.562 -37.202   4.778  1.00  0.00     0.092 A 
HETATM    6  C6  UNL     1     -20.877 -39.185   4.715  1.00  0.00     0.042 C 
HETATM    7  C7  UNL     1     -20.872 -37.745   5.131  1.00  0.00     0.013 A 
HETATM    8  C8  UNL     1     -19.926 -37.315   6.193  1.00  0.00     0.032 A 
HETATM    9  O2  UNL     1     -17.006 -39.027   2.921  1.00  0.00    -0.271 OA
BRANCH   4  10
HETATM   10  C4  UNL     1     -19.961 -39.664   2.505  1.00  0.00     0.241 C 
HETATM   11  N1  UNL     1     -19.776 -38.688   1.503  1.00  0.00    -0.355 N 
ATOM     12  H1  UNL     1     -19.407 -37.778   1.777  1.00  0.00     0.162 HD
HETATM   13  O1  UNL     1     -20.408 -40.794   2.223  1.00  0.00    -0.271 OA
BRANCH  11  14
HETATM   14  C2  UNL     1     -20.081 -38.910   0.107  1.00  0.00     0.076 C 
HETATM   15  C1  UNL     1     -21.068 -37.956  -0.467  1.00  0.00     0.032 C 
HETATM   16  C3  UNL     1     -18.826 -38.875  -0.744  1.00  0.00     0.032 C 
ENDBRANCH  11  14
ENDBRANCH   4  10
ENDBRANCH   1   2
BRANCH   1  17
HETATM   17  C12 UNL     1     -15.674 -36.953   4.724  1.00  0.00     0.043 C 
BRANCH  17  18
HETATM   18  C13 UNL     1     -15.506 -35.861   5.738  1.00  0.00    -0.049 C 
HETATM   19  C14 UNL     1     -16.739 -35.029   5.953  1.00  0.00     0.014 C 
HETATM   20  C15 UNL     1     -15.289 -36.604   7.072  1.00  0.00     0.014 C 
HETATM   21  C16 UNL     1     -14.333 -34.973   5.567  1.00  0.00     0.014 C 
ENDBRANCH  17  18
ENDBRANCH   1  17
BRANCH   1  22
HETATM   22  N3  UNL     1     -16.023 -36.602   2.405  1.00  0.00    -0.330 N 
HETATM   23  C17 UNL     1     -16.644 -35.968   1.319  1.00  0.00     0.317 C 
HETATM   24  O3  UNL     1     -17.826 -35.492   1.383  1.00  0.00    -0.247 OA
HETATM   25  N4  UNL     1     -15.974 -35.829   0.086  1.00  0.00    -0.339 N 
ATOM     26  H4  UNL     1     -15.022 -36.188   0.000  1.00  0.00     0.164 HD
ATOM     27  H3  UNL     1     -15.076 -36.967   2.303  1.00  0.00     0.165 HD
BRANCH  25  28
HETATM   28  C18 UNL     1     -16.591 -35.195  -1.069  1.00  0.00     0.086 C 
HETATM   29  C19 UNL     1     -15.809 -34.081  -1.656  1.00  0.00     0.025 C 
HETATM   30  C20 UNL     1     -16.432 -33.626  -2.939  1.00  0.00     0.002 C 
HETATM   31  C21 UNL     1     -17.821 -34.154  -3.048  1.00  0.00     0.000 C 
HETATM   32  C22 UNL     1     -17.848 -35.669  -3.117  1.00  0.00     0.002 C 
HETATM   33  C23 UNL     1     -17.013 -36.269  -2.036  1.00  0.00     0.025 C 
ENDBRANCH  25  28
ENDBRANCH   1  22
TORSDOF 7
ENDMDL
