MODEL 1
REMARK VINA RESULT: -9.706008754      0.000      0.000
REMARK  7 active torsions:
REMARK  status: ('A' for Active; 'I' for Inactive)
REMARK    1  A    between atoms: C4_9  and  O3_10 
REMARK    2  A    between atoms: C4_9  and  C5_12 
REMARK    3  A    between atoms: C5_12  and  C6_13 
REMARK    4  A    between atoms: C6_13  and  N3_14 
REMARK    5  A    between atoms: C6_13  and  C8_23 
REMARK    6  A    between atoms: N3_14  and  N4_16 
REMARK       I    between atoms: N4_16  and  C7_18 
REMARK    7  A    between atoms: C10_29  and  O6_30 
ROOT
HETATM    1  C6  UNL     1     -14.287  -7.807  23.911  1.00  0.00     0.086 C 
ENDROOT
BRANCH   1   2
HETATM    2  C5  UNL     1     -14.617  -8.356  22.637  1.00  0.00     0.064 C 
BRANCH   2   3
HETATM    3  C4  UNL     1     -15.689  -7.847  21.757  1.00  0.00     0.241 C 
HETATM    4  C3  UNL     1     -15.808  -8.875  20.635  1.00  0.00     0.274 C 
HETATM    5  N2  UNL     1     -16.817  -8.693  19.675  1.00  0.00    -0.276 N 
HETATM    6  O2  UNL     1     -15.001  -9.865  20.588  1.00  0.00    -0.269 OA
HETATM    7  C2  UNL     1     -17.991  -7.984  20.037  1.00  0.00     0.331 C 
ATOM      8  H2  UNL     1     -16.708  -9.064  18.731  1.00  0.00     0.173 HD
HETATM    9  N1  UNL     1     -18.102  -7.481  21.354  1.00  0.00    -0.271 N 
HETATM   10  O1  UNL     1     -18.876  -7.839  19.163  1.00  0.00    -0.246 OA
HETATM   11  C1  UNL     1     -19.324  -6.760  21.741  1.00  0.00     0.164 C 
HETATM   12  C11 UNL     1     -17.031  -7.681  22.323  1.00  0.00     0.276 C 
HETATM   13  O7  UNL     1     -17.380  -7.682  23.512  1.00  0.00    -0.269 OA
BRANCH   3  14
HETATM   14  O3  UNL     1     -15.430  -6.655  21.072  1.00  0.00    -0.368 OA
ATOM     15  H3  UNL     1     -14.830  -6.199  21.650  1.00  0.00     0.212 HD
ENDBRANCH   3  14
ENDBRANCH   2   3
ENDBRANCH   1   2
BRANCH   1  16
HETATM   16  N3  UNL     1     -14.263  -6.490  23.993  1.00  0.00    -0.296 N 
ATOM     17  H3  UNL     1     -14.843  -6.060  24.715  1.00  0.00     0.187 HD
BRANCH  16  18
HETATM   18  N4  UNL     1     -13.540  -5.654  23.207  1.00  0.00    -0.273 N 
HETATM   19  C7  UNL     1     -12.087  -5.698  23.167  1.00  0.00     0.200 C 
HETATM   20  N5  UNL     1     -11.474  -6.032  24.247  1.00  0.00    -0.372 N 
HETATM   21  N6  UNL     1     -11.368  -5.384  21.991  1.00  0.00    -0.062 NA
ATOM     22  H52 UNL     1     -11.992  -6.259  25.095  1.00  0.00     0.158 HD
ATOM     23  H51 UNL     1     -10.454  -6.062  24.219  1.00  0.00     0.158 HD
ATOM     24  H4  UNL     1     -14.030  -4.975  22.626  1.00  0.00     0.189 HD
ENDBRANCH  16  18
ENDBRANCH   1  16
BRANCH   1  25
HETATM   25  C8  UNL     1     -13.941  -8.438  25.174  1.00  0.00     0.159 A 
HETATM   26  O4  UNL     1     -14.664  -8.316  26.282  1.00  0.00    -0.254 OA
HETATM   27  C9  UNL     1     -14.152  -8.957  27.282  1.00  0.00     0.372 A 
HETATM   28  O5  UNL     1     -14.575  -9.055  28.474  1.00  0.00    -0.238 OA
HETATM   29  N7  UNL     1     -13.026  -9.553  26.872  1.00  0.00    -0.280 N 
HETATM   30  C10 UNL     1     -12.893  -9.230  25.552  1.00  0.00     0.181 A 
ATOM     31  H7  UNL     1     -12.396 -10.130  27.431  1.00  0.00     0.173 HD
BRANCH  30  32
HETATM   32  O6  UNL     1     -11.846  -9.689  24.812  1.00  0.00    -0.344 OA
ATOM     33  H6  UNL     1     -11.353  -9.250  24.128  1.00  0.00     0.219 HD
ENDBRANCH  30  32
ENDBRANCH   1  25
TORSDOF 7
ENDMDL
MODEL 2
REMARK VINA RESULT: -9.496037398      2.496      3.644
REMARK  7 active torsions:
REMARK  status: ('A' for Active; 'I' for Inactive)
REMARK    1  A    between atoms: C4_9  and  O3_10 
REMARK    2  A    between atoms: C4_9  and  C5_12 
REMARK    3  A    between atoms: C5_12  and  C6_13 
REMARK    4  A    between atoms: C6_13  and  N3_14 
REMARK    5  A    between atoms: C6_13  and  C8_23 
REMARK    6  A    between atoms: N3_14  and  N4_16 
REMARK       I    between atoms: N4_16  and  C7_18 
REMARK    7  A    between atoms: C10_29  and  O6_30 
ROOT
HETATM    1  C6  UNL     1     -14.776  -7.808  23.644  1.00  0.00     0.086 C 
ENDROOT
BRANCH   1   2
HETATM    2  C5  UNL     1     -16.143  -7.493  23.904  1.00  0.00     0.064 C 
BRANCH   2   3
HETATM    3  C4  UNL     1     -16.793  -6.217  23.541  1.00  0.00     0.241 C 
HETATM    4  C3  UNL     1     -18.013  -6.611  22.712  1.00  0.00     0.274 C 
HETATM    5  N2  UNL     1     -18.881  -5.591  22.286  1.00  0.00    -0.276 N 
HETATM    6  O2  UNL     1     -18.219  -7.839  22.424  1.00  0.00    -0.269 OA
HETATM    7  C2  UNL     1     -18.968  -4.399  23.049  1.00  0.00     0.331 C 
ATOM      8  H2  UNL     1     -19.440  -5.706  21.441  1.00  0.00     0.173 HD
HETATM    9  N1  UNL     1     -18.173  -4.277  24.212  1.00  0.00    -0.271 N 
HETATM   10  O1  UNL     1     -19.752  -3.508  22.649  1.00  0.00    -0.246 OA
HETATM   11  C1  UNL     1     -18.271  -3.050  25.018  1.00  0.00     0.164 C 
HETATM   12  C11 UNL     1     -17.276  -5.351  24.621  1.00  0.00     0.276 C 
HETATM   13  O7  UNL     1     -17.023  -5.404  25.832  1.00  0.00    -0.269 OA
BRANCH   3  14
HETATM   14  O3  UNL     1     -16.083  -5.370  22.682  1.00  0.00    -0.368 OA
ATOM     15  H3  UNL     1     -15.817  -5.948  21.978  1.00  0.00     0.212 HD
ENDBRANCH   3  14
ENDBRANCH   2   3
ENDBRANCH   1   2
BRANCH   1  16
HETATM   16  N3  UNL     1     -14.349  -7.591  22.413  1.00  0.00    -0.296 N 
ATOM     17  H3  UNL     1     -13.372  -7.320  22.303  1.00  0.00     0.187 HD
BRANCH  16  18
HETATM   18  N4  UNL     1     -15.090  -7.695  21.282  1.00  0.00    -0.273 N 
HETATM   19  C7  UNL     1     -15.257  -8.960  20.583  1.00  0.00     0.200 C 
HETATM   20  N5  UNL     1     -14.281  -9.795  20.626  1.00  0.00    -0.372 N 
HETATM   21  N6  UNL     1     -16.444  -9.266  19.880  1.00  0.00    -0.062 NA
ATOM     22  H52 UNL     1     -13.424  -9.574  21.134  1.00  0.00     0.158 HD
ATOM     23  H51 UNL     1     -14.398 -10.682  20.136  1.00  0.00     0.158 HD
ATOM     24  H4  UNL     1     -15.543  -6.861  20.909  1.00  0.00     0.189 HD
ENDBRANCH  16  18
ENDBRANCH   1  16
BRANCH   1  25
HETATM   25  C8  UNL     1     -13.733  -8.358  24.493  1.00  0.00     0.159 A 
HETATM   26  O4  UNL     1     -13.595  -8.058  25.780  1.00  0.00    -0.254 OA
HETATM   27  C9  UNL     1     -12.588  -8.660  26.325  1.00  0.00     0.372 A 
HETATM   28  O5  UNL     1     -12.170  -8.604  27.521  1.00  0.00    -0.238 OA
HETATM   29  N7  UNL     1     -11.990  -9.414  25.394  1.00  0.00    -0.280 N 
HETATM   30  C10 UNL     1     -12.707  -9.227  24.247  1.00  0.00     0.181 A 
ATOM     31  H7  UNL     1     -11.168 -10.006  25.516  1.00  0.00     0.173 HD
BRANCH  30  32
HETATM   32  O6  UNL     1     -12.374  -9.864  23.091  1.00  0.00    -0.344 OA
ATOM     33  H6  UNL     1     -11.571  -9.814  22.585  1.00  0.00     0.219 HD
ENDBRANCH  30  32
ENDBRANCH   1  25
TORSDOF 7
ENDMDL
MODEL 3
REMARK VINA RESULT: -9.431327954      2.069      2.758
REMARK  7 active torsions:
REMARK  status: ('A' for Active; 'I' for Inactive)
REMARK    1  A    between atoms: C4_9  and  O3_10 
REMARK    2  A    between atoms: C4_9  and  C5_12 
REMARK    3  A    between atoms: C5_12  and  C6_13 
REMARK    4  A    between atoms: C6_13  and  N3_14 
REMARK    5  A    between atoms: C6_13  and  C8_23 
REMARK    6  A    between atoms: N3_14  and  N4_16 
REMARK       I    between atoms: N4_16  and  C7_18 
REMARK    7  A    between atoms: C10_29  and  O6_30 
ROOT
HETATM    1  C6  UNL     1     -15.153  -8.130  23.718  1.00  0.00     0.086 C 
ENDROOT
BRANCH   1   2
HETATM    2  C5  UNL     1     -15.493  -8.291  22.342  1.00  0.00     0.064 C 
BRANCH   2   3
HETATM    3  C4  UNL     1     -16.357  -7.367  21.579  1.00  0.00     0.241 C 
HETATM    4  C3  UNL     1     -16.066  -7.667  20.111  1.00  0.00     0.274 C 
HETATM    5  N2  UNL     1     -16.812  -6.984  19.135  1.00  0.00    -0.276 N 
HETATM    6  O2  UNL     1     -15.164  -8.518  19.800  1.00  0.00    -0.269 OA
HETATM    7  C2  UNL     1     -18.113  -6.524  19.462  1.00  0.00     0.331 C 
ATOM      8  H2  UNL     1     -16.423  -6.821  18.207  1.00  0.00     0.173 HD
HETATM    9  N1  UNL     1     -18.613  -6.766  20.761  1.00  0.00    -0.271 N 
HETATM   10  O1  UNL     1     -18.757  -5.922  18.572  1.00  0.00    -0.246 OA
HETATM   11  C1  UNL     1     -19.969  -6.307  21.101  1.00  0.00     0.164 C 
HETATM   12  C11 UNL     1     -17.809  -7.471  21.753  1.00  0.00     0.276 C 
HETATM   13  O7  UNL     1     -18.447  -8.072  22.628  1.00  0.00    -0.269 OA
BRANCH   3  14
HETATM   14  O3  UNL     1     -16.072  -6.001  21.688  1.00  0.00    -0.368 OA
ATOM     15  H3  UNL     1     -16.648  -5.715  22.387  1.00  0.00     0.212 HD
ENDBRANCH   3  14
ENDBRANCH   2   3
ENDBRANCH   1   2
BRANCH   1  16
HETATM   16  N3  UNL     1     -16.050  -7.527  24.477  1.00  0.00    -0.296 N 
ATOM     17  H3  UNL     1     -16.842  -8.087  24.791  1.00  0.00     0.187 HD
BRANCH  16  18
HETATM   18  N4  UNL     1     -16.014  -6.232  24.877  1.00  0.00    -0.273 N 
HETATM   19  C7  UNL     1     -17.205  -5.534  25.338  1.00  0.00     0.200 C 
HETATM   20  N5  UNL     1     -18.329  -5.870  24.813  1.00  0.00    -0.372 N 
HETATM   21  N6  UNL     1     -17.136  -4.523  26.323  1.00  0.00    -0.062 NA
ATOM     22  H52 UNL     1     -18.379  -6.600  24.103  1.00  0.00     0.158 HD
ATOM     23  H51 UNL     1     -19.164  -5.381  25.136  1.00  0.00     0.158 HD
ATOM     24  H4  UNL     1     -15.126  -5.731  24.854  1.00  0.00     0.189 HD
ENDBRANCH  16  18
ENDBRANCH   1  16
BRANCH   1  25
HETATM   25  C8  UNL     1     -13.963  -8.495  24.468  1.00  0.00     0.159 A 
HETATM   26  O4  UNL     1     -13.787  -8.215  25.755  1.00  0.00    -0.254 OA
HETATM   27  C9  UNL     1     -12.645  -8.629  26.201  1.00  0.00     0.372 A 
HETATM   28  O5  UNL     1     -12.156  -8.531  27.368  1.00  0.00    -0.238 OA
HETATM   29  N7  UNL     1     -11.988  -9.225  25.199  1.00  0.00    -0.280 N 
HETATM   30  C10 UNL     1     -12.812  -9.143  24.113  1.00  0.00     0.181 A 
ATOM     31  H7  UNL     1     -11.062  -9.651  25.237  1.00  0.00     0.173 HD
BRANCH  30  32
HETATM   32  O6  UNL     1     -12.453  -9.668  22.910  1.00  0.00    -0.344 OA
ATOM     33  H6  UNL     1     -12.023  -9.249  22.173  1.00  0.00     0.219 HD
ENDBRANCH  30  32
ENDBRANCH   1  25
TORSDOF 7
ENDMDL
MODEL 4
REMARK VINA RESULT: -9.404496992      2.201      6.536
REMARK  7 active torsions:
REMARK  status: ('A' for Active; 'I' for Inactive)
REMARK    1  A    between atoms: C4_9  and  O3_10 
REMARK    2  A    between atoms: C4_9  and  C5_12 
REMARK    3  A    between atoms: C5_12  and  C6_13 
REMARK    4  A    between atoms: C6_13  and  N3_14 
REMARK    5  A    between atoms: C6_13  and  C8_23 
REMARK    6  A    between atoms: N3_14  and  N4_16 
REMARK       I    between atoms: N4_16  and  C7_18 
REMARK    7  A    between atoms: C10_29  and  O6_30 
ROOT
HETATM    1  C6  UNL     1     -17.189  -6.691  22.358  1.00  0.00     0.086 C 
ENDROOT
BRANCH   1   2
HETATM    2  C5  UNL     1     -15.828  -6.375  22.647  1.00  0.00     0.064 C 
BRANCH   2   3
HETATM    3  C4  UNL     1     -14.896  -7.265  23.369  1.00  0.00     0.241 C 
HETATM    4  C3  UNL     1     -13.523  -6.612  23.220  1.00  0.00     0.274 C 
HETATM    5  N2  UNL     1     -12.435  -7.204  23.882  1.00  0.00    -0.276 N 
HETATM    6  O2  UNL     1     -13.391  -5.559  22.508  1.00  0.00    -0.269 OA
HETATM    7  C2  UNL     1     -12.673  -7.962  25.057  1.00  0.00     0.331 C 
ATOM      8  H2  UNL     1     -11.487  -7.091  23.523  1.00  0.00     0.173 HD
HETATM    9  N1  UNL     1     -14.002  -8.099  25.519  1.00  0.00    -0.271 N 
HETATM   10  O1  UNL     1     -11.684  -8.475  25.628  1.00  0.00    -0.246 OA
HETATM   11  C1  UNL     1     -14.254  -8.869  26.747  1.00  0.00     0.164 C 
HETATM   12  C11 UNL     1     -15.110  -7.479  24.804  1.00  0.00     0.276 C 
HETATM   13  O7  UNL     1     -16.105  -7.208  25.490  1.00  0.00    -0.269 OA
BRANCH   3  14
HETATM   14  O3  UNL     1     -14.702  -8.543  22.833  1.00  0.00    -0.368 OA
ATOM     15  H3  UNL     1     -15.528  -8.726  22.403  1.00  0.00     0.212 HD
ENDBRANCH   3  14
ENDBRANCH   2   3
ENDBRANCH   1   2
BRANCH   1  16
HETATM   16  N3  UNL     1     -18.103  -5.979  22.992  1.00  0.00    -0.296 N 
ATOM     17  H3  UNL     1     -18.356  -5.080  22.581  1.00  0.00     0.187 HD
BRANCH  16  18
HETATM   18  N4  UNL     1     -18.736  -6.332  24.138  1.00  0.00    -0.273 N 
HETATM   19  C7  UNL     1     -20.131  -6.743  24.153  1.00  0.00     0.200 C 
HETATM   20  N5  UNL     1     -20.916  -6.209  23.286  1.00  0.00    -0.372 N 
HETATM   21  N6  UNL     1     -20.613  -7.691  25.083  1.00  0.00    -0.062 NA
ATOM     22  H52 UNL     1     -20.568  -5.525  22.614  1.00  0.00     0.158 HD
ATOM     23  H51 UNL     1     -21.895  -6.497  23.297  1.00  0.00     0.158 HD
ATOM     24  H4  UNL     1     -18.218  -6.308  25.016  1.00  0.00     0.189 HD
ENDBRANCH  16  18
ENDBRANCH   1  16
BRANCH   1  25
HETATM   25  C8  UNL     1     -17.784  -7.691  21.488  1.00  0.00     0.159 A 
HETATM   26  O4  UNL     1     -18.874  -8.384  21.799  1.00  0.00    -0.254 OA
HETATM   27  C9  UNL     1     -19.209  -9.224  20.874  1.00  0.00     0.372 A 
HETATM   28  O5  UNL     1     -20.184 -10.035  20.841  1.00  0.00    -0.238 OA
HETATM   29  N7  UNL     1     -18.328  -9.125  19.872  1.00  0.00    -0.280 N 
HETATM   30  C10 UNL     1     -17.436  -8.164  20.254  1.00  0.00     0.181 A 
ATOM     31  H7  UNL     1     -18.323  -9.657  19.001  1.00  0.00     0.173 HD
BRANCH  30  32
HETATM   32  O6  UNL     1     -16.399  -7.799  19.451  1.00  0.00    -0.344 OA
ATOM     33  H6  UNL     1     -15.937  -8.308  18.794  1.00  0.00     0.219 HD
ENDBRANCH  30  32
ENDBRANCH   1  25
TORSDOF 7
ENDMDL
MODEL 5
REMARK VINA RESULT: -9.292800012      2.275      3.886
REMARK  7 active torsions:
REMARK  status: ('A' for Active; 'I' for Inactive)
REMARK    1  A    between atoms: C4_9  and  O3_10 
REMARK    2  A    between atoms: C4_9  and  C5_12 
REMARK    3  A    between atoms: C5_12  and  C6_13 
REMARK    4  A    between atoms: C6_13  and  N3_14 
REMARK    5  A    between atoms: C6_13  and  C8_23 
REMARK    6  A    between atoms: N3_14  and  N4_16 
REMARK       I    between atoms: N4_16  and  C7_18 
REMARK    7  A    between atoms: C10_29  and  O6_30 
ROOT
HETATM    1  C6  UNL     1     -14.511  -7.669  23.217  1.00  0.00     0.086 C 
ENDROOT
BRANCH   1   2
HETATM    2  C5  UNL     1     -15.378  -6.541  23.305  1.00  0.00     0.064 C 
BRANCH   2   3
HETATM    3  C4  UNL     1     -16.853  -6.614  23.282  1.00  0.00     0.241 C 
HETATM    4  C3  UNL     1     -17.305  -6.026  24.617  1.00  0.00     0.274 C 
HETATM    5  N2  UNL     1     -18.684  -5.892  24.848  1.00  0.00    -0.276 N 
HETATM    6  O2  UNL     1     -16.435  -5.675  25.486  1.00  0.00    -0.269 OA
HETATM    7  C2  UNL     1     -19.555  -5.738  23.740  1.00  0.00     0.331 C 
ATOM      8  H2  UNL     1     -19.053  -5.905  25.799  1.00  0.00     0.173 HD
HETATM    9  N1  UNL     1     -19.004  -5.729  22.438  1.00  0.00    -0.271 N 
HETATM   10  O1  UNL     1     -20.780  -5.617  23.976  1.00  0.00    -0.246 OA
HETATM   11  C1  UNL     1     -19.901  -5.553  21.285  1.00  0.00     0.164 C 
HETATM   12  C11 UNL     1     -17.569  -5.880  22.233  1.00  0.00     0.276 C 
HETATM   13  O7  UNL     1     -17.122  -5.374  21.195  1.00  0.00    -0.269 OA
BRANCH   3  14
HETATM   14  O3  UNL     1     -17.422  -7.892  23.287  1.00  0.00    -0.368 OA
ATOM     15  H3  UNL     1     -17.924  -7.910  22.481  1.00  0.00     0.212 HD
ENDBRANCH   3  14
ENDBRANCH   2   3
ENDBRANCH   1   2
BRANCH   1  16
HETATM   16  N3  UNL     1     -14.512  -8.321  22.069  1.00  0.00    -0.296 N 
ATOM     17  H3  UNL     1     -14.018  -9.213  22.042  1.00  0.00     0.187 HD
BRANCH  16  18
HETATM   18  N4  UNL     1     -15.109  -7.914  20.922  1.00  0.00    -0.273 N 
HETATM   19  C7  UNL     1     -15.986  -8.786  20.156  1.00  0.00     0.200 C 
HETATM   20  N5  UNL     1     -15.730 -10.046  20.174  1.00  0.00    -0.372 N 
HETATM   21  N6  UNL     1     -17.078  -8.276  19.419  1.00  0.00    -0.062 NA
ATOM     22  H52 UNL     1     -14.942 -10.415  20.706  1.00  0.00     0.158 HD
ATOM     23  H51 UNL     1     -16.346 -10.658  19.637  1.00  0.00     0.158 HD
ATOM     24  H4  UNL     1     -14.938  -6.967  20.584  1.00  0.00     0.189 HD
ENDBRANCH  16  18
ENDBRANCH   1  16
BRANCH   1  25
HETATM   25  C8  UNL     1     -13.610  -8.273  24.185  1.00  0.00     0.159 A 
HETATM   26  O4  UNL     1     -13.545  -7.908  25.460  1.00  0.00    -0.254 OA
HETATM   27  C9  UNL     1     -12.661  -8.579  26.125  1.00  0.00     0.372 A 
HETATM   28  O5  UNL     1     -12.340  -8.491  27.349  1.00  0.00    -0.238 OA
HETATM   29  N7  UNL     1     -12.079  -9.452  25.294  1.00  0.00    -0.280 N 
HETATM   30  C10 UNL     1     -12.673  -9.263  24.079  1.00  0.00     0.181 A 
ATOM     31  H7  UNL     1     -11.343 -10.121  25.521  1.00  0.00     0.173 HD
BRANCH  30  32
HETATM   32  O6  UNL     1     -12.321 -10.006  22.995  1.00  0.00    -0.344 OA
ATOM     33  H6  UNL     1     -12.210 -10.947  22.918  1.00  0.00     0.219 HD
ENDBRANCH  30  32
ENDBRANCH   1  25
TORSDOF 7
ENDMDL
