MODEL 1
REMARK VINA RESULT: -8.359836686      0.000      0.000
REMARK  9 active torsions:
REMARK  status: ('A' for Active; 'I' for Inactive)
REMARK    1  A    between atoms: N1_1  and  C1_4 
REMARK    2  A    between atoms: C2_7  and  S1_8 
REMARK    3  A    between atoms: S1_8  and  N3_11 
REMARK    4  A    between atoms: N3_11  and  N4_13 
REMARK    5  A    between atoms: C3_18  and  N6_19 
REMARK    6  A    between atoms: N6_19  and  C4_21 
REMARK    7  A    between atoms: C4_21  and  C5_22 
REMARK    8  A    between atoms: C5_22  and  N7_23 
REMARK    9  A    between atoms: C8_28  and  N9_29 
ROOT
HETATM    1  C1  UNL     1     -13.503  -8.805  24.858  1.00  0.00     0.692 A 
HETATM    2  N2  UNL     1     -14.512  -8.255  25.556  1.00  0.00    -0.163 N 
ATOM      3  H2  UNL     1     -14.503  -8.289  26.575  1.00  0.00     0.186 HD
HETATM    4  C2  UNL     1     -15.523  -7.666  24.921  1.00  0.00     0.254 A 
HETATM    5  N5  UNL     1     -15.508  -7.637  23.579  1.00  0.00    -0.163 N 
ATOM      6  H5  UNL     1     -16.280  -7.187  23.086  1.00  0.00     0.186 HD
HETATM    7  C3  UNL     1     -14.513  -8.179  22.866  1.00  0.00     0.694 A 
HETATM    8  N12 UNL     1     -13.504  -8.767  23.518  1.00  0.00    -0.023 N 
ATOM      9  H12 UNL     1     -12.735  -9.187  22.994  1.00  0.00     0.203 HD
ENDROOT
BRANCH   7  10
HETATM   10  N6  UNL     1     -14.538  -8.129  21.591  1.00  0.00    -0.224 N 
ATOM     11  H6  UNL     1     -13.809  -7.590  21.123  1.00  0.00     0.177 HD
BRANCH  10  12
HETATM   12  C4  UNL     1     -15.522  -8.780  20.768  1.00  0.00     0.158 C 
BRANCH  12  13
HETATM   13  C5  UNL     1     -16.167  -7.805  19.816  1.00  0.00     0.151 C 
BRANCH  13  14
HETATM   14  N7  UNL     1     -17.371  -7.233  20.324  1.00  0.00    -0.326 N 
HETATM   15  C6  UNL     1     -17.576  -6.056  20.963  1.00  0.00     0.185 A 
HETATM   16  N8  UNL     1     -18.876  -5.912  21.271  1.00  0.00    -0.346 N 
HETATM   17  C7  UNL     1     -19.517  -6.997  20.831  1.00  0.00     0.122 A 
ATOM     18  H8  UNL     1     -19.298  -5.117  21.753  1.00  0.00     0.167 HD
HETATM   19  C8  UNL     1     -20.847  -7.350  20.889  1.00  0.00     0.131 A 
HETATM   20  C10 UNL     1     -18.581  -7.828  20.237  1.00  0.00     0.140 A 
HETATM   21  N10 UNL     1     -21.206  -8.529  20.352  1.00  0.00    -0.337 N 
HETATM   22  C9  UNL     1     -20.320  -9.366  19.764  1.00  0.00     0.183 A 
ATOM     23  H10 UNL     1     -22.187  -8.804  20.388  1.00  0.00     0.168 HD
HETATM   24  N11 UNL     1     -19.029  -8.989  19.724  1.00  0.00    -0.336 N 
ATOM     25  H11 UNL     1     -18.356  -9.615  19.283  1.00  0.00     0.168 HD
BRANCH  19  26
HETATM   26  N9  UNL     1     -21.721  -6.578  21.442  1.00  0.00    -0.383 N 
ATOM     27  H92 UNL     1     -21.873  -6.594  22.450  1.00  0.00     0.157 HD
ATOM     28  H91 UNL     1     -22.283  -5.932  20.887  1.00  0.00     0.157 HD
ENDBRANCH  19  26
ENDBRANCH  13  14
ENDBRANCH  12  13
ENDBRANCH  10  12
ENDBRANCH   7  10
BRANCH   4  29
HETATM   29  S1  UNL     1     -16.883  -6.921  25.724  1.00  0.00     0.308 S 
HETATM   30  O1  UNL     1     -18.136  -7.411  25.051  1.00  0.00    -0.196 OA
HETATM   31  O2  UNL     1     -16.953  -7.294  27.167  1.00  0.00    -0.196 OA
BRANCH  29  32
HETATM   32  N3  UNL     1     -16.845  -5.206  25.582  1.00  0.00    -0.227 N 
ATOM     33  H3  UNL     1     -16.329  -4.602  26.222  1.00  0.00     0.199 HD
BRANCH  32  34
HETATM   34  N4  UNL     1     -17.581  -4.730  24.516  1.00  0.00    -0.336 N 
ATOM     35  H42 UNL     1     -18.381  -5.235  24.135  1.00  0.00     0.177 HD
ATOM     36  H41 UNL     1     -17.244  -3.837  24.160  1.00  0.00     0.177 HD
ENDBRANCH  32  34
ENDBRANCH  29  32
ENDBRANCH   4  29
BRANCH   1  37
HETATM   37  N1  UNL     1     -12.547  -9.364  25.547  1.00  0.00    -0.234 N 
ATOM     38  H12 UNL     1     -12.503 -10.369  25.714  1.00  0.00     0.174 HD
ATOM     39  H11 UNL     1     -11.828  -8.746  25.922  1.00  0.00     0.174 HD
ENDBRANCH   1  37
TORSDOF 9
ENDMDL
MODEL 2
REMARK VINA RESULT: -8.290065440      2.928      7.292
REMARK  9 active torsions:
REMARK  status: ('A' for Active; 'I' for Inactive)
REMARK    1  A    between atoms: N1_1  and  C1_4 
REMARK    2  A    between atoms: C2_7  and  S1_8 
REMARK    3  A    between atoms: S1_8  and  N3_11 
REMARK    4  A    between atoms: N3_11  and  N4_13 
REMARK    5  A    between atoms: C3_18  and  N6_19 
REMARK    6  A    between atoms: N6_19  and  C4_21 
REMARK    7  A    between atoms: C4_21  and  C5_22 
REMARK    8  A    between atoms: C5_22  and  N7_23 
REMARK    9  A    between atoms: C8_28  and  N9_29 
ROOT
HETATM    1  C1  UNL     1     -21.250  -5.551  21.788  1.00  0.00     0.692 A 
HETATM    2  N2  UNL     1     -20.979  -6.503  20.878  1.00  0.00    -0.163 N 
ATOM      3  H2  UNL     1     -21.419  -6.466  19.958  1.00  0.00     0.186 HD
HETATM    4  C2  UNL     1     -20.141  -7.493  21.172  1.00  0.00     0.254 A 
HETATM    5  N5  UNL     1     -19.578  -7.516  22.390  1.00  0.00    -0.163 N 
ATOM      6  H5  UNL     1     -18.934  -8.273  22.622  1.00  0.00     0.186 HD
HETATM    7  C3  UNL     1     -19.834  -6.579  23.311  1.00  0.00     0.694 A 
HETATM    8  N12 UNL     1     -20.679  -5.590  23.001  1.00  0.00    -0.023 N 
ATOM      9  H12 UNL     1     -20.889  -4.865  23.687  1.00  0.00     0.203 HD
ENDROOT
BRANCH   7  10
HETATM   10  N6  UNL     1     -19.277  -6.638  24.457  1.00  0.00    -0.224 N 
ATOM     11  H6  UNL     1     -19.760  -7.155  25.193  1.00  0.00     0.177 HD
BRANCH  10  12
HETATM   12  C4  UNL     1     -18.016  -6.028  24.785  1.00  0.00     0.158 C 
BRANCH  12  13
HETATM   13  C5  UNL     1     -17.107  -7.001  25.493  1.00  0.00     0.151 C 
BRANCH  13  14
HETATM   14  N7  UNL     1     -16.079  -7.525  24.653  1.00  0.00    -0.326 N 
HETATM   15  C6  UNL     1     -15.967  -7.518  23.303  1.00  0.00     0.185 A 
HETATM   16  N8  UNL     1     -14.829  -8.127  22.926  1.00  0.00    -0.346 N 
HETATM   17  C7  UNL     1     -14.202  -8.531  24.033  1.00  0.00     0.122 A 
ATOM     18  H8  UNL     1     -14.504  -8.257  21.967  1.00  0.00     0.167 HD
HETATM   19  C8  UNL     1     -13.010  -9.197  24.207  1.00  0.00     0.131 A 
HETATM   20  C10 UNL     1     -14.979  -8.157  25.118  1.00  0.00     0.140 A 
HETATM   21  N10 UNL     1     -12.626  -9.475  25.465  1.00  0.00    -0.337 N 
HETATM   22  C9  UNL     1     -13.357  -9.126  26.548  1.00  0.00     0.183 A 
ATOM     23  H10 UNL     1     -11.745  -9.969  25.609  1.00  0.00     0.168 HD
HETATM   24  N11 UNL     1     -14.517  -8.475  26.342  1.00  0.00    -0.336 N 
ATOM     25  H11 UNL     1     -15.074  -8.209  27.153  1.00  0.00     0.168 HD
BRANCH  19  26
HETATM   26  N9  UNL     1     -12.284  -9.547  23.199  1.00  0.00    -0.383 N 
ATOM     27  H92 UNL     1     -11.905  -8.850  22.559  1.00  0.00     0.157 HD
ATOM     28  H91 UNL     1     -12.070 -10.527  23.015  1.00  0.00     0.157 HD
ENDBRANCH  19  26
ENDBRANCH  13  14
ENDBRANCH  12  13
ENDBRANCH  10  12
ENDBRANCH   7  10
BRANCH   4  29
HETATM   29  S1  UNL     1     -19.718  -8.779  20.068  1.00  0.00     0.308 S 
HETATM   30  O1  UNL     1     -20.470 -10.011  20.492  1.00  0.00    -0.196 OA
HETATM   31  O2  UNL     1     -20.102  -8.458  18.663  1.00  0.00    -0.196 OA
BRANCH  29  32
HETATM   32  N3  UNL     1     -18.037  -9.142  20.129  1.00  0.00    -0.227 N 
ATOM     33  H3  UNL     1     -17.671 -10.058  20.390  1.00  0.00     0.199 HD
BRANCH  32  34
HETATM   34  N4  UNL     1     -17.234  -8.073  19.789  1.00  0.00    -0.336 N 
ATOM     35  H42 UNL     1     -17.351  -7.147  20.201  1.00  0.00     0.177 HD
ATOM     36  H41 UNL     1     -16.524  -8.306  19.095  1.00  0.00     0.177 HD
ENDBRANCH  32  34
ENDBRANCH  29  32
ENDBRANCH   4  29
BRANCH   1  37
HETATM   37  N1  UNL     1     -22.081  -4.612  21.430  1.00  0.00    -0.234 N 
ATOM     38  H12 UNL     1     -23.094  -4.728  21.468  1.00  0.00     0.174 HD
ATOM     39  H11 UNL     1     -21.673  -3.737  21.102  1.00  0.00     0.174 HD
ENDBRANCH   1  37
TORSDOF 9
ENDMDL
MODEL 3
REMARK VINA RESULT: -8.140753472      3.536      4.868
REMARK  9 active torsions:
REMARK  status: ('A' for Active; 'I' for Inactive)
REMARK    1  A    between atoms: N1_1  and  C1_4 
REMARK    2  A    between atoms: C2_7  and  S1_8 
REMARK    3  A    between atoms: S1_8  and  N3_11 
REMARK    4  A    between atoms: N3_11  and  N4_13 
REMARK    5  A    between atoms: C3_18  and  N6_19 
REMARK    6  A    between atoms: N6_19  and  C4_21 
REMARK    7  A    between atoms: C4_21  and  C5_22 
REMARK    8  A    between atoms: C5_22  and  N7_23 
REMARK    9  A    between atoms: C8_28  and  N9_29 
ROOT
HETATM    1  C1  UNL     1     -15.256  -9.180  20.636  1.00  0.00     0.692 A 
HETATM    2  N2  UNL     1     -14.473  -8.584  21.553  1.00  0.00    -0.163 N 
ATOM      3  H2  UNL     1     -13.552  -8.968  21.761  1.00  0.00     0.186 HD
HETATM    4  C2  UNL     1     -14.897  -7.495  22.190  1.00  0.00     0.254 A 
HETATM    5  N5  UNL     1     -16.114  -7.012  21.896  1.00  0.00    -0.163 N 
ATOM      6  H5  UNL     1     -16.445  -6.177  22.381  1.00  0.00     0.186 HD
HETATM    7  C3  UNL     1     -16.908  -7.590  20.987  1.00  0.00     0.694 A 
HETATM    8  N12 UNL     1     -16.470  -8.684  20.355  1.00  0.00    -0.023 N 
ATOM      9  H12 UNL     1     -17.059  -9.141  19.658  1.00  0.00     0.203 HD
ENDROOT
BRANCH   7  10
HETATM   10  N6  UNL     1     -18.059  -7.098  20.737  1.00  0.00    -0.224 N 
ATOM     11  H6  UNL     1     -18.768  -7.722  20.352  1.00  0.00     0.177 HD
BRANCH  10  12
HETATM   12  C4  UNL     1     -18.426  -5.725  20.961  1.00  0.00     0.158 C 
BRANCH  12  13
HETATM   13  C5  UNL     1     -19.476  -5.274  19.977  1.00  0.00     0.151 C 
BRANCH  13  14
HETATM   14  N7  UNL     1     -20.318  -4.241  20.485  1.00  0.00    -0.326 N 
HETATM   15  C6  UNL     1     -20.414  -3.730  21.736  1.00  0.00     0.185 A 
HETATM   16  N8  UNL     1     -21.346  -2.761  21.775  1.00  0.00    -0.346 N 
HETATM   17  C7  UNL     1     -21.856  -2.644  20.546  1.00  0.00     0.122 A 
ATOM     18  H8  UNL     1     -21.614  -2.215  22.594  1.00  0.00     0.167 HD
HETATM   19  C8  UNL     1     -22.830  -1.809  20.046  1.00  0.00     0.131 A 
HETATM   20  C10 UNL     1     -21.217  -3.567  19.735  1.00  0.00     0.140 A 
HETATM   21  N10 UNL     1     -23.142  -1.921  18.743  1.00  0.00    -0.337 N 
HETATM   22  C9  UNL     1     -22.540  -2.810  17.920  1.00  0.00     0.183 A 
ATOM     23  H10 UNL     1     -23.862  -1.310  18.359  1.00  0.00     0.168 HD
HETATM   24  N11 UNL     1     -21.592  -3.610  18.442  1.00  0.00    -0.336 N 
ATOM     25  H11 UNL     1     -21.134  -4.283  17.828  1.00  0.00     0.168 HD
BRANCH  19  26
HETATM   26  N9  UNL     1     -23.427  -0.948  20.800  1.00  0.00    -0.383 N 
ATOM     27  H92 UNL     1     -22.913  -0.427  21.510  1.00  0.00     0.157 HD
ATOM     28  H91 UNL     1     -24.426  -0.765  20.707  1.00  0.00     0.157 HD
ENDBRANCH  19  26
ENDBRANCH  13  14
ENDBRANCH  12  13
ENDBRANCH  10  12
ENDBRANCH   7  10
BRANCH   4  29
HETATM   29  S1  UNL     1     -13.965  -6.642  23.397  1.00  0.00     0.308 S 
HETATM   30  O1  UNL     1     -13.728  -5.246  22.888  1.00  0.00    -0.196 OA
HETATM   31  O2  UNL     1     -14.690  -6.547  24.698  1.00  0.00    -0.196 OA
BRANCH  29  32
HETATM   32  N3  UNL     1     -12.430  -7.377  23.653  1.00  0.00    -0.227 N 
ATOM     33  H3  UNL     1     -12.259  -8.375  23.530  1.00  0.00     0.199 HD
BRANCH  32  34
HETATM   34  N4  UNL     1     -11.454  -6.481  24.040  1.00  0.00    -0.336 N 
ATOM     35  H42 UNL     1     -11.107  -5.748  23.422  1.00  0.00     0.177 HD
ATOM     36  H41 UNL     1     -11.126  -6.631  24.994  1.00  0.00     0.177 HD
ENDBRANCH  32  34
ENDBRANCH  29  32
ENDBRANCH   4  29
BRANCH   1  37
HETATM   37  N1  UNL     1     -14.776 -10.242  20.053  1.00  0.00    -0.234 N 
ATOM     38  H12 UNL     1     -13.797 -10.518  20.129  1.00  0.00     0.174 HD
ATOM     39  H11 UNL     1     -15.429 -10.801  19.503  1.00  0.00     0.174 HD
ENDBRANCH   1  37
TORSDOF 9
ENDMDL
MODEL 4
REMARK VINA RESULT: -8.120045936      3.684      4.946
REMARK  9 active torsions:
REMARK  status: ('A' for Active; 'I' for Inactive)
REMARK    1  A    between atoms: N1_1  and  C1_4 
REMARK    2  A    between atoms: C2_7  and  S1_8 
REMARK    3  A    between atoms: S1_8  and  N3_11 
REMARK    4  A    between atoms: N3_11  and  N4_13 
REMARK    5  A    between atoms: C3_18  and  N6_19 
REMARK    6  A    between atoms: N6_19  and  C4_21 
REMARK    7  A    between atoms: C4_21  and  C5_22 
REMARK    8  A    between atoms: C5_22  and  N7_23 
REMARK    9  A    between atoms: C8_28  and  N9_29 
ROOT
HETATM    1  C1  UNL     1     -15.537  -8.006  21.347  1.00  0.00     0.692 A 
HETATM    2  N2  UNL     1     -14.433  -7.978  22.115  1.00  0.00    -0.163 N 
ATOM      3  H2  UNL     1     -13.710  -8.687  21.991  1.00  0.00     0.186 HD
HETATM    4  C2  UNL     1     -14.281  -7.030  23.036  1.00  0.00     0.254 A 
HETATM    5  N5  UNL     1     -15.249  -6.111  23.177  1.00  0.00    -0.163 N 
ATOM      6  H5  UNL     1     -15.138  -5.381  23.881  1.00  0.00     0.186 HD
HETATM    7  C3  UNL     1     -16.355  -6.121  22.423  1.00  0.00     0.694 A 
HETATM    8  N12 UNL     1     -16.495  -7.081  21.502  1.00  0.00    -0.023 N 
ATOM      9  H12 UNL     1     -17.330  -7.108  20.917  1.00  0.00     0.203 HD
ENDROOT
BRANCH   7  10
HETATM   10  N6  UNL     1     -17.252  -5.229  22.590  1.00  0.00    -0.224 N 
ATOM     11  H6  UNL     1     -16.943  -4.276  22.783  1.00  0.00     0.177 HD
BRANCH  10  12
HETATM   12  C4  UNL     1     -18.669  -5.473  22.524  1.00  0.00     0.158 C 
BRANCH  12  13
HETATM   13  C5  UNL     1     -19.257  -4.923  21.249  1.00  0.00     0.151 C 
BRANCH  13  14
HETATM   14  N7  UNL     1     -20.208  -3.882  21.471  1.00  0.00    -0.326 N 
HETATM   15  C6  UNL     1     -20.473  -3.166  22.590  1.00  0.00     0.185 A 
HETATM   16  N8  UNL     1     -21.455  -2.279  22.355  1.00  0.00    -0.346 N 
HETATM   17  C7  UNL     1     -21.829  -2.419  21.081  1.00  0.00     0.122 A 
ATOM     18  H8  UNL     1     -21.844  -1.618  23.028  1.00  0.00     0.167 HD
HETATM   19  C8  UNL     1     -22.784  -1.761  20.339  1.00  0.00     0.131 A 
HETATM   20  C10 UNL     1     -21.051  -3.420  20.522  1.00  0.00     0.140 A 
HETATM   21  N10 UNL     1     -22.939  -2.124  19.054  1.00  0.00    -0.337 N 
HETATM   22  C9  UNL     1     -22.199  -3.097  18.474  1.00  0.00     0.183 A 
ATOM     23  H10 UNL     1     -23.643  -1.646  18.493  1.00  0.00     0.168 HD
HETATM   24  N11 UNL     1     -21.274  -3.719  19.228  1.00  0.00    -0.336 N 
ATOM     25  H11 UNL     1     -20.713  -4.454  18.797  1.00  0.00     0.168 HD
BRANCH  19  26
HETATM   26  N9  UNL     1     -23.509  -0.827  20.858  1.00  0.00    -0.383 N 
ATOM     27  H92 UNL     1     -23.609  -0.742  21.869  1.00  0.00     0.157 HD
ATOM     28  H91 UNL     1     -23.999  -0.151  20.273  1.00  0.00     0.157 HD
ENDBRANCH  19  26
ENDBRANCH  13  14
ENDBRANCH  12  13
ENDBRANCH  10  12
ENDBRANCH   7  10
BRANCH   4  29
HETATM   29  S1  UNL     1     -12.891  -6.898  24.085  1.00  0.00     0.308 S 
HETATM   30  O1  UNL     1     -13.174  -5.807  25.083  1.00  0.00    -0.196 OA
HETATM   31  O2  UNL     1     -12.636  -8.162  24.836  1.00  0.00    -0.196 OA
BRANCH  29  32
HETATM   32  N3  UNL     1     -11.474  -6.459  23.213  1.00  0.00    -0.227 N 
ATOM     33  H3  UNL     1     -10.603  -6.988  23.256  1.00  0.00     0.199 HD
BRANCH  32  34
HETATM   34  N4  UNL     1     -11.633  -5.320  22.450  1.00  0.00    -0.336 N 
ATOM     35  H42 UNL     1     -11.719  -4.392  22.863  1.00  0.00     0.177 HD
ATOM     36  H41 UNL     1     -11.655  -5.506  21.448  1.00  0.00     0.177 HD
ENDBRANCH  32  34
ENDBRANCH  29  32
ENDBRANCH   4  29
BRANCH   1  37
HETATM   37  N1  UNL     1     -15.618  -8.964  20.466  1.00  0.00    -0.234 N 
ATOM     38  H12 UNL     1     -15.747  -9.942  20.725  1.00  0.00     0.174 HD
ATOM     39  H11 UNL     1     -15.545  -8.695  19.485  1.00  0.00     0.174 HD
ENDBRANCH   1  37
TORSDOF 9
ENDMDL
MODEL 5
REMARK VINA RESULT: -8.078028520      3.584      5.021
REMARK  9 active torsions:
REMARK  status: ('A' for Active; 'I' for Inactive)
REMARK    1  A    between atoms: N1_1  and  C1_4 
REMARK    2  A    between atoms: C2_7  and  S1_8 
REMARK    3  A    between atoms: S1_8  and  N3_11 
REMARK    4  A    between atoms: N3_11  and  N4_13 
REMARK    5  A    between atoms: C3_18  and  N6_19 
REMARK    6  A    between atoms: N6_19  and  C4_21 
REMARK    7  A    between atoms: C4_21  and  C5_22 
REMARK    8  A    between atoms: C5_22  and  N7_23 
REMARK    9  A    between atoms: C8_28  and  N9_29 
ROOT
HETATM    1  C1  UNL     1     -15.509  -7.936  21.183  1.00  0.00     0.692 A 
HETATM    2  N2  UNL     1     -14.424  -7.925  21.977  1.00  0.00    -0.163 N 
ATOM      3  H2  UNL     1     -13.670  -8.594  21.817  1.00  0.00     0.186 HD
HETATM    4  C2  UNL     1     -14.330  -7.047  22.972  1.00  0.00     0.254 A 
HETATM    5  N5  UNL     1     -15.337  -6.179  23.159  1.00  0.00    -0.163 N 
ATOM      6  H5  UNL     1     -15.271  -5.503  23.920  1.00  0.00     0.186 HD
HETATM    7  C3  UNL     1     -16.425  -6.173  22.380  1.00  0.00     0.694 A 
HETATM    8  N12 UNL     1     -16.506  -7.062  21.384  1.00  0.00    -0.023 N 
ATOM      9  H12 UNL     1     -17.326  -7.075  20.778  1.00  0.00     0.203 HD
ENDROOT
BRANCH   7  10
HETATM   10  N6  UNL     1     -17.360  -5.331  22.592  1.00  0.00    -0.224 N 
ATOM     11  H6  UNL     1     -17.098  -4.412  22.950  1.00  0.00     0.177 HD
BRANCH  10  12
HETATM   12  C4  UNL     1     -18.757  -5.587  22.362  1.00  0.00     0.158 C 
BRANCH  12  13
HETATM   13  C5  UNL     1     -19.530  -4.301  22.215  1.00  0.00     0.151 C 
BRANCH  13  14
HETATM   14  N7  UNL     1     -20.057  -4.107  20.903  1.00  0.00    -0.326 N 
HETATM   15  C6  UNL     1     -19.703  -4.679  19.727  1.00  0.00     0.185 A 
HETATM   16  N8  UNL     1     -20.467  -4.204  18.728  1.00  0.00    -0.346 N 
HETATM   17  C7  UNL     1     -21.319  -3.321  19.256  1.00  0.00     0.122 A 
ATOM     18  H8  UNL     1     -20.407  -4.470  17.744  1.00  0.00     0.167 HD
HETATM   19  C8  UNL     1     -22.305  -2.556  18.677  1.00  0.00     0.131 A 
HETATM   20  C10 UNL     1     -21.067  -3.257  20.617  1.00  0.00     0.140 A 
HETATM   21  N10 UNL     1     -23.016  -1.742  19.476  1.00  0.00    -0.337 N 
HETATM   22  C9  UNL     1     -22.799  -1.651  20.808  1.00  0.00     0.183 A 
ATOM     23  H10 UNL     1     -23.750  -1.168  19.061  1.00  0.00     0.168 HD
HETATM   24  N11 UNL     1     -21.828  -2.414  21.342  1.00  0.00    -0.336 N 
ATOM     25  H11 UNL     1     -21.659  -2.351  22.345  1.00  0.00     0.168 HD
BRANCH  19  26
HETATM   26  N9  UNL     1     -22.541  -2.615  17.409  1.00  0.00    -0.383 N 
ATOM     27  H92 UNL     1     -21.980  -3.207  16.798  1.00  0.00     0.157 HD
ATOM     28  H91 UNL     1     -23.294  -2.072  16.985  1.00  0.00     0.157 HD
ENDBRANCH  19  26
ENDBRANCH  13  14
ENDBRANCH  12  13
ENDBRANCH  10  12
ENDBRANCH   7  10
BRANCH   4  29
HETATM   29  S1  UNL     1     -12.970  -6.944  24.063  1.00  0.00     0.308 S 
HETATM   30  O1  UNL     1     -13.279  -5.879  25.080  1.00  0.00    -0.196 OA
HETATM   31  O2  UNL     1     -12.736  -8.227  24.787  1.00  0.00    -0.196 OA
BRANCH  29  32
HETATM   32  N3  UNL     1     -11.528  -6.484  23.242  1.00  0.00    -0.227 N 
ATOM     33  H3  UNL     1     -10.649  -6.995  23.325  1.00  0.00     0.199 HD
BRANCH  32  34
HETATM   34  N4  UNL     1     -11.681  -5.357  22.462  1.00  0.00    -0.336 N 
ATOM     35  H42 UNL     1     -10.901  -4.924  21.967  1.00  0.00     0.177 HD
ATOM     36  H41 UNL     1     -12.640  -5.011  22.434  1.00  0.00     0.177 HD
ENDBRANCH  32  34
ENDBRANCH  29  32
ENDBRANCH   4  29
BRANCH   1  37
HETATM   37  N1  UNL     1     -15.532  -8.824  20.229  1.00  0.00    -0.234 N 
ATOM     38  H12 UNL     1     -14.688  -9.146  19.755  1.00  0.00     0.174 HD
ATOM     39  H11 UNL     1     -16.445  -9.195  19.966  1.00  0.00     0.174 HD
ENDBRANCH   1  37
TORSDOF 9
ENDMDL
