MODEL 1
REMARK VINA RESULT: -6.855380236      0.000      0.000
REMARK  17 active torsions:
REMARK  status: ('A' for Active; 'I' for Inactive)
REMARK    1  A    between atoms: N1_2  and  C3_4 
REMARK    2  A    between atoms: C3_4  and  O1_5 
REMARK    3  A    between atoms: N2_7  and  C4_9 
REMARK    4  A    between atoms: C4_9  and  C5_10 
REMARK    5  A    between atoms: C4_9  and  N5_36 
REMARK    6  A    between atoms: C6_11  and  C7_12 
REMARK    7  A    between atoms: C8_13  and  C9_14 
REMARK    8  A    between atoms: C9_14  and  N3_15 
REMARK    9  A    between atoms: N3_15  and  C12_18 
REMARK   10  A    between atoms: C12_18  and  C13_19 
REMARK   11  A    between atoms: C14_20  and  C15_21 
REMARK   12  A    between atoms: C19_25  and  S1_26 
REMARK   13  A    between atoms: S1_26  and  N4_29 
REMARK   14  A    between atoms: N4_29  and  C20_31 
REMARK   15  A    between atoms: C20_31  and  C21_32 
REMARK   16  A    between atoms: C21_32  and  O4_33 
REMARK   17  A    between atoms: N5_36  and  N6_37 
ROOT
HETATM    1  N3  UNL     1       0.789   1.130  26.193  1.00  0.00    -0.055 N 
HETATM    2  C10 UNL     1      -0.576   0.788  25.910  1.00  0.00     0.274 C 
HETATM    3  C11 UNL     1       1.647   0.156  25.553  1.00  0.00     0.274 C 
ENDROOT
BRANCH   1   4
HETATM    4  C9  UNL     1       1.017   1.069  27.643  1.00  0.00     0.332 C 
BRANCH   4   5
HETATM    5  C8  UNL     1       0.339   2.196  28.309  1.00  0.00    -0.065 C 
HETATM    6  C7  UNL     1      -0.227   3.110  28.863  1.00  0.00    -0.013 C 
BRANCH   6   7
HETATM    7  C6  UNL     1      -0.877   4.195  29.505  1.00  0.00    -0.005 C 
HETATM    8  C5  UNL     1      -1.434   5.117  30.047  1.00  0.00     0.001 C 
BRANCH   8   9
HETATM    9  C4  UNL     1      -2.117   6.208  30.683  1.00  0.00     0.261 C 
BRANCH   9  10
HETATM   10  N2  UNL     1      -1.680   6.604  31.972  1.00  0.00    -0.288 N 
HETATM   11  C3  UNL     1      -1.215   7.787  32.132  1.00  0.00     0.221 C 
ATOM     12  H2  UNL     1      -1.735   5.958  32.759  1.00  0.00     0.172 HD
BRANCH  11  13
HETATM   13  N1  UNL     1      -0.769   8.210  33.417  1.00  0.00    -0.356 N 
HETATM   14  C1  UNL     1      -0.978   7.378  34.594  1.00  0.00     0.152 C 
HETATM   15  C2  UNL     1      -0.099   9.501  33.503  1.00  0.00     0.152 C 
ENDBRANCH  11  13
BRANCH  11  16
HETATM   16  O1  UNL     1      -1.148   8.649  31.056  1.00  0.00    -0.332 OA
ATOM     17  H1  UNL     1      -0.347   9.127  30.877  1.00  0.00     0.220 HD
ENDBRANCH  11  16
ENDBRANCH   9  10
BRANCH   9  18
HETATM   18  N5  UNL     1      -3.067   6.799  30.129  1.00  0.00    -0.304 NA
BRANCH  18  19
HETATM   19  N6  UNL     1      -4.024   7.191  29.440  1.00  0.00    -0.278 N 
ATOM     20  H62 UNL     1      -4.547   6.355  29.701  1.00  0.00     0.191 HD
ATOM     21  H61 UNL     1      -4.695   7.667  28.836  1.00  0.00     0.191 HD
ENDBRANCH  18  19
ENDBRANCH   9  18
ENDBRANCH   8   9
ENDBRANCH   6   7
ENDBRANCH   4   5
ENDBRANCH   1   4
BRANCH   1  22
HETATM   22  C12 UNL     1       1.129   2.474  25.784  1.00  0.00     0.331 C 
BRANCH  22  23
HETATM   23  C13 UNL     1       0.515   2.755  24.498  1.00  0.00    -0.073 C 
HETATM   24  C14 UNL     1      -0.001   2.971  23.451  1.00  0.00    -0.065 C 
BRANCH  24  25
HETATM   25  C15 UNL     1      -0.648   3.215  22.172  1.00  0.00     0.019 A 
HETATM   26  C16 UNL     1      -0.575   2.283  21.155  1.00  0.00     0.021 A 
HETATM   27  C17 UNL     1      -1.206   2.553  19.945  1.00  0.00     0.003 A 
HETATM   28  C18 UNL     1      -1.901   3.723  19.732  1.00  0.00     0.025 A 
HETATM   29  C19 UNL     1      -1.979   4.663  20.744  1.00  0.00     0.080 A 
HETATM   30  C22 UNL     1      -1.347   4.378  21.937  1.00  0.00     0.045 A 
BRANCH  29  31
HETATM   31  S1  UNL     1      -2.843   6.176  20.553  1.00  0.00     0.258 S 
HETATM   32  O2  UNL     1      -3.595   6.536  21.798  1.00  0.00    -0.201 OA
HETATM   33  O3  UNL     1      -3.799   5.973  19.391  1.00  0.00    -0.201 OA
BRANCH  31  34
HETATM   34  N4  UNL     1      -1.682   7.395  20.184  1.00  0.00    -0.313 N 
ATOM     35  H4  UNL     1      -0.784   7.518  20.651  1.00  0.00     0.172 HD
BRANCH  34  36
HETATM   36  C20 UNL     1      -2.190   8.220  19.098  1.00  0.00     0.158 C 
BRANCH  36  37
HETATM   37  C21 UNL     1      -3.030   9.330  19.733  1.00  0.00     0.184 C 
BRANCH  37  38
HETATM   38  O4  UNL     1      -2.846  10.485  18.980  1.00  0.00    -0.399 OA
ATOM     39  H4  UNL     1      -3.529  10.513  18.320  1.00  0.00     0.209 HD
ENDBRANCH  37  38
ENDBRANCH  36  37
ENDBRANCH  34  36
ENDBRANCH  31  34
ENDBRANCH  29  31
ENDBRANCH  24  25
ENDBRANCH  22  23
ENDBRANCH   1  22
TORSDOF 17
ENDMDL
MODEL 2
REMARK VINA RESULT: -6.581710950      3.210      8.031
REMARK  17 active torsions:
REMARK  status: ('A' for Active; 'I' for Inactive)
REMARK    1  A    between atoms: N1_2  and  C3_4 
REMARK    2  A    between atoms: C3_4  and  O1_5 
REMARK    3  A    between atoms: N2_7  and  C4_9 
REMARK    4  A    between atoms: C4_9  and  C5_10 
REMARK    5  A    between atoms: C4_9  and  N5_36 
REMARK    6  A    between atoms: C6_11  and  C7_12 
REMARK    7  A    between atoms: C8_13  and  C9_14 
REMARK    8  A    between atoms: C9_14  and  N3_15 
REMARK    9  A    between atoms: N3_15  and  C12_18 
REMARK   10  A    between atoms: C12_18  and  C13_19 
REMARK   11  A    between atoms: C14_20  and  C15_21 
REMARK   12  A    between atoms: C19_25  and  S1_26 
REMARK   13  A    between atoms: S1_26  and  N4_29 
REMARK   14  A    between atoms: N4_29  and  C20_31 
REMARK   15  A    between atoms: C20_31  and  C21_32 
REMARK   16  A    between atoms: C21_32  and  O4_33 
REMARK   17  A    between atoms: N5_36  and  N6_37 
ROOT
HETATM    1  N3  UNL     1      -1.901   5.409  29.071  1.00  0.00    -0.055 N 
HETATM    2  C10 UNL     1      -2.307   6.324  30.100  1.00  0.00     0.274 C 
HETATM    3  C11 UNL     1      -1.194   6.154  28.050  1.00  0.00     0.274 C 
ENDROOT
BRANCH   1   4
HETATM    4  C9  UNL     1      -3.090   4.799  28.462  1.00  0.00     0.332 C 
BRANCH   4   5
HETATM    5  C8  UNL     1      -3.017   4.907  26.993  1.00  0.00    -0.065 C 
HETATM    6  C7  UNL     1      -2.973   4.991  25.788  1.00  0.00    -0.013 C 
BRANCH   6   7
HETATM    7  C6  UNL     1      -2.903   5.098  24.375  1.00  0.00    -0.005 C 
HETATM    8  C5  UNL     1      -2.845   5.183  23.173  1.00  0.00     0.001 C 
BRANCH   8   9
HETATM    9  C4  UNL     1      -2.792   5.269  21.742  1.00  0.00     0.261 C 
BRANCH   9  10
HETATM   10  N2  UNL     1      -2.366   6.491  21.164  1.00  0.00    -0.288 N 
HETATM   11  C3  UNL     1      -3.238   7.260  20.628  1.00  0.00     0.221 C 
ATOM     12  H2  UNL     1      -1.380   6.754  21.176  1.00  0.00     0.172 HD
BRANCH  11  13
HETATM   13  N1  UNL     1      -2.837   8.493  20.041  1.00  0.00    -0.356 N 
HETATM   14  C1  UNL     1      -1.458   8.713  19.626  1.00  0.00     0.152 C 
HETATM   15  C2  UNL     1      -3.857   9.521  19.873  1.00  0.00     0.152 C 
ENDBRANCH  11  13
BRANCH  11  16
HETATM   16  O1  UNL     1      -4.568   6.889  20.622  1.00  0.00    -0.332 OA
ATOM     17  H1  UNL     1      -5.057   6.850  21.436  1.00  0.00     0.220 HD
ENDBRANCH  11  16
ENDBRANCH   9  10
BRANCH   9  18
HETATM   18  N5  UNL     1      -3.108   4.303  21.016  1.00  0.00    -0.304 NA
BRANCH  18  19
HETATM   19  N6  UNL     1      -3.191   3.340  20.234  1.00  0.00    -0.278 N 
ATOM     20  H62 UNL     1      -2.282   3.587  19.843  1.00  0.00     0.191 HD
ATOM     21  H61 UNL     1      -3.431   2.518  19.681  1.00  0.00     0.191 HD
ENDBRANCH  18  19
ENDBRANCH   9  18
ENDBRANCH   8   9
ENDBRANCH   6   7
ENDBRANCH   4   5
ENDBRANCH   1   4
BRANCH   1  22
HETATM   22  C12 UNL     1      -1.095   4.319  29.572  1.00  0.00     0.331 C 
BRANCH  22  23
HETATM   23  C13 UNL     1      -0.609   3.527  28.455  1.00  0.00    -0.073 C 
HETATM   24  C14 UNL     1      -0.193   2.889  27.545  1.00  0.00    -0.065 C 
BRANCH  24  25
HETATM   25  C15 UNL     1       0.338   2.119  26.431  1.00  0.00     0.019 A 
HETATM   26  C16 UNL     1       1.345   1.195  26.629  1.00  0.00     0.021 A 
HETATM   27  C17 UNL     1       1.828   0.479  25.539  1.00  0.00     0.003 A 
HETATM   28  C18 UNL     1       1.330   0.664  24.268  1.00  0.00     0.025 A 
HETATM   29  C19 UNL     1       0.322   1.588  24.060  1.00  0.00     0.080 A 
HETATM   30  C22 UNL     1      -0.145   2.290  25.152  1.00  0.00     0.045 A 
BRANCH  29  31
HETATM   31  S1  UNL     1      -0.365   1.884  22.474  1.00  0.00     0.258 S 
HETATM   32  O2  UNL     1       0.045   3.223  21.943  1.00  0.00    -0.201 OA
HETATM   33  O3  UNL     1      -1.871   1.814  22.646  1.00  0.00    -0.201 OA
BRANCH  31  34
HETATM   34  N4  UNL     1       0.189   0.632  21.426  1.00  0.00    -0.313 N 
ATOM     35  H4  UNL     1       1.024   0.065  21.570  1.00  0.00     0.172 HD
BRANCH  34  36
HETATM   36  C20 UNL     1      -0.727   0.516  20.301  1.00  0.00     0.158 C 
BRANCH  36  37
HETATM   37  C21 UNL     1      -0.046   1.171  19.099  1.00  0.00     0.184 C 
BRANCH  37  38
HETATM   38  O4  UNL     1      -0.536   2.469  18.987  1.00  0.00    -0.399 OA
ATOM     39  H4  UNL     1       0.092   2.975  18.485  1.00  0.00     0.209 HD
ENDBRANCH  37  38
ENDBRANCH  36  37
ENDBRANCH  34  36
ENDBRANCH  31  34
ENDBRANCH  29  31
ENDBRANCH  24  25
ENDBRANCH  22  23
ENDBRANCH   1  22
TORSDOF 17
ENDMDL
MODEL 3
REMARK VINA RESULT: -6.536750778      1.675      2.680
REMARK  17 active torsions:
REMARK  status: ('A' for Active; 'I' for Inactive)
REMARK    1  A    between atoms: N1_2  and  C3_4 
REMARK    2  A    between atoms: C3_4  and  O1_5 
REMARK    3  A    between atoms: N2_7  and  C4_9 
REMARK    4  A    between atoms: C4_9  and  C5_10 
REMARK    5  A    between atoms: C4_9  and  N5_36 
REMARK    6  A    between atoms: C6_11  and  C7_12 
REMARK    7  A    between atoms: C8_13  and  C9_14 
REMARK    8  A    between atoms: C9_14  and  N3_15 
REMARK    9  A    between atoms: N3_15  and  C12_18 
REMARK   10  A    between atoms: C12_18  and  C13_19 
REMARK   11  A    between atoms: C14_20  and  C15_21 
REMARK   12  A    between atoms: C19_25  and  S1_26 
REMARK   13  A    between atoms: S1_26  and  N4_29 
REMARK   14  A    between atoms: N4_29  and  C20_31 
REMARK   15  A    between atoms: C20_31  and  C21_32 
REMARK   16  A    between atoms: C21_32  and  O4_33 
REMARK   17  A    between atoms: N5_36  and  N6_37 
ROOT
HETATM    1  N3  UNL     1       0.709   1.125  26.306  1.00  0.00    -0.055 N 
HETATM    2  C10 UNL     1      -0.646   0.882  25.899  1.00  0.00     0.274 C 
HETATM    3  C11 UNL     1       1.512  -0.019  25.930  1.00  0.00     0.274 C 
ENDROOT
BRANCH   1   4
HETATM    4  C9  UNL     1       0.762   1.270  27.768  1.00  0.00     0.332 C 
BRANCH   4   5
HETATM    5  C8  UNL     1       0.100   2.523  28.175  1.00  0.00    -0.065 C 
HETATM    6  C7  UNL     1      -0.442   3.555  28.493  1.00  0.00    -0.013 C 
BRANCH   6   7
HETATM    7  C6  UNL     1      -1.082   4.759  28.885  1.00  0.00    -0.005 C 
HETATM    8  C5  UNL     1      -1.620   5.786  29.220  1.00  0.00     0.001 C 
BRANCH   8   9
HETATM    9  C4  UNL     1      -2.242   7.018  29.614  1.00  0.00     0.261 C 
BRANCH   9  10
HETATM   10  N2  UNL     1      -3.572   7.258  29.185  1.00  0.00    -0.288 N 
HETATM   11  C3  UNL     1      -4.539   6.972  29.974  1.00  0.00     0.221 C 
ATOM     12  H2  UNL     1      -3.755   7.653  28.263  1.00  0.00     0.172 HD
BRANCH  11  13
HETATM   13  N1  UNL     1      -5.883   7.203  29.568  1.00  0.00    -0.356 N 
HETATM   14  C1  UNL     1      -6.187   7.713  28.237  1.00  0.00     0.152 C 
HETATM   15  C2  UNL     1      -6.936   6.911  30.532  1.00  0.00     0.152 C 
ENDBRANCH  11  13
BRANCH  11  16
HETATM   16  O1  UNL     1      -4.273   6.439  31.220  1.00  0.00    -0.332 OA
ATOM     17  H1  UNL     1      -4.788   5.711  31.547  1.00  0.00     0.220 HD
ENDBRANCH  11  16
ENDBRANCH   9  10
BRANCH   9  18
HETATM   18  N5  UNL     1      -1.642   7.860  30.314  1.00  0.00    -0.304 NA
BRANCH  18  19
HETATM   19  N6  UNL     1      -0.851   8.628  30.888  1.00  0.00    -0.278 N 
ATOM     20  H62 UNL     1      -0.290   8.676  30.039  1.00  0.00     0.191 HD
ATOM     21  H61 UNL     1      -0.323   9.237  31.513  1.00  0.00     0.191 HD
ENDBRANCH  18  19
ENDBRANCH   9  18
ENDBRANCH   8   9
ENDBRANCH   6   7
ENDBRANCH   4   5
ENDBRANCH   1   4
BRANCH   1  22
HETATM   22  C12 UNL     1       1.252   2.346  25.756  1.00  0.00     0.331 C 
BRANCH  22  23
HETATM   23  C13 UNL     1       0.612   2.628  24.483  1.00  0.00    -0.073 C 
HETATM   24  C14 UNL     1       0.074   2.845  23.448  1.00  0.00    -0.065 C 
BRANCH  24  25
HETATM   25  C15 UNL     1      -0.603   3.093  22.184  1.00  0.00     0.019 A 
HETATM   26  C16 UNL     1      -0.577   2.151  21.175  1.00  0.00     0.021 A 
HETATM   27  C17 UNL     1      -1.234   2.424  19.980  1.00  0.00     0.003 A 
HETATM   28  C18 UNL     1      -1.910   3.606  19.775  1.00  0.00     0.025 A 
HETATM   29  C19 UNL     1      -1.940   4.556  20.780  1.00  0.00     0.080 A 
HETATM   30  C22 UNL     1      -1.283   4.268  21.958  1.00  0.00     0.045 A 
BRANCH  29  31
HETATM   31  S1  UNL     1      -2.778   6.085  20.599  1.00  0.00     0.258 S 
HETATM   32  O2  UNL     1      -3.500   6.464  21.855  1.00  0.00    -0.201 OA
HETATM   33  O3  UNL     1      -3.756   5.899  19.453  1.00  0.00    -0.201 OA
BRANCH  31  34
HETATM   34  N4  UNL     1      -1.599   7.280  20.206  1.00  0.00    -0.313 N 
ATOM     35  H4  UNL     1      -0.686   7.381  20.651  1.00  0.00     0.172 HD
BRANCH  34  36
HETATM   36  C20 UNL     1      -2.115   8.122  19.137  1.00  0.00     0.158 C 
BRANCH  36  37
HETATM   37  C21 UNL     1      -2.921   9.241  19.798  1.00  0.00     0.184 C 
BRANCH  37  38
HETATM   38  O4  UNL     1      -2.913  10.336  18.938  1.00  0.00    -0.399 OA
ATOM     39  H4  UNL     1      -3.777  10.406  18.550  1.00  0.00     0.209 HD
ENDBRANCH  37  38
ENDBRANCH  36  37
ENDBRANCH  34  36
ENDBRANCH  31  34
ENDBRANCH  29  31
ENDBRANCH  24  25
ENDBRANCH  22  23
ENDBRANCH   1  22
TORSDOF 17
ENDMDL
MODEL 4
REMARK VINA RESULT: -6.487289059      2.210      3.104
REMARK  17 active torsions:
REMARK  status: ('A' for Active; 'I' for Inactive)
REMARK    1  A    between atoms: N1_2  and  C3_4 
REMARK    2  A    between atoms: C3_4  and  O1_5 
REMARK    3  A    between atoms: N2_7  and  C4_9 
REMARK    4  A    between atoms: C4_9  and  C5_10 
REMARK    5  A    between atoms: C4_9  and  N5_36 
REMARK    6  A    between atoms: C6_11  and  C7_12 
REMARK    7  A    between atoms: C8_13  and  C9_14 
REMARK    8  A    between atoms: C9_14  and  N3_15 
REMARK    9  A    between atoms: N3_15  and  C12_18 
REMARK   10  A    between atoms: C12_18  and  C13_19 
REMARK   11  A    between atoms: C14_20  and  C15_21 
REMARK   12  A    between atoms: C19_25  and  S1_26 
REMARK   13  A    between atoms: S1_26  and  N4_29 
REMARK   14  A    between atoms: N4_29  and  C20_31 
REMARK   15  A    between atoms: C20_31  and  C21_32 
REMARK   16  A    between atoms: C21_32  and  O4_33 
REMARK   17  A    between atoms: N5_36  and  N6_37 
ROOT
HETATM    1  N3  UNL     1       0.725   0.079  25.864  1.00  0.00    -0.055 N 
HETATM    2  C10 UNL     1      -0.702   0.089  25.705  1.00  0.00     0.274 C 
HETATM    3  C11 UNL     1       1.204  -1.263  25.612  1.00  0.00     0.274 C 
ENDROOT
BRANCH   1   4
HETATM    4  C9  UNL     1       1.066   0.443  27.246  1.00  0.00     0.332 C 
BRANCH   4   5
HETATM    5  C8  UNL     1       0.465   1.746  27.587  1.00  0.00    -0.065 C 
HETATM    6  C7  UNL     1      -0.037   2.806  27.877  1.00  0.00    -0.013 C 
BRANCH   6   7
HETATM    7  C6  UNL     1      -0.612   4.060  28.208  1.00  0.00    -0.005 C 
HETATM    8  C5  UNL     1      -1.106   5.123  28.492  1.00  0.00     0.001 C 
BRANCH   8   9
HETATM    9  C4  UNL     1      -1.704   6.379  28.847  1.00  0.00     0.261 C 
BRANCH   9  10
HETATM   10  N2  UNL     1      -3.077   6.568  28.553  1.00  0.00    -0.288 N 
HETATM   11  C3  UNL     1      -3.892   6.792  29.516  1.00  0.00     0.221 C 
ATOM     12  H2  UNL     1      -3.412   6.527  27.591  1.00  0.00     0.172 HD
BRANCH  11  13
HETATM   13  N1  UNL     1      -5.277   6.985  29.248  1.00  0.00    -0.356 N 
HETATM   14  C1  UNL     1      -5.720   7.620  28.014  1.00  0.00     0.152 C 
HETATM   15  C2  UNL     1      -6.226   6.524  30.254  1.00  0.00     0.152 C 
ENDBRANCH  11  13
BRANCH  11  16
HETATM   16  O1  UNL     1      -3.422   6.845  30.814  1.00  0.00    -0.332 OA
ATOM     17  H1  UNL     1      -2.709   7.430  31.039  1.00  0.00     0.220 HD
ENDBRANCH  11  16
ENDBRANCH   9  10
BRANCH   9  18
HETATM   18  N5  UNL     1      -1.045   7.285  29.399  1.00  0.00    -0.304 NA
BRANCH  18  19
HETATM   19  N6  UNL     1      -0.460   8.083  30.152  1.00  0.00    -0.278 N 
ATOM     20  H62 UNL     1      -1.130   7.869  30.890  1.00  0.00     0.191 HD
ATOM     21  H61 UNL     1       0.139   8.765  30.616  1.00  0.00     0.191 HD
ENDBRANCH  18  19
ENDBRANCH   9  18
ENDBRANCH   8   9
ENDBRANCH   6   7
ENDBRANCH   4   5
ENDBRANCH   1   4
BRANCH   1  22
HETATM   22  C12 UNL     1       1.394   1.039  25.014  1.00  0.00     0.331 C 
BRANCH  22  23
HETATM   23  C13 UNL     1       0.428   2.012  24.534  1.00  0.00    -0.073 C 
HETATM   24  C14 UNL     1      -0.346   2.816  24.132  1.00  0.00    -0.065 C 
BRANCH  24  25
HETATM   25  C15 UNL     1      -1.277   3.815  23.627  1.00  0.00     0.019 A 
HETATM   26  C16 UNL     1      -2.243   4.357  24.451  1.00  0.00     0.021 A 
HETATM   27  C17 UNL     1      -3.116   5.308  23.933  1.00  0.00     0.003 A 
HETATM   28  C18 UNL     1      -3.043   5.724  22.622  1.00  0.00     0.025 A 
HETATM   29  C19 UNL     1      -2.079   5.186  21.789  1.00  0.00     0.080 A 
HETATM   30  C22 UNL     1      -1.222   4.244  22.320  1.00  0.00     0.045 A 
BRANCH  29  31
HETATM   31  S1  UNL     1      -1.920   5.662  20.110  1.00  0.00     0.258 S 
HETATM   32  O2  UNL     1      -3.221   5.529  19.379  1.00  0.00    -0.201 OA
HETATM   33  O3  UNL     1      -0.871   4.744  19.507  1.00  0.00    -0.201 OA
BRANCH  31  34
HETATM   34  N4  UNL     1      -1.386   7.301  20.082  1.00  0.00    -0.313 N 
ATOM     35  H4  UNL     1      -0.679   7.704  20.696  1.00  0.00     0.172 HD
BRANCH  34  36
HETATM   36  C20 UNL     1      -2.106   8.016  19.039  1.00  0.00     0.158 C 
BRANCH  36  37
HETATM   37  C21 UNL     1      -2.995   9.048  19.735  1.00  0.00     0.184 C 
BRANCH  37  38
HETATM   38  O4  UNL     1      -2.962  10.216  18.979  1.00  0.00    -0.399 OA
ATOM     39  H4  UNL     1      -3.144   9.983  18.076  1.00  0.00     0.209 HD
ENDBRANCH  37  38
ENDBRANCH  36  37
ENDBRANCH  34  36
ENDBRANCH  31  34
ENDBRANCH  29  31
ENDBRANCH  24  25
ENDBRANCH  22  23
ENDBRANCH   1  22
TORSDOF 17
ENDMDL
MODEL 5
REMARK VINA RESULT: -6.446490945      3.113      7.184
REMARK  17 active torsions:
REMARK  status: ('A' for Active; 'I' for Inactive)
REMARK    1  A    between atoms: N1_2  and  C3_4 
REMARK    2  A    between atoms: C3_4  and  O1_5 
REMARK    3  A    between atoms: N2_7  and  C4_9 
REMARK    4  A    between atoms: C4_9  and  C5_10 
REMARK    5  A    between atoms: C4_9  and  N5_36 
REMARK    6  A    between atoms: C6_11  and  C7_12 
REMARK    7  A    between atoms: C8_13  and  C9_14 
REMARK    8  A    between atoms: C9_14  and  N3_15 
REMARK    9  A    between atoms: N3_15  and  C12_18 
REMARK   10  A    between atoms: C12_18  and  C13_19 
REMARK   11  A    between atoms: C14_20  and  C15_21 
REMARK   12  A    between atoms: C19_25  and  S1_26 
REMARK   13  A    between atoms: S1_26  and  N4_29 
REMARK   14  A    between atoms: N4_29  and  C20_31 
REMARK   15  A    between atoms: C20_31  and  C21_32 
REMARK   16  A    between atoms: C21_32  and  O4_33 
REMARK   17  A    between atoms: N5_36  and  N6_37 
ROOT
HETATM    1  N3  UNL     1      -2.593   5.893  28.562  1.00  0.00    -0.055 N 
HETATM    2  C10 UNL     1      -1.261   6.158  28.099  1.00  0.00     0.274 C 
HETATM    3  C11 UNL     1      -2.896   6.814  29.637  1.00  0.00     0.274 C 
ENDROOT
BRANCH   1   4
HETATM    4  C9  UNL     1      -2.665   4.523  29.088  1.00  0.00     0.332 C 
BRANCH   4   5
HETATM    5  C8  UNL     1      -1.593   3.700  28.498  1.00  0.00    -0.065 C 
HETATM    6  C7  UNL     1      -0.709   3.023  28.030  1.00  0.00    -0.013 C 
BRANCH   6   7
HETATM    7  C6  UNL     1       0.320   2.228  27.462  1.00  0.00    -0.005 C 
HETATM    8  C5  UNL     1       1.191   1.551  26.974  1.00  0.00     0.001 C 
BRANCH   8   9
HETATM    9  C4  UNL     1       2.222   0.753  26.373  1.00  0.00     0.261 C 
BRANCH   9  10
HETATM   10  N2  UNL     1       2.074   0.393  25.010  1.00  0.00    -0.288 N 
HETATM   11  C3  UNL     1       2.013  -0.848  24.701  1.00  0.00     0.221 C 
ATOM     12  H2  UNL     1       2.018   1.111  24.288  1.00  0.00     0.172 HD
BRANCH  11  13
HETATM   13  N1  UNL     1       1.865  -1.237  23.339  1.00  0.00    -0.356 N 
HETATM   14  C1  UNL     1       1.060  -0.447  22.417  1.00  0.00     0.152 C 
HETATM   15  C2  UNL     1       2.547  -2.451  22.909  1.00  0.00     0.152 C 
ENDBRANCH  11  13
BRANCH  11  16
HETATM   16  O1  UNL     1       2.091  -1.807  25.691  1.00  0.00    -0.332 OA
ATOM     17  H1  UNL     1       2.878  -1.888  26.216  1.00  0.00     0.220 HD
ENDBRANCH  11  16
ENDBRANCH   9  10
BRANCH   9  18
HETATM   18  N5  UNL     1       3.223   0.381  27.020  1.00  0.00    -0.304 NA
BRANCH  18  19
HETATM   19  N6  UNL     1       4.187  -0.197  27.550  1.00  0.00    -0.278 N 
ATOM     20  H62 UNL     1       4.669   0.697  27.636  1.00  0.00     0.191 HD
ATOM     21  H61 UNL     1       4.871  -0.834  27.960  1.00  0.00     0.191 HD
ENDBRANCH  18  19
ENDBRANCH   9  18
ENDBRANCH   8   9
ENDBRANCH   6   7
ENDBRANCH   4   5
ENDBRANCH   1   4
BRANCH   1  22
HETATM   22  C12 UNL     1      -3.582   5.978  27.511  1.00  0.00     0.331 C 
BRANCH  22  23
HETATM   23  C13 UNL     1      -3.007   5.490  26.269  1.00  0.00    -0.073 C 
HETATM   24  C14 UNL     1      -2.520   5.101  25.260  1.00  0.00    -0.065 C 
BRANCH  24  25
HETATM   25  C15 UNL     1      -1.902   4.636  24.028  1.00  0.00     0.019 A 
HETATM   26  C16 UNL     1      -1.002   3.588  24.043  1.00  0.00     0.021 A 
HETATM   27  C17 UNL     1      -0.431   3.171  22.845  1.00  0.00     0.003 A 
HETATM   28  C18 UNL     1      -0.736   3.774  21.645  1.00  0.00     0.025 A 
HETATM   29  C19 UNL     1      -1.635   4.825  21.620  1.00  0.00     0.080 A 
HETATM   30  C22 UNL     1      -2.192   5.224  22.817  1.00  0.00     0.045 A 
BRANCH  29  31
HETATM   31  S1  UNL     1      -2.076   5.645  20.135  1.00  0.00     0.258 S 
HETATM   32  O2  UNL     1      -3.309   5.049  19.528  1.00  0.00    -0.201 OA
HETATM   33  O3  UNL     1      -0.891   5.493  19.199  1.00  0.00    -0.201 OA
BRANCH  31  34
HETATM   34  N4  UNL     1      -2.344   7.305  20.518  1.00  0.00    -0.313 N 
ATOM     35  H4  UNL     1      -2.239   7.724  21.441  1.00  0.00     0.172 HD
BRANCH  34  36
HETATM   36  C20 UNL     1      -2.742   8.011  19.309  1.00  0.00     0.158 C 
BRANCH  36  37
HETATM   37  C21 UNL     1      -3.425   9.306  19.751  1.00  0.00     0.184 C 
BRANCH  37  38
HETATM   38  O4  UNL     1      -2.944  10.336  18.948  1.00  0.00    -0.399 OA
ATOM     39  H4  UNL     1      -3.609  10.532  18.298  1.00  0.00     0.209 HD
ENDBRANCH  37  38
ENDBRANCH  36  37
ENDBRANCH  34  36
ENDBRANCH  31  34
ENDBRANCH  29  31
ENDBRANCH  24  25
ENDBRANCH  22  23
ENDBRANCH   1  22
TORSDOF 17
ENDMDL
