MODEL 1
REMARK VINA RESULT: -6.346656532      0.000      0.000
REMARK  4 active torsions:
REMARK  status: ('A' for Active; 'I' for Inactive)
REMARK    1  A    between atoms: C2_2  and  C5_5 
REMARK    2  A    between atoms: C7_8  and  C8_9 
REMARK    3  A    between atoms: C9_10  and  C10_11 
REMARK    4  A    between atoms: C10_11  and  C11_14 
ROOT
HETATM    1  C5  UNL     1    -155.647   6.422  -7.454  1.00  0.00    -0.025 A 
HETATM    2  C6  UNL     1    -155.005   7.495  -6.876  1.00  0.00     0.151 A 
HETATM    3  O1  UNL     1    -153.903   7.716  -7.532  1.00  0.00    -0.313 OA
HETATM    4  C7  UNL     1    -153.760   6.850  -8.528  1.00  0.00     0.128 A 
HETATM    5  C12 UNL     1    -154.847   6.016  -8.506  1.00  0.00     0.056 A 
ENDROOT
BRANCH   4   6
HETATM    6  C8  UNL     1    -152.682   6.775  -9.467  1.00  0.00    -0.035 C 
HETATM    7  C9  UNL     1    -151.774   6.696 -10.274  1.00  0.00    -0.012 C 
BRANCH   7   8
HETATM    8  C10 UNL     1    -150.692   6.615 -11.262  1.00  0.00     0.402 C 
HETATM    9  F1  UNL     1    -150.042   5.385 -11.213  1.00  0.00    -0.181 F 
HETATM   10  F2  UNL     1    -149.748   7.577 -11.049  1.00  0.00    -0.181 F 
BRANCH   8  11
HETATM   11  C11 UNL     1    -151.348   6.709 -12.616  1.00  0.00     0.467 C 
HETATM   12  F3  UNL     1    -152.550   6.070 -12.649  1.00  0.00    -0.164 F 
HETATM   13  F4  UNL     1    -151.429   8.050 -12.974  1.00  0.00    -0.164 F 
HETATM   14  F5  UNL     1    -150.494   6.022 -13.488  1.00  0.00    -0.164 F 
ENDBRANCH   8  11
ENDBRANCH   7   8
ENDBRANCH   4   6
BRANCH   1  15
HETATM   15  C2  UNL     1    -156.921   5.855  -6.966  1.00  0.00    -0.022 C 
HETATM   16  C1  UNL     1    -157.227   6.348  -5.582  1.00  0.00     0.019 C 
HETATM   17  C3  UNL     1    -156.782   4.349  -6.964  1.00  0.00     0.019 C 
HETATM   18  C4  UNL     1    -158.035   6.187  -7.955  1.00  0.00     0.019 C 
ENDBRANCH   1  15
TORSDOF 4
ENDMDL
MODEL 2
REMARK VINA RESULT: -6.338736526      0.055      1.004
REMARK  4 active torsions:
REMARK  status: ('A' for Active; 'I' for Inactive)
REMARK    1  A    between atoms: C2_2  and  C5_5 
REMARK    2  A    between atoms: C7_8  and  C8_9 
REMARK    3  A    between atoms: C9_10  and  C10_11 
REMARK    4  A    between atoms: C10_11  and  C11_14 
ROOT
HETATM    1  C5  UNL     1    -155.651   6.369  -7.448  1.00  0.00    -0.025 A 
HETATM    2  C6  UNL     1    -155.056   7.490  -6.912  1.00  0.00     0.151 A 
HETATM    3  O1  UNL     1    -153.962   7.731  -7.574  1.00  0.00    -0.313 OA
HETATM    4  C7  UNL     1    -153.779   6.835  -8.535  1.00  0.00     0.128 A 
HETATM    5  C12 UNL     1    -154.830   5.957  -8.482  1.00  0.00     0.056 A 
ENDROOT
BRANCH   4   6
HETATM    6  C8  UNL     1    -152.696   6.769  -9.469  1.00  0.00    -0.035 C 
HETATM    7  C9  UNL     1    -151.777   6.694 -10.264  1.00  0.00    -0.012 C 
BRANCH   7   8
HETATM    8  C10 UNL     1    -150.686   6.607 -11.242  1.00  0.00     0.402 C 
HETATM    9  F1  UNL     1    -150.046   5.373 -11.190  1.00  0.00    -0.181 F 
HETATM   10  F2  UNL     1    -149.738   7.562 -11.017  1.00  0.00    -0.181 F 
BRANCH   8  11
HETATM   11  C11 UNL     1    -151.329   6.710 -12.601  1.00  0.00     0.467 C 
HETATM   12  F3  UNL     1    -152.540   6.089 -12.645  1.00  0.00    -0.164 F 
HETATM   13  F4  UNL     1    -151.386   8.051 -12.963  1.00  0.00    -0.164 F 
HETATM   14  F5  UNL     1    -150.478   6.008 -13.465  1.00  0.00    -0.164 F 
ENDBRANCH   8  11
ENDBRANCH   7   8
ENDBRANCH   4   6
BRANCH   1  15
HETATM   15  C2  UNL     1    -156.901   5.768  -6.941  1.00  0.00    -0.022 C 
HETATM   16  C1  UNL     1    -156.784   4.273  -6.874  1.00  0.00     0.019 C 
HETATM   17  C3  UNL     1    -158.015   6.163  -7.884  1.00  0.00     0.019 C 
HETATM   18  C4  UNL     1    -157.243   6.380  -5.586  1.00  0.00     0.019 C 
ENDBRANCH   1  15
TORSDOF 4
ENDMDL
MODEL 3
REMARK VINA RESULT: -6.313159343      0.065      1.007
REMARK  4 active torsions:
REMARK  status: ('A' for Active; 'I' for Inactive)
REMARK    1  A    between atoms: C2_2  and  C5_5 
REMARK    2  A    between atoms: C7_8  and  C8_9 
REMARK    3  A    between atoms: C9_10  and  C10_11 
REMARK    4  A    between atoms: C10_11  and  C11_14 
ROOT
HETATM    1  C5  UNL     1    -155.702   6.399  -7.463  1.00  0.00    -0.025 A 
HETATM    2  C6  UNL     1    -155.075   7.486  -6.895  1.00  0.00     0.151 A 
HETATM    3  O1  UNL     1    -153.967   7.706  -7.543  1.00  0.00    -0.313 OA
HETATM    4  C7  UNL     1    -153.807   6.828  -8.524  1.00  0.00     0.128 A 
HETATM    5  C12 UNL     1    -154.887   5.985  -8.501  1.00  0.00     0.056 A 
ENDROOT
BRANCH   4   6
HETATM    6  C8  UNL     1    -152.719   6.748  -9.451  1.00  0.00    -0.035 C 
HETATM    7  C9  UNL     1    -151.803   6.666 -10.249  1.00  0.00    -0.012 C 
BRANCH   7   8
HETATM    8  C10 UNL     1    -150.710   6.586 -11.225  1.00  0.00     0.402 C 
HETATM    9  F1  UNL     1    -150.076   5.347 -11.187  1.00  0.00    -0.181 F 
HETATM   10  F2  UNL     1    -149.756   7.533 -10.986  1.00  0.00    -0.181 F 
BRANCH   8  11
HETATM   11  C11 UNL     1    -151.348   6.709 -12.585  1.00  0.00     0.467 C 
HETATM   12  F3  UNL     1    -152.565   6.099 -12.638  1.00  0.00    -0.164 F 
HETATM   13  F4  UNL     1    -151.392   8.054 -12.932  1.00  0.00    -0.164 F 
HETATM   14  F5  UNL     1    -150.501   6.009 -13.454  1.00  0.00    -0.164 F 
ENDBRANCH   8  11
ENDBRANCH   7   8
ENDBRANCH   4   6
BRANCH   1  15
HETATM   15  C2  UNL     1    -156.975   5.829  -6.980  1.00  0.00    -0.022 C 
HETATM   16  C1  UNL     1    -158.113   6.238  -7.869  1.00  0.00     0.019 C 
HETATM   17  C3  UNL     1    -157.202   6.338  -5.575  1.00  0.00     0.019 C 
HETATM   18  C4  UNL     1    -156.843   4.312  -6.876  1.00  0.00     0.019 C 
ENDBRANCH   1  15
TORSDOF 4
ENDMDL
MODEL 4
REMARK VINA RESULT: -6.176220575      2.572      3.363
REMARK  4 active torsions:
REMARK  status: ('A' for Active; 'I' for Inactive)
REMARK    1  A    between atoms: C2_2  and  C5_5 
REMARK    2  A    between atoms: C7_8  and  C8_9 
REMARK    3  A    between atoms: C9_10  and  C10_11 
REMARK    4  A    between atoms: C10_11  and  C11_14 
ROOT
HETATM    1  C5  UNL     1    -152.256   4.801  -6.784  1.00  0.00    -0.025 A 
HETATM    2  C6  UNL     1    -150.945   4.429  -6.980  1.00  0.00     0.151 A 
HETATM    3  O1  UNL     1    -150.551   4.903  -8.127  1.00  0.00    -0.313 OA
HETATM    4  C7  UNL     1    -151.524   5.581  -8.722  1.00  0.00     0.128 A 
HETATM    5  C12 UNL     1    -152.619   5.534  -7.898  1.00  0.00     0.056 A 
ENDROOT
BRANCH   4   6
HETATM    6  C8  UNL     1    -151.473   6.247  -9.988  1.00  0.00    -0.035 C 
HETATM    7  C9  UNL     1    -151.440   6.799 -11.073  1.00  0.00    -0.012 C 
BRANCH   7   8
HETATM    8  C10 UNL     1    -151.421   7.477 -12.374  1.00  0.00     0.402 C 
HETATM    9  F1  UNL     1    -150.736   8.687 -12.314  1.00  0.00    -0.181 F 
HETATM   10  F2  UNL     1    -152.683   7.751 -12.813  1.00  0.00    -0.181 F 
BRANCH   8  11
HETATM   11  C11 UNL     1    -150.645   6.581 -13.305  1.00  0.00     0.467 C 
HETATM   12  F3  UNL     1    -149.462   6.177 -12.762  1.00  0.00    -0.164 F 
HETATM   13  F4  UNL     1    -151.463   5.524 -13.685  1.00  0.00    -0.164 F 
HETATM   14  F5  UNL     1    -150.335   7.381 -14.413  1.00  0.00    -0.164 F 
ENDBRANCH   8  11
ENDBRANCH   7   8
ENDBRANCH   4   6
BRANCH   1  15
HETATM   15  C2  UNL     1    -153.059   4.422  -5.603  1.00  0.00    -0.022 C 
HETATM   16  C1  UNL     1    -152.428   4.939  -4.343  1.00  0.00     0.019 C 
HETATM   17  C3  UNL     1    -153.137   2.913  -5.566  1.00  0.00     0.019 C 
HETATM   18  C4  UNL     1    -154.488   4.926  -5.780  1.00  0.00     0.019 C 
ENDBRANCH   1  15
TORSDOF 4
ENDMDL
MODEL 5
REMARK VINA RESULT: -6.168264848      2.545      3.373
REMARK  4 active torsions:
REMARK  status: ('A' for Active; 'I' for Inactive)
REMARK    1  A    between atoms: C2_2  and  C5_5 
REMARK    2  A    between atoms: C7_8  and  C8_9 
REMARK    3  A    between atoms: C9_10  and  C10_11 
REMARK    4  A    between atoms: C10_11  and  C11_14 
ROOT
HETATM    1  C5  UNL     1    -152.076   4.919  -6.888  1.00  0.00    -0.025 A 
HETATM    2  C6  UNL     1    -150.776   4.462  -6.885  1.00  0.00     0.151 A 
HETATM    3  O1  UNL     1    -150.265   4.672  -8.064  1.00  0.00    -0.313 OA
HETATM    4  C7  UNL     1    -151.147   5.250  -8.870  1.00  0.00     0.128 A 
HETATM    5  C12 UNL     1    -152.305   5.419  -8.156  1.00  0.00     0.056 A 
ENDROOT
BRANCH   4   6
HETATM    6  C8  UNL     1    -150.957   5.635 -10.235  1.00  0.00    -0.035 C 
HETATM    7  C9  UNL     1    -150.813   5.962 -11.400  1.00  0.00    -0.012 C 
BRANCH   7   8
HETATM    8  C10 UNL     1    -150.643   6.379 -12.796  1.00  0.00     0.402 C 
HETATM    9  F1  UNL     1    -151.433   5.625 -13.659  1.00  0.00    -0.181 F 
HETATM   10  F2  UNL     1    -149.350   6.235 -13.206  1.00  0.00    -0.181 F 
BRANCH   8  11
HETATM   11  C11 UNL     1    -151.142   7.800 -12.875  1.00  0.00     0.467 C 
HETATM   12  F3  UNL     1    -150.732   8.547 -11.813  1.00  0.00    -0.164 F 
HETATM   13  F4  UNL     1    -150.761   8.333 -14.101  1.00  0.00    -0.164 F 
HETATM   14  F5  UNL     1    -152.537   7.705 -12.797  1.00  0.00    -0.164 F 
ENDBRANCH   8  11
ENDBRANCH   7   8
ENDBRANCH   4   6
BRANCH   1  15
HETATM   15  C2  UNL     1    -152.991   4.826  -5.732  1.00  0.00    -0.022 C 
HETATM   16  C1  UNL     1    -152.241   5.004  -4.444  1.00  0.00     0.019 C 
HETATM   17  C3  UNL     1    -153.643   3.462  -5.772  1.00  0.00     0.019 C 
HETATM   18  C4  UNL     1    -154.113   5.848  -5.892  1.00  0.00     0.019 C 
ENDBRANCH   1  15
TORSDOF 4
ENDMDL
