MODEL 1
REMARK VINA RESULT: -6.735687001      0.000      0.000
REMARK  3 active torsions:
REMARK  status: ('A' for Active; 'I' for Inactive)
REMARK       I    between atoms: N1_2  and  C2_4 
REMARK    1  A    between atoms: C2_4  and  C3_6 
REMARK    2  A    between atoms: C5_11  and  N3_12 
REMARK    3  A    between atoms: N3_12  and  C6_14 
ROOT
HETATM    1  C3  UNL     1      40.732  35.510  -1.182  1.00  0.00     0.069 A 
HETATM    2  C4  UNL     1      40.541  34.058  -1.534  1.00  0.00     0.254 C 
HETATM    3  N2  UNL     1      40.039  34.030  -2.889  1.00  0.00    -0.053 N 
ATOM      4  H21 UNL     1      40.244  33.148  -3.356  1.00  0.00     0.279 HD
ATOM      5  H22 UNL     1      40.564  34.650  -3.505  1.00  0.00     0.279 HD
HETATM    6  C5  UNL     1      38.612  34.335  -2.891  1.00  0.00     0.285 C 
HETATM    7  C11 UNL     1      38.371  35.586  -2.111  1.00  0.00     0.060 C 
HETATM    8  C12 UNL     1      39.579  36.297  -1.602  1.00  0.00     0.010 A 
HETATM    9  C13 UNL     1      39.828  36.144  -0.140  1.00  0.00     0.027 A 
ENDROOT
BRANCH   6  10
HETATM   10  N3  UNL     1      37.969  33.217  -2.228  1.00  0.00    -0.349 N 
ATOM     11  H3  UNL     1      38.498  32.698  -1.527  1.00  0.00     0.163 HD
BRANCH  10  12
HETATM   12  C6  UNL     1      36.639  32.811  -2.510  1.00  0.00     0.103 A 
HETATM   13  C7  UNL     1      36.122  33.037  -3.775  1.00  0.00     0.048 A 
HETATM   14  C8  UNL     1      34.838  32.682  -4.117  1.00  0.00     0.007 A 
HETATM   15  C9  UNL     1      34.029  32.083  -3.178  1.00  0.00     0.042 A 
HETATM   16  C10 UNL     1      34.572  31.876  -1.933  1.00  0.00     0.102 A 
HETATM   17  S1  UNL     1      33.641  31.169  -0.799  1.00  0.00    -0.060 SA
HETATM   18  N4  UNL     1      35.839  32.226  -1.600  1.00  0.00    -0.334 N 
ATOM     19  H4  UNL     1      36.187  32.045  -0.658  1.00  0.00     0.168 HD
ENDBRANCH  10  12
ENDBRANCH   6  10
BRANCH   1  20
HETATM   20  C2  UNL     1      42.116  36.030  -1.273  1.00  0.00     0.228 C 
HETATM   21  N1  UNL     1      42.464  37.154  -2.064  1.00  0.00    -0.365 N 
HETATM   22  C1  UNL     1      43.822  37.652  -2.144  1.00  0.00     0.149 C 
ATOM     23  H1  UNL     1      41.733  37.629  -2.595  1.00  0.00     0.161 HD
HETATM   24  O1  UNL     1      43.026  35.458  -0.629  1.00  0.00    -0.273 OA
ENDBRANCH   1  20
TORSDOF 3
ENDMDL
MODEL 2
REMARK VINA RESULT: -6.669521158      2.204      2.836
REMARK  3 active torsions:
REMARK  status: ('A' for Active; 'I' for Inactive)
REMARK       I    between atoms: N1_2  and  C2_4 
REMARK    1  A    between atoms: C2_4  and  C3_6 
REMARK    2  A    between atoms: C5_11  and  N3_12 
REMARK    3  A    between atoms: N3_12  and  C6_14 
ROOT
HETATM    1  C3  UNL     1      40.921  36.734  -2.669  1.00  0.00     0.069 A 
HETATM    2  C4  UNL     1      39.570  36.110  -2.905  1.00  0.00     0.254 C 
HETATM    3  N2  UNL     1      39.087  35.683  -1.612  1.00  0.00    -0.053 N 
ATOM      4  H21 UNL     1      38.070  35.619  -1.584  1.00  0.00     0.279 HD
ATOM      5  H22 UNL     1      39.210  36.401  -0.900  1.00  0.00     0.279 HD
HETATM    6  C5  UNL     1      39.727  34.425  -1.240  1.00  0.00     0.285 C 
HETATM    7  C11 UNL     1      41.207  34.558  -1.394  1.00  0.00     0.060 C 
HETATM    8  C12 UNL     1      41.720  35.906  -1.774  1.00  0.00     0.010 A 
HETATM    9  C13 UNL     1      42.161  36.033  -3.192  1.00  0.00     0.027 A 
ENDROOT
BRANCH   6  10
HETATM   10  N3  UNL     1      39.227  33.436  -2.175  1.00  0.00    -0.349 N 
ATOM     11  H3  UNL     1      39.748  33.276  -3.037  1.00  0.00     0.163 HD
BRANCH  10  12
HETATM   12  C6  UNL     1      38.048  32.681  -1.946  1.00  0.00     0.103 A 
HETATM   13  C7  UNL     1      38.114  31.563  -1.129  1.00  0.00     0.048 A 
HETATM   14  C8  UNL     1      37.016  30.777  -0.873  1.00  0.00     0.007 A 
HETATM   15  C9  UNL     1      35.805  31.099  -1.441  1.00  0.00     0.042 A 
HETATM   16  C10 UNL     1      35.774  32.212  -2.246  1.00  0.00     0.102 A 
HETATM   17  S1  UNL     1      34.356  32.622  -2.934  1.00  0.00    -0.060 SA
HETATM   18  N4  UNL     1      36.860  32.986  -2.496  1.00  0.00    -0.334 N 
ATOM     19  H4  UNL     1      36.775  33.802  -3.103  1.00  0.00     0.168 HD
ENDBRANCH  10  12
ENDBRANCH   6  10
BRANCH   1  20
HETATM   20  C2  UNL     1      40.959  38.214  -2.618  1.00  0.00     0.228 C 
HETATM   21  N1  UNL     1      41.964  38.932  -1.922  1.00  0.00    -0.365 N 
HETATM   22  C1  UNL     1      41.990  40.380  -1.880  1.00  0.00     0.149 C 
ATOM     23  H1  UNL     1      42.694  38.412  -1.435  1.00  0.00     0.161 HD
HETATM   24  O1  UNL     1      40.070  38.868  -3.210  1.00  0.00    -0.273 OA
ENDBRANCH   1  20
TORSDOF 3
ENDMDL
MODEL 3
REMARK VINA RESULT: -6.580702868      3.756      7.347
REMARK  3 active torsions:
REMARK  status: ('A' for Active; 'I' for Inactive)
REMARK       I    between atoms: N1_2  and  C2_4 
REMARK    1  A    between atoms: C2_4  and  C3_6 
REMARK    2  A    between atoms: C5_11  and  N3_12 
REMARK    3  A    between atoms: N3_12  and  C6_14 
ROOT
HETATM    1  C3  UNL     1      36.915  33.580  -3.637  1.00  0.00     0.069 A 
HETATM    2  C4  UNL     1      38.122  32.745  -3.295  1.00  0.00     0.254 C 
HETATM    3  N2  UNL     1      38.336  32.903  -1.875  1.00  0.00    -0.053 N 
ATOM      4  H21 UNL     1      38.843  32.114  -1.474  1.00  0.00     0.279 HD
ATOM      5  H22 UNL     1      37.471  32.808  -1.343  1.00  0.00     0.279 HD
HETATM    6  C5  UNL     1      39.003  34.175  -1.617  1.00  0.00     0.285 C 
HETATM    7  C11 UNL     1      38.263  35.271  -2.309  1.00  0.00     0.060 C 
HETATM    8  C12 UNL     1      36.999  34.890  -3.002  1.00  0.00     0.010 A 
HETATM    9  C13 UNL     1      37.093  34.823  -4.489  1.00  0.00     0.027 A 
ENDROOT
BRANCH   6  10
HETATM   10  N3  UNL     1      40.330  34.047  -2.186  1.00  0.00    -0.349 N 
ATOM     11  H3  UNL     1      40.451  33.461  -3.012  1.00  0.00     0.163 HD
BRANCH  10  12
HETATM   12  C6  UNL     1      41.470  34.699  -1.647  1.00  0.00     0.103 A 
HETATM   13  C7  UNL     1      41.978  34.267  -0.433  1.00  0.00     0.048 A 
HETATM   14  C8  UNL     1      43.071  34.859   0.157  1.00  0.00     0.007 A 
HETATM   15  C9  UNL     1      43.688  35.916  -0.471  1.00  0.00     0.042 A 
HETATM   16  C10 UNL     1      43.158  36.320  -1.673  1.00  0.00     0.102 A 
HETATM   17  S1  UNL     1      43.865  37.570  -2.442  1.00  0.00    -0.060 SA
HETATM   18  N4  UNL     1      42.080  35.734  -2.251  1.00  0.00    -0.334 N 
ATOM     19  H4  UNL     1      41.733  36.078  -3.146  1.00  0.00     0.168 HD
ENDBRANCH  10  12
ENDBRANCH   6  10
BRANCH   1  20
HETATM   20  C2  UNL     1      35.632  32.851  -3.775  1.00  0.00     0.228 C 
HETATM   21  N1  UNL     1      34.571  32.983  -2.844  1.00  0.00    -0.365 N 
HETATM   22  C1  UNL     1      33.321  32.265  -2.991  1.00  0.00     0.149 C 
ATOM     23  H1  UNL     1      34.691  33.605  -2.045  1.00  0.00     0.161 HD
HETATM   24  O1  UNL     1      35.469  32.083  -4.751  1.00  0.00    -0.273 OA
ENDBRANCH   1  20
TORSDOF 3
ENDMDL
MODEL 4
REMARK VINA RESULT: -6.573332390      1.737      2.230
REMARK  3 active torsions:
REMARK  status: ('A' for Active; 'I' for Inactive)
REMARK       I    between atoms: N1_2  and  C2_4 
REMARK    1  A    between atoms: C2_4  and  C3_6 
REMARK    2  A    between atoms: C5_11  and  N3_12 
REMARK    3  A    between atoms: N3_12  and  C6_14 
ROOT
HETATM    1  C3  UNL     1      41.593  35.989  -1.839  1.00  0.00     0.069 A 
HETATM    2  C4  UNL     1      40.874  35.257  -2.943  1.00  0.00     0.254 C 
HETATM    3  N2  UNL     1      39.474  35.584  -2.802  1.00  0.00    -0.053 N 
ATOM      4  H21 UNL     1      38.967  35.485  -3.681  1.00  0.00     0.279 HD
ATOM      5  H22 UNL     1      39.325  36.583  -2.658  1.00  0.00     0.279 HD
HETATM    6  C5  UNL     1      38.886  34.782  -1.735  1.00  0.00     0.285 C 
HETATM    7  C11 UNL     1      39.729  34.898  -0.507  1.00  0.00     0.060 C 
HETATM    8  C12 UNL     1      40.881  35.842  -0.575  1.00  0.00     0.010 A 
HETATM    9  C13 UNL     1      42.217  35.193  -0.708  1.00  0.00     0.027 A 
ENDROOT
BRANCH   6  10
HETATM   10  N3  UNL     1      38.908  33.413  -2.212  1.00  0.00    -0.349 N 
ATOM     11  H3  UNL     1      39.714  33.099  -2.753  1.00  0.00     0.163 HD
BRANCH  10  12
HETATM   12  C6  UNL     1      37.859  32.490  -1.963  1.00  0.00     0.103 A 
HETATM   13  C7  UNL     1      38.162  31.277  -1.365  1.00  0.00     0.048 A 
HETATM   14  C8  UNL     1      37.200  30.328  -1.105  1.00  0.00     0.007 A 
HETATM   15  C9  UNL     1      35.891  30.580  -1.445  1.00  0.00     0.042 A 
HETATM   16  C10 UNL     1      35.626  31.791  -2.038  1.00  0.00     0.102 A 
HETATM   17  S1  UNL     1      34.087  32.121  -2.454  1.00  0.00    -0.060 SA
HETATM   18  N4  UNL     1      36.577  32.725  -2.292  1.00  0.00    -0.334 N 
ATOM     19  H4  UNL     1      36.319  33.607  -2.734  1.00  0.00     0.168 HD
ENDBRANCH  10  12
ENDBRANCH   6  10
BRANCH   1  20
HETATM   20  C2  UNL     1      42.268  37.252  -2.221  1.00  0.00     0.228 C 
HETATM   21  N1  UNL     1      41.753  38.529  -1.885  1.00  0.00    -0.365 N 
HETATM   22  C1  UNL     1      42.424  39.756  -2.265  1.00  0.00     0.149 C 
ATOM     23  H1  UNL     1      40.882  38.586  -1.358  1.00  0.00     0.161 HD
HETATM   24  O1  UNL     1      43.338  37.199  -2.870  1.00  0.00    -0.273 OA
ENDBRANCH   1  20
TORSDOF 3
ENDMDL
MODEL 5
REMARK VINA RESULT: -6.473291164      3.623      7.270
REMARK  3 active torsions:
REMARK  status: ('A' for Active; 'I' for Inactive)
REMARK       I    between atoms: N1_2  and  C2_4 
REMARK    1  A    between atoms: C2_4  and  C3_6 
REMARK    2  A    between atoms: C5_11  and  N3_12 
REMARK    3  A    between atoms: N3_12  and  C6_14 
ROOT
HETATM    1  C3  UNL     1      36.433  33.782  -3.570  1.00  0.00     0.069 A 
HETATM    2  C4  UNL     1      37.864  33.325  -3.689  1.00  0.00     0.254 C 
HETATM    3  N2  UNL     1      38.484  33.595  -2.413  1.00  0.00    -0.053 N 
ATOM      4  H21 UNL     1      39.290  32.994  -2.243  1.00  0.00     0.279 HD
ATOM      5  H22 UNL     1      37.905  33.289  -1.632  1.00  0.00     0.279 HD
HETATM    6  C5  UNL     1      38.826  35.011  -2.321  1.00  0.00     0.285 C 
HETATM    7  C11 UNL     1      37.629  35.832  -2.672  1.00  0.00     0.060 C 
HETATM    8  C12 UNL     1      36.362  35.089  -2.929  1.00  0.00     0.010 A 
HETATM    9  C13 UNL     1      35.972  34.989  -4.365  1.00  0.00     0.027 A 
ENDROOT
BRANCH   6  10
HETATM   10  N3  UNL     1      39.871  35.229  -3.302  1.00  0.00    -0.349 N 
ATOM     11  H3  UNL     1      39.698  34.948  -4.267  1.00  0.00     0.163 HD
BRANCH  10  12
HETATM   12  C6  UNL     1      41.123  35.815  -2.982  1.00  0.00     0.103 A 
HETATM   13  C7  UNL     1      41.651  36.774  -3.831  1.00  0.00     0.048 A 
HETATM   14  C8  UNL     1      42.865  37.376  -3.592  1.00  0.00     0.007 A 
HETATM   15  C9  UNL     1      43.588  37.022  -2.476  1.00  0.00     0.042 A 
HETATM   16  C10 UNL     1      43.036  36.067  -1.656  1.00  0.00     0.102 A 
HETATM   17  S1  UNL     1      43.866  35.625  -0.327  1.00  0.00    -0.060 SA
HETATM   18  N4  UNL     1      41.838  35.476  -1.895  1.00  0.00    -0.334 N 
ATOM     19  H4  UNL     1      41.479  34.773  -1.248  1.00  0.00     0.168 HD
ENDBRANCH  10  12
ENDBRANCH   6  10
BRANCH   1  20
HETATM   20  C2  UNL     1      35.427  32.723  -3.316  1.00  0.00     0.228 C 
HETATM   21  N1  UNL     1      34.730  32.606  -2.086  1.00  0.00    -0.365 N 
HETATM   22  C1  UNL     1      33.749  31.566  -1.852  1.00  0.00     0.149 C 
ATOM     23  H1  UNL     1      34.927  33.275  -1.343  1.00  0.00     0.161 HD
HETATM   24  O1  UNL     1      35.175  31.893  -4.218  1.00  0.00    -0.273 OA
ENDBRANCH   1  20
TORSDOF 3
ENDMDL
