MODEL 1
REMARK VINA RESULT: -7.636970674      0.000      0.000
REMARK  4 active torsions:
REMARK  status: ('A' for Active; 'I' for Inactive)
REMARK    1  A    between atoms: C3_4  and  C4_5 
REMARK    2  A    between atoms: C5_7  and  N2_8 
REMARK    3  A    between atoms: C9_14  and  O2_15 
REMARK    4  A    between atoms: C10_17  and  O3_18 
ROOT
HETATM    1  N1  UNL     1      -6.861   0.170  17.044  1.00  0.00    -0.192 NA
HETATM    2  C1  UNL     1      -6.582   1.267  17.272  1.00  0.00     0.087 C 
HETATM    3  C2  UNL     1      -6.212   2.631  17.562  1.00  0.00     0.092 C 
HETATM    4  C3  UNL     1      -5.982   3.491  16.597  1.00  0.00     0.018 C 
ENDROOT
BRANCH   4   5
HETATM    5  C4  UNL     1      -6.091   3.092  15.179  1.00  0.00     0.179 C 
HETATM    6  O1  UNL     1      -5.030   2.297  14.854  1.00  0.00    -0.350 OA
HETATM    7  C5  UNL     1      -4.319   2.857  13.831  1.00  0.00     0.275 C 
HETATM    8  C9  UNL     1      -5.226   3.842  13.129  1.00  0.00     0.200 C 
HETATM    9  C10 UNL     1      -6.153   4.252  14.248  1.00  0.00     0.184 C 
BRANCH   7  10
HETATM   10  N2  UNL     1      -3.798   1.848  12.927  1.00  0.00    -0.272 N 
HETATM   11  C6  UNL     1      -4.234   0.582  12.751  1.00  0.00     0.114 A 
HETATM   12  C7  UNL     1      -3.458  -0.046  11.789  1.00  0.00     0.037 A 
HETATM   13  C8  UNL     1      -2.539   0.895  11.398  1.00  0.00     0.108 A 
HETATM   14  N3  UNL     1      -2.778   2.006  12.099  1.00  0.00    -0.308 N 
ATOM     15  H3  UNL     1      -2.241   2.869  12.007  1.00  0.00     0.186 HD
ENDBRANCH   7  10
BRANCH   8  16
HETATM   16  O2  UNL     1      -4.519   4.932  12.624  1.00  0.00    -0.388 OA
ATOM     17  H2  UNL     1      -4.707   5.083  11.706  1.00  0.00     0.210 HD
ENDBRANCH   8  16
BRANCH   9  18
HETATM   18  O3  UNL     1      -5.759   5.447  14.845  1.00  0.00    -0.390 OA
ATOM     19  H3  UNL     1      -5.225   5.987  14.274  1.00  0.00     0.210 HD
ENDBRANCH   9  18
ENDBRANCH   4   5
TORSDOF 4
ENDMDL
MODEL 2
REMARK VINA RESULT: -7.096935199      2.220      3.284
REMARK  4 active torsions:
REMARK  status: ('A' for Active; 'I' for Inactive)
REMARK    1  A    between atoms: C3_4  and  C4_5 
REMARK    2  A    between atoms: C5_7  and  N2_8 
REMARK    3  A    between atoms: C9_14  and  O2_15 
REMARK    4  A    between atoms: C10_17  and  O3_18 
ROOT
HETATM    1  N1  UNL     1      -4.965   5.703  17.227  1.00  0.00    -0.192 NA
HETATM    2  C1  UNL     1      -5.779   4.884  17.234  1.00  0.00     0.087 C 
HETATM    3  C2  UNL     1      -6.806   3.871  17.223  1.00  0.00     0.092 C 
HETATM    4  C3  UNL     1      -6.575   2.676  16.733  1.00  0.00     0.018 C 
ENDROOT
BRANCH   4   5
HETATM    5  C4  UNL     1      -5.253   2.325  16.172  1.00  0.00     0.179 C 
HETATM    6  O1  UNL     1      -5.190   2.749  14.877  1.00  0.00    -0.350 OA
HETATM    7  C5  UNL     1      -4.952   1.690  14.046  1.00  0.00     0.275 C 
HETATM    8  C9  UNL     1      -4.363   0.577  14.881  1.00  0.00     0.200 C 
HETATM    9  C10 UNL     1      -4.958   0.867  16.238  1.00  0.00     0.184 C 
BRANCH   7  10
HETATM   10  N2  UNL     1      -4.093   2.062  12.938  1.00  0.00    -0.272 N 
HETATM   11  C6  UNL     1      -4.129   3.191  12.197  1.00  0.00     0.114 A 
HETATM   12  C7  UNL     1      -3.129   3.148  11.238  1.00  0.00     0.037 A 
HETATM   13  C8  UNL     1      -2.493   1.948  11.434  1.00  0.00     0.108 A 
HETATM   14  N3  UNL     1      -3.098   1.335  12.455  1.00  0.00    -0.308 N 
ATOM     15  H3  UNL     1      -2.826   0.421  12.817  1.00  0.00     0.186 HD
ENDBRANCH   7  10
BRANCH   8  16
HETATM   16  O2  UNL     1      -4.741  -0.680  14.414  1.00  0.00    -0.388 OA
ATOM     17  H2  UNL     1      -4.551  -1.365  15.045  1.00  0.00     0.210 HD
ENDBRANCH   8  16
BRANCH   9  18
HETATM   18  O3  UNL     1      -6.090   0.096  16.491  1.00  0.00    -0.390 OA
ATOM     19  H3  UNL     1      -6.325   0.074  17.411  1.00  0.00     0.210 HD
ENDBRANCH   9  18
ENDBRANCH   4   5
TORSDOF 4
ENDMDL
MODEL 3
REMARK VINA RESULT: -6.786475853      1.717      5.239
REMARK  4 active torsions:
REMARK  status: ('A' for Active; 'I' for Inactive)
REMARK    1  A    between atoms: C3_4  and  C4_5 
REMARK    2  A    between atoms: C5_7  and  N2_8 
REMARK    3  A    between atoms: C9_14  and  O2_15 
REMARK    4  A    between atoms: C10_17  and  O3_18 
ROOT
HETATM    1  N1  UNL     1      -1.176   1.950  11.510  1.00  0.00    -0.192 NA
HETATM    2  C1  UNL     1      -2.109   1.280  11.630  1.00  0.00     0.087 C 
HETATM    3  C2  UNL     1      -3.261   0.427  11.792  1.00  0.00     0.092 C 
HETATM    4  C3  UNL     1      -4.190   0.705  12.677  1.00  0.00     0.018 C 
ENDROOT
BRANCH   4   5
HETATM    5  C4  UNL     1      -4.089   1.900  13.539  1.00  0.00     0.179 C 
HETATM    6  O1  UNL     1      -4.769   1.673  14.701  1.00  0.00    -0.350 OA
HETATM    7  C5  UNL     1      -5.755   2.605  14.859  1.00  0.00     0.275 C 
HETATM    8  C9  UNL     1      -5.409   3.790  13.988  1.00  0.00     0.200 C 
HETATM    9  C10 UNL     1      -4.606   3.136  12.889  1.00  0.00     0.184 C 
BRANCH   7  10
HETATM   10  N2  UNL     1      -5.923   2.975  16.252  1.00  0.00    -0.272 N 
HETATM   11  C6  UNL     1      -6.205   2.171  17.300  1.00  0.00     0.114 A 
HETATM   12  C7  UNL     1      -6.278   2.929  18.458  1.00  0.00     0.037 A 
HETATM   13  C8  UNL     1      -6.030   4.218  18.062  1.00  0.00     0.108 A 
HETATM   14  N3  UNL     1      -5.823   4.201  16.742  1.00  0.00    -0.308 N 
ATOM     15  H3  UNL     1      -5.614   5.027  16.183  1.00  0.00     0.186 HD
ENDBRANCH   7  10
BRANCH   8  16
HETATM   16  O2  UNL     1      -6.547   4.419  13.486  1.00  0.00    -0.388 OA
ATOM     17  H2  UNL     1      -6.564   4.417  12.536  1.00  0.00     0.210 HD
ENDBRANCH   8  16
BRANCH   9  18
HETATM   18  O3  UNL     1      -5.379   2.871  11.761  1.00  0.00    -0.390 OA
ATOM     19  H3  UNL     1      -6.059   2.228  11.922  1.00  0.00     0.210 HD
ENDBRANCH   9  18
ENDBRANCH   4   5
TORSDOF 4
ENDMDL
MODEL 4
REMARK VINA RESULT: -6.580364757      2.136      3.639
REMARK  4 active torsions:
REMARK  status: ('A' for Active; 'I' for Inactive)
REMARK    1  A    between atoms: C3_4  and  C4_5 
REMARK    2  A    between atoms: C5_7  and  N2_8 
REMARK    3  A    between atoms: C9_14  and  O2_15 
REMARK    4  A    between atoms: C10_17  and  O3_18 
ROOT
HETATM    1  N1  UNL     1      -4.778   6.908  12.320  1.00  0.00    -0.192 NA
HETATM    2  C1  UNL     1      -5.661   6.370  12.834  1.00  0.00     0.087 C 
HETATM    3  C2  UNL     1      -6.770   5.690  13.456  1.00  0.00     0.092 C 
HETATM    4  C3  UNL     1      -6.608   4.532  14.052  1.00  0.00     0.018 C 
ENDROOT
BRANCH   4   5
HETATM    5  C4  UNL     1      -5.282   3.882  14.107  1.00  0.00     0.179 C 
HETATM    6  O1  UNL     1      -5.079   3.181  12.953  1.00  0.00    -0.350 OA
HETATM    7  C5  UNL     1      -4.870   1.861  13.236  1.00  0.00     0.275 C 
HETATM    8  C9  UNL     1      -4.448   1.764  14.684  1.00  0.00     0.200 C 
HETATM    9  C10 UNL     1      -5.121   2.978  15.278  1.00  0.00     0.184 C 
BRANCH   7  10
HETATM   10  N2  UNL     1      -3.896   1.270  12.337  1.00  0.00    -0.272 N 
HETATM   11  C6  UNL     1      -4.032   0.168  11.567  1.00  0.00     0.114 A 
HETATM   12  C7  UNL     1      -2.862  -0.049  10.858  1.00  0.00     0.037 A 
HETATM   13  C8  UNL     1      -2.018   0.965  11.235  1.00  0.00     0.108 A 
HETATM   14  N3  UNL     1      -2.674   1.727  12.115  1.00  0.00    -0.308 N 
ATOM     15  H3  UNL     1      -2.281   2.557  12.559  1.00  0.00     0.186 HD
ENDBRANCH   7  10
BRANCH   8  16
HETATM   16  O2  UNL     1      -4.896   0.586  15.279  1.00  0.00    -0.388 OA
ATOM     17  H2  UNL     1      -5.659   0.733  15.825  1.00  0.00     0.210 HD
ENDBRANCH   8  16
BRANCH   9  18
HETATM   18  O3  UNL     1      -6.333   2.660  15.887  1.00  0.00    -0.390 OA
ATOM     19  H3  UNL     1      -6.225   2.303  16.761  1.00  0.00     0.210 HD
ENDBRANCH   9  18
ENDBRANCH   4   5
TORSDOF 4
ENDMDL
MODEL 5
REMARK VINA RESULT: -6.566089293      1.980      5.131
REMARK  4 active torsions:
REMARK  status: ('A' for Active; 'I' for Inactive)
REMARK    1  A    between atoms: C3_4  and  C4_5 
REMARK    2  A    between atoms: C5_7  and  N2_8 
REMARK    3  A    between atoms: C9_14  and  O2_15 
REMARK    4  A    between atoms: C10_17  and  O3_18 
ROOT
HETATM    1  N1  UNL     1      -1.569   0.029  11.521  1.00  0.00    -0.192 NA
HETATM    2  C1  UNL     1      -2.687   0.071  11.233  1.00  0.00     0.087 C 
HETATM    3  C2  UNL     1      -4.087   0.106  10.888  1.00  0.00     0.092 C 
HETATM    4  C3  UNL     1      -4.884   1.025  11.382  1.00  0.00     0.018 C 
ENDROOT
BRANCH   4   5
HETATM    5  C4  UNL     1      -4.375   2.056  12.310  1.00  0.00     0.179 C 
HETATM    6  O1  UNL     1      -5.184   2.108  13.408  1.00  0.00    -0.350 OA
HETATM    7  C5  UNL     1      -5.712   3.361  13.545  1.00  0.00     0.275 C 
HETATM    8  C9  UNL     1      -4.838   4.314  12.763  1.00  0.00     0.200 C 
HETATM    9  C10 UNL     1      -4.284   3.407  11.690  1.00  0.00     0.184 C 
BRANCH   7  10
HETATM   10  N2  UNL     1      -5.830   3.741  14.940  1.00  0.00    -0.272 N 
HETATM   11  C6  UNL     1      -5.885   2.935  16.023  1.00  0.00     0.114 A 
HETATM   12  C7  UNL     1      -5.996   3.706  17.169  1.00  0.00     0.037 A 
HETATM   13  C8  UNL     1      -6.007   5.006  16.730  1.00  0.00     0.108 A 
HETATM   14  N3  UNL     1      -5.906   4.981  15.399  1.00  0.00    -0.308 N 
ATOM     15  H3  UNL     1      -5.888   5.813  14.809  1.00  0.00     0.186 HD
ENDBRANCH   7  10
BRANCH   8  16
HETATM   16  O2  UNL     1      -5.572   5.364  12.216  1.00  0.00    -0.388 OA
ATOM     17  H2  UNL     1      -6.152   5.762  12.855  1.00  0.00     0.210 HD
ENDBRANCH   8  16
BRANCH   9  18
HETATM   18  O3  UNL     1      -4.999   3.505  10.499  1.00  0.00    -0.390 OA
ATOM     19  H3  UNL     1      -4.820   2.789   9.900  1.00  0.00     0.210 HD
ENDBRANCH   9  18
ENDBRANCH   4   5
TORSDOF 4
ENDMDL
