MODEL 1
REMARK VINA RESULT: -6.507164429      0.000      0.000
REMARK  4 active torsions:
REMARK  status: ('A' for Active; 'I' for Inactive)
REMARK    1  A    between atoms: O1_2  and  C2_3 
REMARK    2  A    between atoms: C5_7  and  O3_8 
REMARK    3  A    between atoms: C5_7  and  C6_10 
REMARK    4  A    between atoms: C6_10  and  O4_11 
ROOT
HETATM    1  C2  UNL     1      -3.757   2.162  11.782  1.00  0.00     0.298 C 
HETATM    2  C3  UNL     1      -4.452   1.069  12.607  1.00  0.00     0.098 C 
HETATM    3  C4  UNL     1      -4.497   1.595  14.015  1.00  0.00     0.162 C 
HETATM    4  O2  UNL     1      -5.342   0.864  14.843  1.00  0.00    -0.345 OA
HETATM    5  C5  UNL     1      -5.035   1.242  16.150  1.00  0.00     0.183 C 
HETATM    6  C7  UNL     1      -5.252   2.718  16.308  1.00  0.00     0.073 C 
HETATM    7  C8  UNL     1      -5.884   3.327  15.061  1.00  0.00     0.043 C 
HETATM    8  C9  UNL     1      -4.963   3.046  13.921  1.00  0.00     0.190 C 
HETATM    9  O5  UNL     1      -5.553   3.188  12.673  1.00  0.00    -0.230 OA
HETATM   10  O6  UNL     1      -4.581   3.273  11.790  1.00  0.00    -0.208 OA
ENDROOT
BRANCH   5  11
HETATM   11  O3  UNL     1      -3.687   0.892  16.349  1.00  0.00    -0.364 OA
ATOM     12  H3  UNL     1      -3.650   0.463  17.196  1.00  0.00     0.213 HD
ENDBRANCH   5  11
BRANCH   5  13
HETATM   13  C6  UNL     1      -5.840   0.467  17.167  1.00  0.00     0.232 C 
BRANCH  13  14
HETATM   14  O4  UNL     1      -7.149   0.394  16.693  1.00  0.00    -0.396 OA
ATOM     15  H4  UNL     1      -7.452  -0.495  16.834  1.00  0.00     0.209 HD
ENDBRANCH  13  14
ENDBRANCH   5  13
BRANCH   1  16
HETATM   16  O1  UNL     1      -2.542   2.396  12.422  1.00  0.00    -0.363 OA
HETATM   17  C1  UNL     1      -1.484   2.394  11.501  1.00  0.00     0.204 C 
ENDBRANCH   1  16
TORSDOF 4
ENDMDL
MODEL 2
REMARK VINA RESULT: -6.425438459      1.040      1.081
REMARK  4 active torsions:
REMARK  status: ('A' for Active; 'I' for Inactive)
REMARK    1  A    between atoms: O1_2  and  C2_3 
REMARK    2  A    between atoms: C5_7  and  O3_8 
REMARK    3  A    between atoms: C5_7  and  C6_10 
REMARK    4  A    between atoms: C6_10  and  O4_11 
ROOT
HETATM    1  C2  UNL     1      -3.494   0.604  11.381  1.00  0.00     0.298 C 
HETATM    2  C3  UNL     1      -4.259  -0.145  12.482  1.00  0.00     0.098 C 
HETATM    3  C4  UNL     1      -4.289   0.790  13.659  1.00  0.00     0.162 C 
HETATM    4  O2  UNL     1      -5.182   0.393  14.648  1.00  0.00    -0.345 OA
HETATM    5  C5  UNL     1      -4.868   1.138  15.784  1.00  0.00     0.183 C 
HETATM    6  C7  UNL     1      -5.002   2.601  15.475  1.00  0.00     0.073 C 
HETATM    7  C8  UNL     1      -5.585   2.828  14.086  1.00  0.00     0.043 C 
HETATM    8  C9  UNL     1      -4.670   2.163  13.113  1.00  0.00     0.190 C 
HETATM    9  O5  UNL     1      -5.238   1.944  11.865  1.00  0.00    -0.230 OA
HETATM   10  O6  UNL     1      -4.253   1.704  11.025  1.00  0.00    -0.208 OA
ENDROOT
BRANCH   5  11
HETATM   11  O3  UNL     1      -3.545   0.798  16.118  1.00  0.00    -0.364 OA
ATOM     12  H3  UNL     1      -3.246   1.469  16.721  1.00  0.00     0.213 HD
ENDBRANCH   5  11
BRANCH   5  13
HETATM   13  C6  UNL     1      -5.727   0.757  16.967  1.00  0.00     0.232 C 
BRANCH  13  14
HETATM   14  O4  UNL     1      -6.978   0.393  16.473  1.00  0.00    -0.396 OA
ATOM     15  H4  UNL     1      -7.056  -0.549  16.563  1.00  0.00     0.209 HD
ENDBRANCH  13  14
ENDBRANCH   5  13
BRANCH   1  16
HETATM   16  O1  UNL     1      -2.274   0.961  11.953  1.00  0.00    -0.363 OA
HETATM   17  C1  UNL     1      -1.599   1.889  11.146  1.00  0.00     0.204 C 
ENDBRANCH   1  16
TORSDOF 4
ENDMDL
MODEL 3
REMARK VINA RESULT: -5.864796693      3.123      4.603
REMARK  4 active torsions:
REMARK  status: ('A' for Active; 'I' for Inactive)
REMARK    1  A    between atoms: O1_2  and  C2_3 
REMARK    2  A    between atoms: C5_7  and  O3_8 
REMARK    3  A    between atoms: C5_7  and  C6_10 
REMARK    4  A    between atoms: C6_10  and  O4_11 
ROOT
HETATM    1  C2  UNL     1      -4.102   4.229  11.638  1.00  0.00     0.298 C 
HETATM    2  C3  UNL     1      -4.550   2.986  12.420  1.00  0.00     0.098 C 
HETATM    3  C4  UNL     1      -4.107   1.809  11.595  1.00  0.00     0.162 C 
HETATM    4  O2  UNL     1      -4.177   0.603  12.284  1.00  0.00    -0.345 OA
HETATM    5  C5  UNL     1      -4.063  -0.404  11.326  1.00  0.00     0.183 C 
HETATM    6  C7  UNL     1      -2.758  -0.259  10.600  1.00  0.00     0.073 C 
HETATM    7  C8  UNL     1      -1.890   0.828  11.222  1.00  0.00     0.043 C 
HETATM    8  C9  UNL     1      -2.670   2.098  11.166  1.00  0.00     0.190 C 
HETATM    9  O5  UNL     1      -2.198   3.087  12.018  1.00  0.00    -0.230 OA
HETATM   10  O6  UNL     1      -2.719   4.228  11.617  1.00  0.00    -0.208 OA
ENDROOT
BRANCH   5  11
HETATM   11  O3  UNL     1      -5.159  -0.240  10.459  1.00  0.00    -0.364 OA
ATOM     12  H3  UNL     1      -5.537  -1.105  10.347  1.00  0.00     0.213 HD
ENDBRANCH   5  11
BRANCH   5  13
HETATM   13  C6  UNL     1      -4.192  -1.781  11.933  1.00  0.00     0.232 C 
BRANCH  13  14
HETATM   14  O4  UNL     1      -3.035  -2.488  11.611  1.00  0.00    -0.396 OA
ATOM     15  H4  UNL     1      -2.316  -1.866  11.603  1.00  0.00     0.209 HD
ENDBRANCH  13  14
ENDBRANCH   5  13
BRANCH   1  16
HETATM   16  O1  UNL     1      -4.654   4.088  10.366  1.00  0.00    -0.363 OA
HETATM   17  C1  UNL     1      -4.155   5.068   9.495  1.00  0.00     0.204 C 
ENDBRANCH   1  16
TORSDOF 4
ENDMDL
MODEL 4
REMARK VINA RESULT: -5.815661647      1.594      4.760
REMARK  4 active torsions:
REMARK  status: ('A' for Active; 'I' for Inactive)
REMARK    1  A    between atoms: O1_2  and  C2_3 
REMARK    2  A    between atoms: C5_7  and  O3_8 
REMARK    3  A    between atoms: C5_7  and  C6_10 
REMARK    4  A    between atoms: C6_10  and  O4_11 
ROOT
HETATM    1  C2  UNL     1      -5.531   1.468  17.105  1.00  0.00     0.298 C 
HETATM    2  C3  UNL     1      -4.294   1.324  16.207  1.00  0.00     0.098 C 
HETATM    3  C4  UNL     1      -4.744   1.733  14.832  1.00  0.00     0.162 C 
HETATM    4  O2  UNL     1      -3.688   1.936  13.950  1.00  0.00    -0.345 OA
HETATM    5  C5  UNL     1      -4.245   1.978  12.672  1.00  0.00     0.183 C 
HETATM    6  C7  UNL     1      -5.245   3.094  12.599  1.00  0.00     0.073 C 
HETATM    7  C8  UNL     1      -5.238   3.935  13.870  1.00  0.00     0.043 C 
HETATM    8  C9  UNL     1      -5.551   3.018  15.004  1.00  0.00     0.190 C 
HETATM    9  O5  UNL     1      -5.213   3.528  16.251  1.00  0.00    -0.230 OA
HETATM   10  O6  UNL     1      -5.854   2.812  17.151  1.00  0.00    -0.208 OA
ENDROOT
BRANCH   5  11
HETATM   11  O3  UNL     1      -4.852   0.725  12.472  1.00  0.00    -0.364 OA
ATOM     12  H3  UNL     1      -4.179   0.164  12.103  1.00  0.00     0.213 HD
ENDBRANCH   5  11
BRANCH   5  13
HETATM   13  C6  UNL     1      -3.192   2.127  11.599  1.00  0.00     0.232 C 
BRANCH  13  14
HETATM   14  O4  UNL     1      -1.970   2.325  12.241  1.00  0.00    -0.396 OA
ATOM     15  H4  UNL     1      -1.312   2.444  11.567  1.00  0.00     0.209 HD
ENDBRANCH  13  14
ENDBRANCH   5  13
BRANCH   1  16
HETATM   16  O1  UNL     1      -6.524   0.702  16.496  1.00  0.00    -0.363 OA
HETATM   17  C1  UNL     1      -7.787   1.023  17.014  1.00  0.00     0.204 C 
ENDBRANCH   1  16
TORSDOF 4
ENDMDL
MODEL 5
REMARK VINA RESULT: -5.797387679      2.306      5.142
REMARK  4 active torsions:
REMARK  status: ('A' for Active; 'I' for Inactive)
REMARK    1  A    between atoms: O1_2  and  C2_3 
REMARK    2  A    between atoms: C5_7  and  O3_8 
REMARK    3  A    between atoms: C5_7  and  C6_10 
REMARK    4  A    between atoms: C6_10  and  O4_11 
ROOT
HETATM    1  C2  UNL     1      -6.557   0.729  17.992  1.00  0.00     0.298 C 
HETATM    2  C3  UNL     1      -7.207   1.614  16.919  1.00  0.00     0.098 C 
HETATM    3  C4  UNL     1      -6.066   2.213  16.145  1.00  0.00     0.162 C 
HETATM    4  O2  UNL     1      -6.469   2.816  14.958  1.00  0.00    -0.345 OA
HETATM    5  C5  UNL     1      -5.395   3.595  14.529  1.00  0.00     0.183 C 
HETATM    6  C7  UNL     1      -4.194   2.720  14.320  1.00  0.00     0.073 C 
HETATM    7  C8  UNL     1      -4.542   1.245  14.484  1.00  0.00     0.043 C 
HETATM    8  C9  UNL     1      -5.090   1.074  15.861  1.00  0.00     0.190 C 
HETATM    9  O5  UNL     1      -5.800  -0.106  16.041  1.00  0.00    -0.230 OA
HETATM   10  O6  UNL     1      -5.905  -0.302  17.339  1.00  0.00    -0.208 OA
ENDROOT
BRANCH   5  11
HETATM   11  O3  UNL     1      -5.175   4.545  15.542  1.00  0.00    -0.364 OA
ATOM     12  H3  UNL     1      -4.776   5.296  15.116  1.00  0.00     0.213 HD
ENDBRANCH   5  11
BRANCH   5  13
HETATM   13  C6  UNL     1      -5.723   4.368  13.272  1.00  0.00     0.232 C 
BRANCH  13  14
HETATM   14  O4  UNL     1      -6.860   5.129  13.538  1.00  0.00    -0.396 OA
ATOM     15  H4  UNL     1      -7.113   5.553  12.726  1.00  0.00     0.209 HD
ENDBRANCH  13  14
ENDBRANCH   5  13
BRANCH   1  16
HETATM   16  O1  UNL     1      -5.677   1.563  18.680  1.00  0.00    -0.363 OA
HETATM   17  C1  UNL     1      -6.374   2.587  19.337  1.00  0.00     0.204 C 
ENDBRANCH   1  16
TORSDOF 4
ENDMDL
