MODEL 1
REMARK VINA RESULT: -6.869458520      0.000      0.000
REMARK  16 active torsions:
REMARK  status: ('A' for Active; 'I' for Inactive)
REMARK    1  A    between atoms: N1_2  and  C3_5 
REMARK    2  A    between atoms: N1_2  and  C12_20 
REMARK    3  A    between atoms: C3_5  and  C4_6 
REMARK    4  A    between atoms: C4_6  and  C5_7 
REMARK    5  A    between atoms: C5_7  and  C6_8 
REMARK    6  A    between atoms: C6_8  and  C7_9 
REMARK    7  A    between atoms: C7_9  and  C8_10 
REMARK    8  A    between atoms: C8_10  and  N3_11 
REMARK    9  A    between atoms: N3_11  and  C9_13 
REMARK   10  A    between atoms: C9_13  and  C10_14 
REMARK   11  A    between atoms: C10_14  and  N4_15 
REMARK   12  A    between atoms: C12_20  and  C13_21 
REMARK   13  A    between atoms: C13_21  and  C14_22 
REMARK   14  A    between atoms: C14_22  and  N7_23 
REMARK   15  A    between atoms: N7_23  and  C15_25 
REMARK   16  A    between atoms: C15_25  and  C16_26 
ROOT
HETATM    1  C1  UNL     1      32.430  20.539  10.181  1.00  0.00     0.292 C 
HETATM    2  N1  UNL     1      33.406  19.677   9.545  1.00  0.00     0.016 N 
HETATM    3  C2  UNL     1      33.912  20.340   8.402  1.00  0.00     0.283 C 
HETATM    4  N2  UNL     1      34.321  20.899   7.475  1.00  0.00    -0.165 NA
ENDROOT
BRANCH   2   5
HETATM    5  C3  UNL     1      34.464  19.405  10.472  1.00  0.00     0.256 C 
BRANCH   5   6
HETATM    6  C4  UNL     1      34.921  17.963  10.509  1.00  0.00     0.029 C 
BRANCH   6   7
HETATM    7  C5  UNL     1      36.326  17.825   9.968  1.00  0.00     0.002 C 
BRANCH   7   8
HETATM    8  C6  UNL     1      37.415  17.977  10.956  1.00  0.00     0.002 C 
BRANCH   8   9
HETATM    9  C7  UNL     1      38.544  18.873  10.585  1.00  0.00     0.019 C 
BRANCH   9  10
HETATM   10  C8  UNL     1      39.892  18.361  11.075  1.00  0.00     0.113 C 
BRANCH  10  11
HETATM   11  N3  UNL     1      39.827  17.943  12.455  1.00  0.00    -0.420 N 
ATOM     12  H3  UNL     1      39.120  17.290  12.794  1.00  0.00     0.153 HD
BRANCH  11  13
HETATM   13  C9  UNL     1      40.815  18.506  13.310  1.00  0.00     0.133 C 
BRANCH  13  14
HETATM   14  C10 UNL     1      40.649  19.959  13.641  1.00  0.00     0.141 C 
BRANCH  14  15
HETATM   15  N4  UNL     1      41.698  20.773  13.047  1.00  0.00    -0.365 N 
HETATM   16  C11 UNL     1      41.404  21.771  12.261  1.00  0.00     0.197 C 
HETATM   17  N5  UNL     1      40.040  22.030  12.012  1.00  0.00    -0.067 NA
HETATM   18  N6  UNL     1      42.417  22.572  11.674  1.00  0.00    -0.067 NA
ATOM     19  H4  UNL     1      42.676  20.560  13.248  1.00  0.00     0.161 HD
ENDBRANCH  14  15
ENDBRANCH  13  14
ENDBRANCH  11  13
ENDBRANCH  10  11
ENDBRANCH   9  10
ENDBRANCH   8   9
ENDBRANCH   7   8
ENDBRANCH   6   7
ENDBRANCH   5   6
ENDBRANCH   2   5
BRANCH   2  20
HETATM   20  C12 UNL     1      32.749  18.449   9.118  1.00  0.00     0.257 C 
BRANCH  20  21
HETATM   21  C13 UNL     1      31.364  18.797   8.628  1.00  0.00     0.048 C 
BRANCH  21  22
HETATM   22  C14 UNL     1      30.354  17.772   9.130  1.00  0.00     0.116 C 
BRANCH  22  23
HETATM   23  N7  UNL     1      29.531  18.219  10.187  1.00  0.00    -0.415 N 
ATOM     24  H7  UNL     1      29.426  17.657  11.032  1.00  0.00     0.153 HD
BRANCH  23  25
HETATM   25  C15 UNL     1      28.854  19.456  10.059  1.00  0.00     0.190 C 
BRANCH  25  26
HETATM   26  C16 UNL     1      28.459  20.107  11.332  1.00  0.00     0.090 C 
HETATM   27  N8  UNL     1      28.353  19.378  12.424  1.00  0.00    -0.379 N 
HETATM   28  C17 UNL     1      27.966  19.991  13.682  1.00  0.00     0.122 C 
ATOM     29  H8  UNL     1      28.545  18.377  12.386  1.00  0.00     0.160 HD
HETATM   30  C18 UNL     1      26.894  21.039  13.473  1.00  0.00     0.039 C 
HETATM   31  C19 UNL     1      27.433  22.086  12.552  1.00  0.00     0.122 C 
HETATM   32  N9  UNL     1      28.173  21.476  11.478  1.00  0.00    -0.379 N 
ATOM     33  H9  UNL     1      28.525  22.099  10.751  1.00  0.00     0.160 HD
ENDBRANCH  25  26
ENDBRANCH  23  25
ENDBRANCH  22  23
ENDBRANCH  21  22
ENDBRANCH  20  21
ENDBRANCH   2  20
TORSDOF 16
ENDMDL
MODEL 2
REMARK VINA RESULT: -6.688865445      1.587     10.176
REMARK  16 active torsions:
REMARK  status: ('A' for Active; 'I' for Inactive)
REMARK    1  A    between atoms: N1_2  and  C3_5 
REMARK    2  A    between atoms: N1_2  and  C12_20 
REMARK    3  A    between atoms: C3_5  and  C4_6 
REMARK    4  A    between atoms: C4_6  and  C5_7 
REMARK    5  A    between atoms: C5_7  and  C6_8 
REMARK    6  A    between atoms: C6_8  and  C7_9 
REMARK    7  A    between atoms: C7_9  and  C8_10 
REMARK    8  A    between atoms: C8_10  and  N3_11 
REMARK    9  A    between atoms: N3_11  and  C9_13 
REMARK   10  A    between atoms: C9_13  and  C10_14 
REMARK   11  A    between atoms: C10_14  and  N4_15 
REMARK   12  A    between atoms: C12_20  and  C13_21 
REMARK   13  A    between atoms: C13_21  and  C14_22 
REMARK   14  A    between atoms: C14_22  and  N7_23 
REMARK   15  A    between atoms: N7_23  and  C15_25 
REMARK   16  A    between atoms: C15_25  and  C16_26 
ROOT
HETATM    1  C1  UNL     1      34.690  17.708   8.315  1.00  0.00     0.292 C 
HETATM    2  N1  UNL     1      34.269  18.882   9.055  1.00  0.00     0.016 N 
HETATM    3  C2  UNL     1      34.316  19.999   8.188  1.00  0.00     0.283 C 
HETATM    4  N2  UNL     1      34.352  20.900   7.463  1.00  0.00    -0.165 NA
ENDROOT
BRANCH   2   5
HETATM    5  C3  UNL     1      32.934  18.678   9.533  1.00  0.00     0.256 C 
BRANCH   5   6
HETATM    6  C4  UNL     1      31.921  18.340   8.461  1.00  0.00     0.029 C 
BRANCH   6   7
HETATM    7  C5  UNL     1      30.516  18.353   9.020  1.00  0.00     0.002 C 
BRANCH   7   8
HETATM    8  C6  UNL     1      30.391  18.035  10.459  1.00  0.00     0.002 C 
BRANCH   8   9
HETATM    9  C7  UNL     1      29.371  18.793  11.233  1.00  0.00     0.019 C 
BRANCH   9  10
HETATM   10  C8  UNL     1      28.616  19.808  10.385  1.00  0.00     0.113 C 
BRANCH  10  11
HETATM   11  N3  UNL     1      28.527  21.086  11.049  1.00  0.00    -0.420 N 
ATOM     12  H3  UNL     1      29.043  21.905  10.728  1.00  0.00     0.153 HD
BRANCH  11  13
HETATM   13  C9  UNL     1      27.669  21.125  12.184  1.00  0.00     0.133 C 
BRANCH  13  14
HETATM   14  C10 UNL     1      26.640  22.217  12.194  1.00  0.00     0.141 C 
BRANCH  14  15
HETATM   15  N4  UNL     1      26.923  23.235  11.194  1.00  0.00    -0.365 N 
HETATM   16  C11 UNL     1      27.288  24.436  11.550  1.00  0.00     0.197 C 
HETATM   17  N5  UNL     1      27.397  24.706  12.930  1.00  0.00    -0.067 NA
HETATM   18  N6  UNL     1      27.566  25.439  10.587  1.00  0.00    -0.067 NA
ATOM     19  H4  UNL     1      26.836  23.007  10.204  1.00  0.00     0.161 HD
ENDBRANCH  14  15
ENDBRANCH  13  14
ENDBRANCH  11  13
ENDBRANCH  10  11
ENDBRANCH   9  10
ENDBRANCH   8   9
ENDBRANCH   7   8
ENDBRANCH   6   7
ENDBRANCH   5   6
ENDBRANCH   2   5
BRANCH   2  20
HETATM   20  C12 UNL     1      35.196  19.107  10.156  1.00  0.00     0.257 C 
BRANCH  20  21
HETATM   21  C13 UNL     1      36.538  18.527   9.774  1.00  0.00     0.048 C 
BRANCH  21  22
HETATM   22  C14 UNL     1      37.118  17.733  10.938  1.00  0.00     0.116 C 
BRANCH  22  23
HETATM   23  N7  UNL     1      38.499  17.929  11.160  1.00  0.00    -0.415 N 
ATOM     24  H7  UNL     1      39.064  17.192  11.583  1.00  0.00     0.153 HD
BRANCH  23  25
HETATM   25  C15 UNL     1      39.090  19.161  10.787  1.00  0.00     0.190 C 
BRANCH  25  26
HETATM   26  C16 UNL     1      39.829  19.870  11.860  1.00  0.00     0.090 C 
HETATM   27  N8  UNL     1      40.109  19.234  12.979  1.00  0.00    -0.379 N 
HETATM   28  C17 UNL     1      40.830  19.907  14.045  1.00  0.00     0.122 C 
ATOM     29  H8  UNL     1      39.818  18.264  13.098  1.00  0.00     0.160 HD
HETATM   30  C18 UNL     1      40.380  21.344  14.189  1.00  0.00     0.039 C 
HETATM   31  C19 UNL     1      40.631  22.048  12.895  1.00  0.00     0.122 C 
HETATM   32  N9  UNL     1      40.266  21.204  11.786  1.00  0.00    -0.379 N 
ATOM     33  H9  UNL     1      40.332  21.615  10.856  1.00  0.00     0.160 HD
ENDBRANCH  25  26
ENDBRANCH  23  25
ENDBRANCH  22  23
ENDBRANCH  21  22
ENDBRANCH  20  21
ENDBRANCH   2  20
TORSDOF 16
ENDMDL
MODEL 3
REMARK VINA RESULT: -6.506507066      3.219      9.418
REMARK  16 active torsions:
REMARK  status: ('A' for Active; 'I' for Inactive)
REMARK    1  A    between atoms: N1_2  and  C3_5 
REMARK    2  A    between atoms: N1_2  and  C12_20 
REMARK    3  A    between atoms: C3_5  and  C4_6 
REMARK    4  A    between atoms: C4_6  and  C5_7 
REMARK    5  A    between atoms: C5_7  and  C6_8 
REMARK    6  A    between atoms: C6_8  and  C7_9 
REMARK    7  A    between atoms: C7_9  and  C8_10 
REMARK    8  A    between atoms: C8_10  and  N3_11 
REMARK    9  A    between atoms: N3_11  and  C9_13 
REMARK   10  A    between atoms: C9_13  and  C10_14 
REMARK   11  A    between atoms: C10_14  and  N4_15 
REMARK   12  A    between atoms: C12_20  and  C13_21 
REMARK   13  A    between atoms: C13_21  and  C14_22 
REMARK   14  A    between atoms: C14_22  and  N7_23 
REMARK   15  A    between atoms: N7_23  and  C15_25 
REMARK   16  A    between atoms: C15_25  and  C16_26 
ROOT
HETATM    1  C1  UNL     1      41.064  19.650  14.352  1.00  0.00     0.292 C 
HETATM    2  N1  UNL     1      41.068  19.627  12.903  1.00  0.00     0.016 N 
HETATM    3  C2  UNL     1      42.041  18.694  12.473  1.00  0.00     0.283 C 
HETATM    4  N2  UNL     1      42.835  17.921  12.138  1.00  0.00    -0.165 NA
ENDROOT
BRANCH   2   5
HETATM    5  C3  UNL     1      39.769  19.241  12.438  1.00  0.00     0.256 C 
BRANCH   5   6
HETATM    6  C4  UNL     1      39.759  18.530  11.102  1.00  0.00     0.029 C 
BRANCH   6   7
HETATM    7  C5  UNL     1      38.447  18.749  10.382  1.00  0.00     0.002 C 
BRANCH   7   8
HETATM    8  C6  UNL     1      37.293  17.983  10.896  1.00  0.00     0.002 C 
BRANCH   8   9
HETATM    9  C7  UNL     1      36.012  18.107  10.149  1.00  0.00     0.019 C 
BRANCH   9  10
HETATM   10  C8  UNL     1      34.813  18.330  11.061  1.00  0.00     0.113 C 
BRANCH  10  11
HETATM   11  N3  UNL     1      33.625  17.702  10.532  1.00  0.00    -0.420 N 
ATOM     12  H3  UNL     1      33.633  16.757  10.147  1.00  0.00     0.153 HD
BRANCH  11  13
HETATM   13  C9  UNL     1      32.443  18.492  10.584  1.00  0.00     0.133 C 
BRANCH  13  14
HETATM   14  C10 UNL     1      31.158  17.774  10.297  1.00  0.00     0.141 C 
BRANCH  14  15
HETATM   15  N4  UNL     1      30.462  17.402  11.519  1.00  0.00    -0.365 N 
HETATM   16  C11 UNL     1      29.228  17.774  11.724  1.00  0.00     0.197 C 
HETATM   17  N5  UNL     1      28.601  18.543  10.721  1.00  0.00    -0.067 NA
HETATM   18  N6  UNL     1      28.538  17.420  12.910  1.00  0.00    -0.067 NA
ATOM     19  H4  UNL     1      30.944  16.844  12.224  1.00  0.00     0.161 HD
ENDBRANCH  14  15
ENDBRANCH  13  14
ENDBRANCH  11  13
ENDBRANCH  10  11
ENDBRANCH   9  10
ENDBRANCH   8   9
ENDBRANCH   7   8
ENDBRANCH   6   7
ENDBRANCH   5   6
ENDBRANCH   2   5
BRANCH   2  20
HETATM   20  C12 UNL     1      41.437  20.946  12.408  1.00  0.00     0.257 C 
BRANCH  20  21
HETATM   21  C13 UNL     1      40.178  21.768  12.264  1.00  0.00     0.048 C 
BRANCH  21  22
HETATM   22  C14 UNL     1      40.314  23.078  13.032  1.00  0.00     0.116 C 
BRANCH  22  23
HETATM   23  N7  UNL     1      39.344  23.279  14.039  1.00  0.00    -0.415 N 
ATOM     24  H7  UNL     1      39.064  22.508  14.647  1.00  0.00     0.153 HD
BRANCH  23  25
HETATM   25  C15 UNL     1      38.766  24.562  14.194  1.00  0.00     0.190 C 
BRANCH  25  26
HETATM   26  C16 UNL     1      37.380  24.583  14.724  1.00  0.00     0.090 C 
HETATM   27  N8  UNL     1      37.051  23.765  15.702  1.00  0.00    -0.379 N 
HETATM   28  C17 UNL     1      35.700  23.764  16.236  1.00  0.00     0.122 C 
ATOM     29  H8  UNL     1      37.748  23.127  16.086  1.00  0.00     0.160 HD
HETATM   30  C18 UNL     1      34.676  23.935  15.135  1.00  0.00     0.039 C 
HETATM   31  C19 UNL     1      34.940  25.235  14.445  1.00  0.00     0.122 C 
HETATM   32  N9  UNL     1      36.355  25.423  14.255  1.00  0.00    -0.379 N 
ATOM     33  H9  UNL     1      36.642  26.247  13.728  1.00  0.00     0.160 HD
ENDBRANCH  25  26
ENDBRANCH  23  25
ENDBRANCH  22  23
ENDBRANCH  21  22
ENDBRANCH  20  21
ENDBRANCH   2  20
TORSDOF 16
ENDMDL
MODEL 4
REMARK VINA RESULT: -6.478446109      2.931     10.109
REMARK  16 active torsions:
REMARK  status: ('A' for Active; 'I' for Inactive)
REMARK    1  A    between atoms: N1_2  and  C3_5 
REMARK    2  A    between atoms: N1_2  and  C12_20 
REMARK    3  A    between atoms: C3_5  and  C4_6 
REMARK    4  A    between atoms: C4_6  and  C5_7 
REMARK    5  A    between atoms: C5_7  and  C6_8 
REMARK    6  A    between atoms: C6_8  and  C7_9 
REMARK    7  A    between atoms: C7_9  and  C8_10 
REMARK    8  A    between atoms: C8_10  and  N3_11 
REMARK    9  A    between atoms: N3_11  and  C9_13 
REMARK   10  A    between atoms: C9_13  and  C10_14 
REMARK   11  A    between atoms: C10_14  and  N4_15 
REMARK   12  A    between atoms: C12_20  and  C13_21 
REMARK   13  A    between atoms: C13_21  and  C14_22 
REMARK   14  A    between atoms: C14_22  and  N7_23 
REMARK   15  A    between atoms: N7_23  and  C15_25 
REMARK   16  A    between atoms: C15_25  and  C16_26 
ROOT
HETATM    1  C1  UNL     1      30.962  17.615  10.423  1.00  0.00     0.292 C 
HETATM    2  N1  UNL     1      30.695  18.720   9.524  1.00  0.00     0.016 N 
HETATM    3  C2  UNL     1      29.728  18.305   8.579  1.00  0.00     0.283 C 
HETATM    4  N2  UNL     1      28.930  17.952   7.819  1.00  0.00    -0.165 NA
ENDROOT
BRANCH   2   5
HETATM    5  C3  UNL     1      30.205  19.832  10.284  1.00  0.00     0.256 C 
BRANCH   5   6
HETATM    6  C4  UNL     1      28.934  19.559  11.059  1.00  0.00     0.029 C 
BRANCH   6   7
HETATM    7  C5  UNL     1      27.975  20.724  10.954  1.00  0.00     0.002 C 
BRANCH   7   8
HETATM    8  C6  UNL     1      27.955  21.648  12.108  1.00  0.00     0.002 C 
BRANCH   8   9
HETATM    9  C7  UNL     1      26.664  22.321  12.414  1.00  0.00     0.019 C 
BRANCH   9  10
HETATM   10  C8  UNL     1      26.783  23.838  12.465  1.00  0.00     0.113 C 
BRANCH  10  11
HETATM   11  N3  UNL     1      27.568  24.342  11.363  1.00  0.00    -0.420 N 
ATOM     12  H3  UNL     1      28.211  23.750  10.836  1.00  0.00     0.153 HD
BRANCH  11  13
HETATM   13  C9  UNL     1      27.382  25.720  11.062  1.00  0.00     0.133 C 
BRANCH  13  14
HETATM   14  C10 UNL     1      27.207  26.632  12.239  1.00  0.00     0.141 C 
BRANCH  14  15
HETATM   15  N4  UNL     1      28.476  27.183  12.690  1.00  0.00    -0.365 N 
HETATM   16  C11 UNL     1      28.862  27.040  13.928  1.00  0.00     0.197 C 
HETATM   17  N5  UNL     1      28.010  26.337  14.804  1.00  0.00    -0.067 NA
HETATM   18  N6  UNL     1      30.096  27.572  14.382  1.00  0.00    -0.067 NA
ATOM     19  H4  UNL     1      29.070  27.685  12.031  1.00  0.00     0.161 HD
ENDBRANCH  14  15
ENDBRANCH  13  14
ENDBRANCH  11  13
ENDBRANCH  10  11
ENDBRANCH   9  10
ENDBRANCH   8   9
ENDBRANCH   7   8
ENDBRANCH   6   7
ENDBRANCH   5   6
ENDBRANCH   2   5
BRANCH   2  20
HETATM   20  C12 UNL     1      31.921  19.064   8.816  1.00  0.00     0.257 C 
BRANCH  20  21
HETATM   21  C13 UNL     1      32.454  20.356   9.389  1.00  0.00     0.048 C 
BRANCH  21  22
HETATM   22  C14 UNL     1      33.735  20.095  10.173  1.00  0.00     0.116 C 
BRANCH  22  23
HETATM   23  N7  UNL     1      34.533  19.044   9.673  1.00  0.00    -0.415 N 
ATOM     24  H7  UNL     1      34.703  18.956   8.671  1.00  0.00     0.153 HD
BRANCH  23  25
HETATM   25  C15 UNL     1      35.096  18.112  10.580  1.00  0.00     0.190 C 
BRANCH  25  26
HETATM   26  C16 UNL     1      36.577  18.116  10.668  1.00  0.00     0.090 C 
HETATM   27  N8  UNL     1      37.178  17.240  11.446  1.00  0.00    -0.379 N 
HETATM   28  C17 UNL     1      38.627  17.224  11.551  1.00  0.00     0.122 C 
ATOM     29  H8  UNL     1      36.625  16.568  11.977  1.00  0.00     0.160 HD
HETATM   30  C18 UNL     1      39.190  18.629  11.567  1.00  0.00     0.039 C 
HETATM   31  C19 UNL     1      38.789  19.311  10.300  1.00  0.00     0.122 C 
HETATM   32  N9  UNL     1      37.419  19.004   9.976  1.00  0.00    -0.379 N 
ATOM     33  H9  UNL     1      37.022  19.477   9.166  1.00  0.00     0.160 HD
ENDBRANCH  25  26
ENDBRANCH  23  25
ENDBRANCH  22  23
ENDBRANCH  21  22
ENDBRANCH  20  21
ENDBRANCH   2  20
TORSDOF 16
ENDMDL
MODEL 5
REMARK VINA RESULT: -6.413669574      1.578     10.633
REMARK  16 active torsions:
REMARK  status: ('A' for Active; 'I' for Inactive)
REMARK    1  A    between atoms: N1_2  and  C3_5 
REMARK    2  A    between atoms: N1_2  and  C12_20 
REMARK    3  A    between atoms: C3_5  and  C4_6 
REMARK    4  A    between atoms: C4_6  and  C5_7 
REMARK    5  A    between atoms: C5_7  and  C6_8 
REMARK    6  A    between atoms: C6_8  and  C7_9 
REMARK    7  A    between atoms: C7_9  and  C8_10 
REMARK    8  A    between atoms: C8_10  and  N3_11 
REMARK    9  A    between atoms: N3_11  and  C9_13 
REMARK   10  A    between atoms: C9_13  and  C10_14 
REMARK   11  A    between atoms: C10_14  and  N4_15 
REMARK   12  A    between atoms: C12_20  and  C13_21 
REMARK   13  A    between atoms: C13_21  and  C14_22 
REMARK   14  A    between atoms: C14_22  and  N7_23 
REMARK   15  A    between atoms: N7_23  and  C15_25 
REMARK   16  A    between atoms: C15_25  and  C16_26 
ROOT
HETATM    1  C1  UNL     1      33.838  17.223   8.897  1.00  0.00     0.292 C 
HETATM    2  N1  UNL     1      33.982  18.567   9.420  1.00  0.00     0.016 N 
HETATM    3  C2  UNL     1      34.624  19.362   8.441  1.00  0.00     0.283 C 
HETATM    4  N2  UNL     1      35.142  20.000   7.628  1.00  0.00    -0.165 NA
ENDROOT
BRANCH   2   5
HETATM    5  C3  UNL     1      32.683  19.094   9.717  1.00  0.00     0.256 C 
BRANCH   5   6
HETATM    6  C4  UNL     1      31.545  18.438   8.966  1.00  0.00     0.029 C 
BRANCH   6   7
HETATM    7  C5  UNL     1      30.488  17.928   9.920  1.00  0.00     0.002 C 
BRANCH   7   8
HETATM    8  C6  UNL     1      29.210  18.669   9.922  1.00  0.00     0.002 C 
BRANCH   8   9
HETATM    9  C7  UNL     1      28.914  19.505  11.117  1.00  0.00     0.019 C 
BRANCH   9  10
HETATM   10  C8  UNL     1      28.069  20.729  10.791  1.00  0.00     0.113 C 
BRANCH  10  11
HETATM   11  N3  UNL     1      28.486  21.877  11.560  1.00  0.00    -0.420 N 
ATOM     12  H3  UNL     1      29.469  22.088  11.735  1.00  0.00     0.153 HD
BRANCH  11  13
HETATM   13  C9  UNL     1      27.433  22.694  12.057  1.00  0.00     0.133 C 
BRANCH  13  14
HETATM   14  C10 UNL     1      27.096  22.523  13.508  1.00  0.00     0.141 C 
BRANCH  14  15
HETATM   15  N4  UNL     1      25.801  21.887  13.693  1.00  0.00    -0.365 N 
HETATM   16  C11 UNL     1      25.714  20.607  13.927  1.00  0.00     0.197 C 
HETATM   17  N5  UNL     1      26.914  19.870  13.996  1.00  0.00    -0.067 NA
HETATM   18  N6  UNL     1      24.458  19.973  14.107  1.00  0.00    -0.067 NA
ATOM     19  H4  UNL     1      24.951  22.449  13.638  1.00  0.00     0.161 HD
ENDBRANCH  14  15
ENDBRANCH  13  14
ENDBRANCH  11  13
ENDBRANCH  10  11
ENDBRANCH   9  10
ENDBRANCH   8   9
ENDBRANCH   7   8
ENDBRANCH   6   7
ENDBRANCH   5   6
ENDBRANCH   2   5
BRANCH   2  20
HETATM   20  C12 UNL     1      34.820  18.526  10.611  1.00  0.00     0.257 C 
BRANCH  20  21
HETATM   21  C13 UNL     1      35.943  17.545  10.368  1.00  0.00     0.048 C 
BRANCH  21  22
HETATM   22  C14 UNL     1      37.281  18.175  10.731  1.00  0.00     0.116 C 
BRANCH  22  23
HETATM   23  N7  UNL     1      38.087  17.401  11.595  1.00  0.00    -0.415 N 
ATOM     24  H7  UNL     1      37.659  16.755  12.259  1.00  0.00     0.153 HD
BRANCH  23  25
HETATM   25  C15 UNL     1      39.495  17.531  11.527  1.00  0.00     0.190 C 
BRANCH  25  26
HETATM   26  C16 UNL     1      40.072  18.674  12.277  1.00  0.00     0.090 C 
HETATM   27  N8  UNL     1      40.388  18.519  13.546  1.00  0.00    -0.379 N 
HETATM   28  C17 UNL     1      40.952  19.624  14.302  1.00  0.00     0.122 C 
ATOM     29  H8  UNL     1      40.237  17.619  14.001  1.00  0.00     0.160 HD
HETATM   30  C18 UNL     1      40.290  20.934  13.935  1.00  0.00     0.039 C 
HETATM   31  C19 UNL     1      40.498  21.172  12.474  1.00  0.00     0.122 C 
HETATM   32  N9  UNL     1      40.313  19.949  11.736  1.00  0.00    -0.379 N 
ATOM     33  H9  UNL     1      40.361  20.015  10.719  1.00  0.00     0.160 HD
ENDBRANCH  25  26
ENDBRANCH  23  25
ENDBRANCH  22  23
ENDBRANCH  21  22
ENDBRANCH  20  21
ENDBRANCH   2  20
TORSDOF 16
ENDMDL
