MODEL 1
REMARK VINA RESULT: -8.075792378      0.000      0.000
REMARK  2 active torsions:
REMARK  status: ('A' for Active; 'I' for Inactive)
REMARK    1  A    between atoms: C3_3  and  N1_4 
REMARK       I    between atoms: N1_4  and  C4_6 
REMARK       I    between atoms: C4_6  and  N2_8 
REMARK       I    between atoms: N3_10  and  C6_11 
REMARK    2  A    between atoms: C6_11  and  C7_13 
ROOT
HETATM    1  C1  UNL     1      14.575  13.596  -1.432  1.00  0.00     0.014 C 
HETATM    2  C2  UNL     1      14.376  12.414  -1.567  1.00  0.00    -0.098 C 
HETATM    3  C3  UNL     1      14.152  10.959  -1.713  1.00  0.00     0.217 C 
ENDROOT
BRANCH   3   4
HETATM    4  N1  UNL     1      13.855  10.452  -0.404  1.00  0.00    -0.333 N 
HETATM    5  C4  UNL     1      12.539  10.154   0.028  1.00  0.00     0.320 C 
HETATM    6  O1  UNL     1      11.594  10.343  -0.773  1.00  0.00    -0.247 OA
HETATM    7  N2  UNL     1      12.243   9.656   1.313  1.00  0.00    -0.315 N 
HETATM    8  C5  UNL     1      10.891   9.356   1.738  1.00  0.00     0.257 C 
HETATM    9  C15 UNL     1      13.371   9.448   2.221  1.00  0.00     0.169 C 
HETATM   10  N3  UNL     1      10.666   9.744   3.119  1.00  0.00    -0.332 N 
HETATM   11  C6  UNL     1       9.361  10.126   3.497  1.00  0.00     0.225 C 
HETATM   12  C10 UNL     1      11.746   9.738   4.076  1.00  0.00     0.167 C 
HETATM   13  O2  UNL     1       8.422  10.124   2.653  1.00  0.00    -0.273 OA
HETATM   14  C11 UNL     1      12.878   8.925   3.554  1.00  0.00     0.093 C 
HETATM   15  C12 UNL     1      14.052   8.867   4.485  1.00  0.00     0.043 C 
HETATM   16  O3  UNL     1      12.481   7.611   3.449  1.00  0.00    -0.377 OA
HETATM   17  C13 UNL     1      13.658   7.757   5.445  1.00  0.00     0.029 C 
HETATM   18  C14 UNL     1      12.508   7.075   4.725  1.00  0.00     0.169 C 
ATOM     19  H1  UNL     1      14.627  10.300   0.246  1.00  0.00     0.165 HD
BRANCH  11  20
HETATM   20  C7  UNL     1       9.095  10.531   4.886  1.00  0.00     0.078 A 
HETATM   21  C8  UNL     1       8.577   9.501   5.835  1.00  0.00     0.015 A 
HETATM   22  C9  UNL     1       7.628  10.492   5.290  1.00  0.00     0.015 A 
ENDBRANCH  11  20
ENDBRANCH   3   4
TORSDOF 2
ENDMDL
MODEL 2
REMARK VINA RESULT: -7.948390664      1.948      6.096
REMARK  2 active torsions:
REMARK  status: ('A' for Active; 'I' for Inactive)
REMARK    1  A    between atoms: C3_3  and  N1_4 
REMARK       I    between atoms: N1_4  and  C4_6 
REMARK       I    between atoms: C4_6  and  N2_8 
REMARK       I    between atoms: N3_10  and  C6_11 
REMARK    2  A    between atoms: C6_11  and  C7_13 
ROOT
HETATM    1  C1  UNL     1       6.192  10.557   5.034  1.00  0.00     0.014 C 
HETATM    2  C2  UNL     1       6.435   9.928   4.034  1.00  0.00    -0.098 C 
HETATM    3  C3  UNL     1       6.740   9.181   2.795  1.00  0.00     0.217 C 
ENDROOT
BRANCH   3   4
HETATM    4  N1  UNL     1       8.068   9.554   2.401  1.00  0.00    -0.333 N 
HETATM    5  C4  UNL     1       9.144   8.634   2.347  1.00  0.00     0.320 C 
HETATM    6  O1  UNL     1       8.921   7.441   2.659  1.00  0.00    -0.247 OA
HETATM    7  N2  UNL     1      10.450   8.996   1.961  1.00  0.00    -0.315 N 
HETATM    8  C5  UNL     1      11.539   8.042   1.912  1.00  0.00     0.257 C 
HETATM    9  C15 UNL     1      10.672  10.397   1.604  1.00  0.00     0.169 C 
HETATM   10  N3  UNL     1      12.781   8.623   2.390  1.00  0.00    -0.332 N 
HETATM   11  C6  UNL     1      13.721   7.767   3.003  1.00  0.00     0.225 C 
HETATM   12  C10 UNL     1      13.045  10.033   2.242  1.00  0.00     0.167 C 
HETATM   13  O2  UNL     1      13.482   6.533   3.125  1.00  0.00    -0.273 OA
HETATM   14  C11 UNL     1      12.123  10.616   1.229  1.00  0.00     0.093 C 
HETATM   15  C12 UNL     1      12.324  12.086   1.012  1.00  0.00     0.043 C 
HETATM   16  O3  UNL     1      12.400  10.066  -0.003  1.00  0.00    -0.377 OA
HETATM   17  C13 UNL     1      13.479  12.121   0.026  1.00  0.00     0.029 C 
HETATM   18  C14 UNL     1      13.538  10.691  -0.482  1.00  0.00     0.169 C 
ATOM     19  H1  UNL     1       8.245  10.526   2.148  1.00  0.00     0.165 HD
BRANCH  11  20
HETATM   20  C7  UNL     1      14.988   8.320   3.506  1.00  0.00     0.078 A 
HETATM   21  C8  UNL     1      15.847   7.451   4.364  1.00  0.00     0.015 A 
HETATM   22  C9  UNL     1      15.046   8.506   5.016  1.00  0.00     0.015 A 
ENDBRANCH  11  20
ENDBRANCH   3   4
TORSDOF 2
ENDMDL
MODEL 3
REMARK VINA RESULT: -7.810200069      2.730      6.527
REMARK  2 active torsions:
REMARK  status: ('A' for Active; 'I' for Inactive)
REMARK    1  A    between atoms: C3_3  and  N1_4 
REMARK       I    between atoms: N1_4  and  C4_6 
REMARK       I    between atoms: C4_6  and  N2_8 
REMARK       I    between atoms: N3_10  and  C6_11 
REMARK    2  A    between atoms: C6_11  and  C7_13 
ROOT
HETATM    1  C1  UNL     1       8.498   8.411   5.432  1.00  0.00     0.014 C 
HETATM    2  C2  UNL     1       8.902   7.898   4.419  1.00  0.00    -0.098 C 
HETATM    3  C3  UNL     1       9.412   7.292   3.170  1.00  0.00     0.217 C 
ENDROOT
BRANCH   3   4
HETATM    4  N1  UNL     1      10.844   7.345   3.237  1.00  0.00    -0.333 N 
HETATM    5  C4  UNL     1      11.614   8.304   2.533  1.00  0.00     0.320 C 
HETATM    6  O1  UNL     1      11.013   9.140   1.820  1.00  0.00    -0.247 OA
HETATM    7  N2  UNL     1      13.021   8.360   2.597  1.00  0.00    -0.315 N 
HETATM    8  C5  UNL     1      13.793   9.346   1.870  1.00  0.00     0.257 C 
HETATM    9  C15 UNL     1      13.688   7.367   3.439  1.00  0.00     0.169 C 
HETATM   10  N3  UNL     1      15.012   8.776   1.324  1.00  0.00    -0.332 N 
HETATM   11  C6  UNL     1      15.528   9.329   0.133  1.00  0.00     0.225 C 
HETATM   12  C10 UNL     1      15.675   7.677   1.982  1.00  0.00     0.167 C 
HETATM   13  O2  UNL     1      14.942  10.294  -0.434  1.00  0.00    -0.273 OA
HETATM   14  C11 UNL     1      15.189   7.560   3.384  1.00  0.00     0.093 C 
HETATM   15  C12 UNL     1      15.824   6.435   4.146  1.00  0.00     0.043 C 
HETATM   16  O3  UNL     1      15.566   8.682   4.088  1.00  0.00    -0.377 OA
HETATM   17  C13 UNL     1      17.130   7.051   4.618  1.00  0.00     0.029 C 
HETATM   18  C14 UNL     1      16.907   8.537   4.398  1.00  0.00     0.169 C 
ATOM     19  H1  UNL     1      11.329   6.663   3.819  1.00  0.00     0.165 HD
BRANCH  11  20
HETATM   20  C7  UNL     1      16.757   8.774  -0.454  1.00  0.00     0.078 A 
HETATM   21  C8  UNL     1      17.140   9.205  -1.832  1.00  0.00     0.015 A 
HETATM   22  C9  UNL     1      16.535   7.869  -1.659  1.00  0.00     0.015 A 
ENDBRANCH  11  20
ENDBRANCH   3   4
TORSDOF 2
ENDMDL
MODEL 4
REMARK VINA RESULT: -7.787691463      2.647      6.436
REMARK  2 active torsions:
REMARK  status: ('A' for Active; 'I' for Inactive)
REMARK    1  A    between atoms: C3_3  and  N1_4 
REMARK       I    between atoms: N1_4  and  C4_6 
REMARK       I    between atoms: C4_6  and  N2_8 
REMARK       I    between atoms: N3_10  and  C6_11 
REMARK    2  A    between atoms: C6_11  and  C7_13 
ROOT
HETATM    1  C1  UNL     1       7.586   8.684   2.977  1.00  0.00     0.014 C 
HETATM    2  C2  UNL     1       8.287   9.099   2.087  1.00  0.00    -0.098 C 
HETATM    3  C3  UNL     1       9.163   9.620   1.016  1.00  0.00     0.217 C 
ENDROOT
BRANCH   3   4
HETATM    4  N1  UNL     1      10.490   9.157   1.303  1.00  0.00    -0.333 N 
HETATM    5  C4  UNL     1      11.655   9.862   0.911  1.00  0.00     0.320 C 
HETATM    6  O1  UNL     1      11.515  10.938   0.284  1.00  0.00    -0.247 OA
HETATM    7  N2  UNL     1      12.961   9.411   1.191  1.00  0.00    -0.315 N 
HETATM    8  C5  UNL     1      14.140  10.145   0.782  1.00  0.00     0.257 C 
HETATM    9  C15 UNL     1      13.085   8.151   1.925  1.00  0.00     0.169 C 
HETATM   10  N3  UNL     1      15.193   9.254   0.327  1.00  0.00    -0.332 N 
HETATM   11  C6  UNL     1      16.090   9.733  -0.651  1.00  0.00     0.225 C 
HETATM   12  C10 UNL     1      15.317   7.920   0.860  1.00  0.00     0.167 C 
HETATM   13  O2  UNL     1      15.976  10.904  -1.109  1.00  0.00    -0.273 OA
HETATM   14  C11 UNL     1      14.546   7.809   2.128  1.00  0.00     0.093 C 
HETATM   15  C12 UNL     1      14.615   6.448   2.754  1.00  0.00     0.043 C 
HETATM   16  O3  UNL     1      15.115   8.631   3.076  1.00  0.00    -0.377 OA
HETATM   17  C13 UNL     1      15.926   6.501   3.520  1.00  0.00     0.029 C 
HETATM   18  C14 UNL     1      16.244   7.986   3.550  1.00  0.00     0.169 C 
ATOM     19  H1  UNL     1      10.600   8.281   1.813  1.00  0.00     0.165 HD
BRANCH  11  20
HETATM   20  C7  UNL     1      17.166   8.858  -1.142  1.00  0.00     0.078 A 
HETATM   21  C8  UNL     1      17.857   9.232  -2.412  1.00  0.00     0.015 A 
HETATM   22  C9  UNL     1      16.859   8.145  -2.452  1.00  0.00     0.015 A 
ENDBRANCH  11  20
ENDBRANCH   3   4
TORSDOF 2
ENDMDL
MODEL 5
REMARK VINA RESULT: -7.786596494      0.930      1.271
REMARK  2 active torsions:
REMARK  status: ('A' for Active; 'I' for Inactive)
REMARK    1  A    between atoms: C3_3  and  N1_4 
REMARK       I    between atoms: N1_4  and  C4_6 
REMARK       I    between atoms: C4_6  and  N2_8 
REMARK       I    between atoms: N3_10  and  C6_11 
REMARK    2  A    between atoms: C6_11  and  C7_13 
ROOT
HETATM    1  C1  UNL     1      15.367  10.228  -2.551  1.00  0.00     0.014 C 
HETATM    2  C2  UNL     1      14.665  10.944  -1.881  1.00  0.00    -0.098 C 
HETATM    3  C3  UNL     1      13.787  11.803  -1.058  1.00  0.00     0.217 C 
ENDROOT
BRANCH   3   4
HETATM    4  N1  UNL     1      13.505  11.075   0.146  1.00  0.00    -0.333 N 
HETATM    5  C4  UNL     1      12.334  10.296   0.321  1.00  0.00     0.320 C 
HETATM    6  O1  UNL     1      11.509  10.245  -0.621  1.00  0.00    -0.247 OA
HETATM    7  N2  UNL     1      12.053   9.579   1.502  1.00  0.00    -0.315 N 
HETATM    8  C5  UNL     1      10.851   8.789   1.663  1.00  0.00     0.257 C 
HETATM    9  C15 UNL     1      13.039   9.663   2.579  1.00  0.00     0.169 C 
HETATM   10  N3  UNL     1      10.307   8.910   3.004  1.00  0.00    -0.332 N 
HETATM   11  C6  UNL     1       8.912   8.777   3.169  1.00  0.00     0.225 C 
HETATM   12  C10 UNL     1      11.168   9.160   4.133  1.00  0.00     0.167 C 
HETATM   13  O2  UNL     1       8.166   8.555   2.174  1.00  0.00    -0.273 OA
HETATM   14  C11 UNL     1      12.578   8.851   3.771  1.00  0.00     0.093 C 
HETATM   15  C12 UNL     1      13.550   9.087   4.890  1.00  0.00     0.043 C 
HETATM   16  O3  UNL     1      12.695   7.502   3.520  1.00  0.00    -0.377 OA
HETATM   17  C13 UNL     1      13.443   7.804   5.697  1.00  0.00     0.029 C 
HETATM   18  C14 UNL     1      12.728   6.861   4.747  1.00  0.00     0.169 C 
ATOM     19  H1  UNL     1      14.179  11.119   0.911  1.00  0.00     0.165 HD
BRANCH  11  20
HETATM   20  C7  UNL     1       8.323   8.901   4.511  1.00  0.00     0.078 A 
HETATM   21  C8  UNL     1       6.870   9.231   4.617  1.00  0.00     0.015 A 
HETATM   22  C9  UNL     1       7.853  10.303   4.873  1.00  0.00     0.015 A 
ENDBRANCH  11  20
ENDBRANCH   3   4
TORSDOF 2
ENDMDL
