MODEL 1
REMARK VINA RESULT: -6.967301982      0.000      0.000
REMARK  5 active torsions:
REMARK  status: ('A' for Active; 'I' for Inactive)
REMARK    1  A    between atoms: C3_3  and  N1_4 
REMARK    2  A    between atoms: C6_7  and  C7_8 
REMARK    3  A    between atoms: C7_8  and  C8_9 
REMARK    4  A    between atoms: C8_9  and  N2_10 
REMARK    5  A    between atoms: C12_14  and  C13_15 
ROOT
HETATM    1  C1  UNL     1       3.889   9.944   5.140  1.00  0.00     0.013 C 
HETATM    2  C2  UNL     1       5.080  10.076   5.072  1.00  0.00    -0.087 C 
HETATM    3  C3  UNL     1       6.537  10.226   5.012  1.00  0.00     0.364 C 
ENDROOT
BRANCH   3   4
HETATM    4  N1  UNL     1       7.007   9.381   3.955  1.00  0.00     0.099 N 
HETATM    5  C4  UNL     1       6.600   9.901   2.692  1.00  0.00     0.274 C 
HETATM    6  C5  UNL     1       7.787   9.640   1.751  1.00  0.00     0.036 C 
HETATM    7  C6  UNL     1       8.919   9.995   2.712  1.00  0.00     0.017 C 
HETATM    8  C15 UNL     1       8.476   9.279   3.941  1.00  0.00     0.278 C 
BRANCH   7   9
HETATM    9  C7  UNL     1      10.254   9.633   2.186  1.00  0.00     0.036 C 
BRANCH   9  10
HETATM   10  C8  UNL     1      11.403   9.982   3.068  1.00  0.00     0.273 C 
BRANCH  10  11
HETATM   11  N2  UNL     1      12.478   9.039   2.949  1.00  0.00     0.090 N 
HETATM   12  C9  UNL     1      13.558   9.289   3.893  1.00  0.00     0.278 C 
HETATM   13  C10 UNL     1      13.336   8.208   4.883  1.00  0.00     0.034 A 
HETATM   14  C11 UNL     1      13.742   6.876   5.050  1.00  0.00     0.028 A 
HETATM   15  C12 UNL     1      13.292   7.115   3.733  1.00  0.00     0.070 A 
HETATM   16  C14 UNL     1      12.021   7.654   3.191  1.00  0.00     0.291 C 
BRANCH  15  17
HETATM   17  C13 UNL     1      14.381   7.220   2.702  1.00  0.00     0.242 C 
HETATM   18  N3  UNL     1      15.747   7.091   3.077  1.00  0.00    -0.061 NA
HETATM   19  O1  UNL     1      14.181   7.421   1.478  1.00  0.00    -0.276 OA
ENDBRANCH  15  17
ENDBRANCH  10  11
ENDBRANCH   9  10
ENDBRANCH   7   9
ENDBRANCH   3   4
TORSDOF 5
ENDMDL
MODEL 2
REMARK VINA RESULT: -6.938746323      1.679      2.225
REMARK  5 active torsions:
REMARK  status: ('A' for Active; 'I' for Inactive)
REMARK    1  A    between atoms: C3_3  and  N1_4 
REMARK    2  A    between atoms: C6_7  and  C7_8 
REMARK    3  A    between atoms: C7_8  and  C8_9 
REMARK    4  A    between atoms: C8_9  and  N2_10 
REMARK    5  A    between atoms: C12_14  and  C13_15 
ROOT
HETATM    1  C1  UNL     1       5.661  10.139   4.980  1.00  0.00     0.013 C 
HETATM    2  C2  UNL     1       6.837  10.375   5.010  1.00  0.00    -0.087 C 
HETATM    3  C3  UNL     1       8.274  10.657   5.073  1.00  0.00     0.364 C 
ENDROOT
BRANCH   3   4
HETATM    4  N1  UNL     1       8.930   9.699   4.233  1.00  0.00     0.099 N 
HETATM    5  C4  UNL     1       8.773  10.056   2.863  1.00  0.00     0.274 C 
HETATM    6  C5  UNL     1      10.114   9.705   2.201  1.00  0.00     0.036 C 
HETATM    7  C6  UNL     1      11.046  10.192   3.308  1.00  0.00     0.017 C 
HETATM    8  C15 UNL     1      10.375   9.621   4.509  1.00  0.00     0.278 C 
BRANCH   7   9
HETATM    9  C7  UNL     1      12.454   9.792   3.090  1.00  0.00     0.036 C 
BRANCH   9  10
HETATM   10  C8  UNL     1      12.681   8.330   2.907  1.00  0.00     0.273 C 
BRANCH  10  11
HETATM   11  N2  UNL     1      14.077   8.010   2.815  1.00  0.00     0.090 N 
HETATM   12  C9  UNL     1      14.866   8.608   3.883  1.00  0.00     0.278 C 
HETATM   13  C10 UNL     1      15.129   7.431   4.745  1.00  0.00     0.034 A 
HETATM   14  C11 UNL     1      16.103   6.426   4.834  1.00  0.00     0.028 A 
HETATM   15  C12 UNL     1      15.659   6.595   3.504  1.00  0.00     0.070 A 
HETATM   16  C14 UNL     1      14.311   6.552   2.886  1.00  0.00     0.291 C 
BRANCH  15  17
HETATM   17  C13 UNL     1      16.620   7.319   2.603  1.00  0.00     0.242 C 
HETATM   18  N3  UNL     1      16.540   7.169   1.191  1.00  0.00    -0.061 NA
HETATM   19  O1  UNL     1      17.532   8.082   3.007  1.00  0.00    -0.276 OA
ENDBRANCH  15  17
ENDBRANCH  10  11
ENDBRANCH   9  10
ENDBRANCH   7   9
ENDBRANCH   3   4
TORSDOF 5
ENDMDL
MODEL 3
REMARK VINA RESULT: -6.884845844      1.479      1.956
REMARK  5 active torsions:
REMARK  status: ('A' for Active; 'I' for Inactive)
REMARK    1  A    between atoms: C3_3  and  N1_4 
REMARK    2  A    between atoms: C6_7  and  C7_8 
REMARK    3  A    between atoms: C7_8  and  C8_9 
REMARK    4  A    between atoms: C8_9  and  N2_10 
REMARK    5  A    between atoms: C12_14  and  C13_15 
ROOT
HETATM    1  C1  UNL     1       3.693   9.941   5.105  1.00  0.00     0.013 C 
HETATM    2  C2  UNL     1       4.879  10.117   5.077  1.00  0.00    -0.087 C 
HETATM    3  C3  UNL     1       6.331  10.324   5.068  1.00  0.00     0.364 C 
ENDROOT
BRANCH   3   4
HETATM    4  N1  UNL     1       6.890   9.360   4.168  1.00  0.00     0.099 N 
HETATM    5  C4  UNL     1       6.654   9.752   2.819  1.00  0.00     0.274 C 
HETATM    6  C5  UNL     1       7.933   9.364   2.060  1.00  0.00     0.036 C 
HETATM    7  C6  UNL     1       8.956   9.792   3.108  1.00  0.00     0.017 C 
HETATM    8  C15 UNL     1       8.346   9.222   4.342  1.00  0.00     0.278 C 
BRANCH   7   9
HETATM    9  C7  UNL     1      10.329   9.344   2.787  1.00  0.00     0.036 C 
BRANCH   9  10
HETATM   10  C8  UNL     1      10.771   8.099   3.477  1.00  0.00     0.273 C 
BRANCH  10  11
HETATM   11  N2  UNL     1      12.127   8.194   3.941  1.00  0.00     0.090 N 
HETATM   12  C9  UNL     1      12.934   7.041   3.567  1.00  0.00     0.278 C 
HETATM   13  C10 UNL     1      13.758   7.605   2.473  1.00  0.00     0.034 A 
HETATM   14  C11 UNL     1      14.986   8.274   2.357  1.00  0.00     0.028 A 
HETATM   15  C12 UNL     1      14.190   8.833   3.381  1.00  0.00     0.070 A 
HETATM   16  C14 UNL     1      12.811   9.382   3.389  1.00  0.00     0.291 C 
BRANCH  15  17
HETATM   17  C13 UNL     1      14.617   8.483   4.779  1.00  0.00     0.242 C 
HETATM   18  N3  UNL     1      14.198   9.274   5.883  1.00  0.00    -0.061 NA
HETATM   19  O1  UNL     1      15.347   7.503   5.071  1.00  0.00    -0.276 OA
ENDBRANCH  15  17
ENDBRANCH  10  11
ENDBRANCH   9  10
ENDBRANCH   7   9
ENDBRANCH   3   4
TORSDOF 5
ENDMDL
MODEL 4
REMARK VINA RESULT: -6.867022257      1.844      2.280
REMARK  5 active torsions:
REMARK  status: ('A' for Active; 'I' for Inactive)
REMARK    1  A    between atoms: C3_3  and  N1_4 
REMARK    2  A    between atoms: C6_7  and  C7_8 
REMARK    3  A    between atoms: C7_8  and  C8_9 
REMARK    4  A    between atoms: C8_9  and  N2_10 
REMARK    5  A    between atoms: C12_14  and  C13_15 
ROOT
HETATM    1  C1  UNL     1       5.104  10.300   5.118  1.00  0.00     0.013 C 
HETATM    2  C2  UNL     1       6.284  10.451   4.954  1.00  0.00    -0.087 C 
HETATM    3  C3  UNL     1       7.724  10.651   4.773  1.00  0.00     0.364 C 
ENDROOT
BRANCH   3   4
HETATM    4  N1  UNL     1       8.367   9.410   5.085  1.00  0.00     0.099 N 
HETATM    5  C4  UNL     1       7.946   8.396   4.176  1.00  0.00     0.274 C 
HETATM    6  C5  UNL     1       9.202   7.551   3.909  1.00  0.00     0.036 C 
HETATM    7  C6  UNL     1      10.220   8.685   3.812  1.00  0.00     0.017 C 
HETATM    8  C15 UNL     1       9.833   9.508   4.992  1.00  0.00     0.278 C 
BRANCH   7   9
HETATM    9  C7  UNL     1      11.617   8.200   3.778  1.00  0.00     0.036 C 
BRANCH   9  10
HETATM   10  C8  UNL     1      12.600   9.037   4.523  1.00  0.00     0.273 C 
BRANCH  10  11
HETATM   11  N2  UNL     1      13.941   8.839   4.051  1.00  0.00     0.090 N 
HETATM   12  C9  UNL     1      14.892   8.605   5.129  1.00  0.00     0.278 C 
HETATM   13  C10 UNL     1      15.126   7.147   5.000  1.00  0.00     0.034 A 
HETATM   14  C11 UNL     1      16.001   6.311   4.291  1.00  0.00     0.028 A 
HETATM   15  C12 UNL     1      15.440   7.298   3.451  1.00  0.00     0.070 A 
HETATM   16  C14 UNL     1      14.037   7.673   3.147  1.00  0.00     0.291 C 
BRANCH  15  17
HETATM   17  C13 UNL     1      16.368   8.423   3.088  1.00  0.00     0.242 C 
HETATM   18  N3  UNL     1      16.107   9.238   1.952  1.00  0.00    -0.061 NA
HETATM   19  O1  UNL     1      17.405   8.721   3.731  1.00  0.00    -0.276 OA
ENDBRANCH  15  17
ENDBRANCH  10  11
ENDBRANCH   9  10
ENDBRANCH   7   9
ENDBRANCH   3   4
TORSDOF 5
ENDMDL
MODEL 5
REMARK VINA RESULT: -6.854791199      5.463      8.145
REMARK  5 active torsions:
REMARK  status: ('A' for Active; 'I' for Inactive)
REMARK    1  A    between atoms: C3_3  and  N1_4 
REMARK    2  A    between atoms: C6_7  and  C7_8 
REMARK    3  A    between atoms: C7_8  and  C8_9 
REMARK    4  A    between atoms: C8_9  and  N2_10 
REMARK    5  A    between atoms: C12_14  and  C13_15 
ROOT
HETATM    1  C1  UNL     1      13.603   9.519   5.844  1.00  0.00     0.013 C 
HETATM    2  C2  UNL     1      14.150   8.658   5.213  1.00  0.00    -0.087 C 
HETATM    3  C3  UNL     1      14.795   7.595   4.436  1.00  0.00     0.364 C 
ENDROOT
BRANCH   3   4
HETATM    4  N1  UNL     1      15.330   8.199   3.253  1.00  0.00     0.099 N 
HETATM    5  C4  UNL     1      16.667   7.756   3.036  1.00  0.00     0.274 C 
HETATM    6  C5  UNL     1      16.793   7.596   1.513  1.00  0.00     0.036 C 
HETATM    7  C6  UNL     1      15.428   6.972   1.238  1.00  0.00     0.017 C 
HETATM    8  C15 UNL     1      14.548   7.855   2.054  1.00  0.00     0.278 C 
BRANCH   7   9
HETATM    9  C7  UNL     1      15.115   6.887  -0.206  1.00  0.00     0.036 C 
BRANCH   9  10
HETATM   10  C8  UNL     1      16.058   7.610  -1.105  1.00  0.00     0.273 C 
BRANCH  10  11
HETATM   11  N2  UNL     1      15.371   8.304  -2.157  1.00  0.00     0.090 N 
HETATM   12  C9  UNL     1      15.983   9.585  -2.485  1.00  0.00     0.278 C 
HETATM   13  C10 UNL     1      16.657   9.266  -3.766  1.00  0.00     0.034 A 
HETATM   14  C11 UNL     1      16.324   9.283  -5.128  1.00  0.00     0.028 A 
HETATM   15  C12 UNL     1      15.318   8.656  -4.360  1.00  0.00     0.070 A 
HETATM   16  C14 UNL     1      15.348   7.518  -3.409  1.00  0.00     0.291 C 
BRANCH  15  17
HETATM   17  C13 UNL     1      14.080   9.481  -4.142  1.00  0.00     0.242 C 
HETATM   18  N3  UNL     1      12.867   8.869  -3.725  1.00  0.00    -0.061 NA
HETATM   19  O1  UNL     1      14.022  10.726  -4.303  1.00  0.00    -0.276 OA
ENDBRANCH  15  17
ENDBRANCH  10  11
ENDBRANCH   9  10
ENDBRANCH   7   9
ENDBRANCH   3   4
TORSDOF 5
ENDMDL
