MODEL 1
REMARK VINA RESULT: -7.115302557      0.000      0.000
REMARK  17 active torsions:
REMARK  status: ('A' for Active; 'I' for Inactive)
REMARK    1  A    between atoms: C2_2  and  S1_3 
REMARK    2  A    between atoms: S1_3  and  C3_4 
REMARK    3  A    between atoms: C3_4  and  C4_5 
REMARK    4  A    between atoms: C4_5  and  C5_6 
REMARK    5  A    between atoms: C5_6  and  C6_7 
REMARK    6  A    between atoms: C6_7  and  C7_8 
REMARK    7  A    between atoms: C6_7  and  C9_10 
REMARK    8  A    between atoms: C14_15  and  N1_16 
REMARK    9  A    between atoms: N1_16  and  C15_19 
REMARK   10  A    between atoms: C15_19  and  O1_20 
REMARK   11  A    between atoms: C15_19  and  C16_22 
REMARK   12  A    between atoms: C16_22  and  O2_23 
REMARK   13  A    between atoms: O2_23  and  C17_24 
REMARK   14  A    between atoms: C17_24  and  C18_26 
REMARK   15  A    between atoms: C18_26  and  N2_27 
REMARK   16  A    between atoms: C18_26  and  C19_31 
REMARK   17  A    between atoms: C19_31  and  O4_32 
ROOT
HETATM    1  N1  UNL     1      15.241  36.390  60.589  1.00  0.00    -0.043 N 
ATOM      2  H11 UNL     1      15.439  35.435  60.890  1.00  0.00     0.280 HD
ATOM      3  H12 UNL     1      14.536  36.188  59.881  1.00  0.00     0.280 HD
ENDROOT
BRANCH   1   4
HETATM    4  C14 UNL     1      16.401  37.012  60.016  1.00  0.00     0.189 C 
HETATM    5  C13 UNL     1      17.583  36.784  60.885  1.00  0.00     0.034 C 
HETATM    6  C12 UNL     1      18.529  35.876  60.115  1.00  0.00     0.012 C 
HETATM    7  C4  UNL     1      18.159  36.026  58.653  1.00  0.00    -0.030 C 
HETATM    8  C20 UNL     1      16.749  36.514  58.629  1.00  0.00     0.043 C 
BRANCH   7   9
HETATM    9  C3  UNL     1      18.073  34.603  58.046  1.00  0.00     0.083 C 
BRANCH   9  10
HETATM   10  S1  UNL     1      18.344  34.478  56.329  1.00  0.00    -0.169 SA
BRANCH  10  11
HETATM   11  C2  UNL     1      16.885  34.309  55.332  1.00  0.00     0.069 C 
HETATM   12  C1  UNL     1      15.777  33.775  56.276  1.00  0.00     0.016 C 
ENDBRANCH  10  11
ENDBRANCH   9  10
ENDBRANCH   7   9
BRANCH   7  13
HETATM   13  C5  UNL     1      19.165  36.741  57.839  1.00  0.00     0.015 C 
BRANCH  13  14
HETATM   14  C6  UNL     1      19.893  37.898  58.340  1.00  0.00    -0.011 C 
BRANCH  14  15
HETATM   15  C7  UNL     1      19.670  39.258  57.844  1.00  0.00     0.000 C 
HETATM   16  C8  UNL     1      18.235  39.739  57.898  1.00  0.00     0.005 C 
ENDBRANCH  14  15
BRANCH  14  17
HETATM   17  C9  UNL     1      21.400  37.590  58.433  1.00  0.00    -0.019 C 
HETATM   18  C10 UNL     1      21.704  36.172  58.074  1.00  0.00     0.010 C 
HETATM   19  C11 UNL     1      21.990  37.950  59.757  1.00  0.00     0.010 C 
ENDBRANCH  14  17
ENDBRANCH  13  14
ENDBRANCH   7  13
ENDBRANCH   1   4
BRANCH   1  20
HETATM   20  C15 UNL     1      14.691  37.198  61.683  1.00  0.00     0.343 C 
BRANCH  20  21
HETATM   21  O1  UNL     1      14.408  36.423  62.771  1.00  0.00    -0.368 OA
ATOM     22  H1  UNL     1      15.006  36.606  63.486  1.00  0.00     0.212 HD
ENDBRANCH  20  21
BRANCH  20  23
HETATM   23  C16 UNL     1      13.471  37.872  61.133  1.00  0.00     0.239 C 
BRANCH  23  24
HETATM   24  O2  UNL     1      12.425  38.032  61.990  1.00  0.00    -0.315 OA
BRANCH  24  25
HETATM   25  C17 UNL     1      11.254  37.387  62.092  1.00  0.00     0.291 C 
HETATM   26  O3  UNL     1      11.179  36.259  62.606  1.00  0.00    -0.263 OA
BRANCH  25  27
HETATM   27  C18 UNL     1       9.973  38.009  61.585  1.00  0.00     0.305 C 
BRANCH  27  28
HETATM   28  N2  UNL     1       9.002  37.962  62.644  1.00  0.00    -0.064 N 
ATOM     29  H23 UNL     1       8.572  37.043  62.743  1.00  0.00     0.275 HD
ATOM     30  H22 UNL     1       9.427  38.016  63.570  1.00  0.00     0.275 HD
ATOM     31  H21 UNL     1       8.318  38.702  62.482  1.00  0.00     0.275 HD
ENDBRANCH  27  28
BRANCH  27  32
HETATM   32  C19 UNL     1      10.282  39.429  61.190  1.00  0.00     0.207 C 
BRANCH  32  33
HETATM   33  O4  UNL     1       9.151  40.230  61.378  1.00  0.00    -0.398 OA
ATOM     34  H4  UNL     1       9.232  41.027  60.867  1.00  0.00     0.209 HD
ENDBRANCH  32  33
ENDBRANCH  27  32
ENDBRANCH  25  27
ENDBRANCH  24  25
ENDBRANCH  23  24
ENDBRANCH  20  23
ENDBRANCH   1  20
TORSDOF 17
ENDMDL
MODEL 2
REMARK VINA RESULT: -7.100073886      0.855      1.596
REMARK  17 active torsions:
REMARK  status: ('A' for Active; 'I' for Inactive)
REMARK    1  A    between atoms: C2_2  and  S1_3 
REMARK    2  A    between atoms: S1_3  and  C3_4 
REMARK    3  A    between atoms: C3_4  and  C4_5 
REMARK    4  A    between atoms: C4_5  and  C5_6 
REMARK    5  A    between atoms: C5_6  and  C6_7 
REMARK    6  A    between atoms: C6_7  and  C7_8 
REMARK    7  A    between atoms: C6_7  and  C9_10 
REMARK    8  A    between atoms: C14_15  and  N1_16 
REMARK    9  A    between atoms: N1_16  and  C15_19 
REMARK   10  A    between atoms: C15_19  and  O1_20 
REMARK   11  A    between atoms: C15_19  and  C16_22 
REMARK   12  A    between atoms: C16_22  and  O2_23 
REMARK   13  A    between atoms: O2_23  and  C17_24 
REMARK   14  A    between atoms: C17_24  and  C18_26 
REMARK   15  A    between atoms: C18_26  and  N2_27 
REMARK   16  A    between atoms: C18_26  and  C19_31 
REMARK   17  A    between atoms: C19_31  and  O4_32 
ROOT
HETATM    1  N1  UNL     1      15.235  36.489  60.532  1.00  0.00    -0.043 N 
ATOM      2  H11 UNL     1      15.350  35.513  60.806  1.00  0.00     0.280 HD
ATOM      3  H12 UNL     1      14.516  36.367  59.819  1.00  0.00     0.280 HD
ENDROOT
BRANCH   1   4
HETATM    4  C14 UNL     1      16.444  37.026  59.976  1.00  0.00     0.189 C 
HETATM    5  C13 UNL     1      17.608  36.627  60.807  1.00  0.00     0.034 C 
HETATM    6  C12 UNL     1      18.447  35.678  59.966  1.00  0.00     0.012 C 
HETATM    7  C4  UNL     1      18.076  35.956  58.523  1.00  0.00    -0.030 C 
HETATM    8  C20 UNL     1      16.723  36.583  58.555  1.00  0.00     0.043 C 
BRANCH   7   9
HETATM    9  C3  UNL     1      17.839  34.590  57.832  1.00  0.00     0.083 C 
BRANCH   9  10
HETATM   10  S1  UNL     1      16.569  34.537  56.640  1.00  0.00    -0.169 SA
BRANCH  10  11
HETATM   11  C2  UNL     1      17.037  35.019  54.997  1.00  0.00     0.069 C 
HETATM   12  C1  UNL     1      16.589  36.495  54.837  1.00  0.00     0.016 C 
ENDBRANCH  10  11
ENDBRANCH   9  10
ENDBRANCH   7   9
BRANCH   7  13
HETATM   13  C5  UNL     1      19.139  36.616  57.736  1.00  0.00     0.015 C 
BRANCH  13  14
HETATM   14  C6  UNL     1      19.876  37.768  58.234  1.00  0.00    -0.011 C 
BRANCH  14  15
HETATM   15  C7  UNL     1      19.719  39.116  57.683  1.00  0.00     0.000 C 
HETATM   16  C8  UNL     1      18.346  39.731  57.860  1.00  0.00     0.005 C 
ENDBRANCH  14  15
BRANCH  14  17
HETATM   17  C9  UNL     1      21.368  37.420  58.411  1.00  0.00    -0.019 C 
HETATM   18  C10 UNL     1      21.654  35.994  58.070  1.00  0.00     0.010 C 
HETATM   19  C11 UNL     1      21.892  37.768  59.765  1.00  0.00     0.010 C 
ENDBRANCH  14  17
ENDBRANCH  13  14
ENDBRANCH   7  13
ENDBRANCH   1   4
BRANCH   1  20
HETATM   20  C15 UNL     1      14.753  37.309  61.649  1.00  0.00     0.343 C 
BRANCH  20  21
HETATM   21  O1  UNL     1      14.383  36.529  62.707  1.00  0.00    -0.368 OA
ATOM     22  H1  UNL     1      13.967  37.048  63.385  1.00  0.00     0.212 HD
ENDBRANCH  20  21
BRANCH  20  23
HETATM   23  C16 UNL     1      13.611  38.118  61.112  1.00  0.00     0.239 C 
BRANCH  23  24
HETATM   24  O2  UNL     1      12.494  38.183  61.888  1.00  0.00    -0.315 OA
BRANCH  24  25
HETATM   25  C17 UNL     1      11.235  38.541  61.603  1.00  0.00     0.291 C 
HETATM   26  O3  UNL     1      10.985  39.572  60.956  1.00  0.00    -0.263 OA
BRANCH  25  27
HETATM   27  C18 UNL     1      10.061  37.701  62.056  1.00  0.00     0.305 C 
BRANCH  27  28
HETATM   28  N2  UNL     1       8.933  38.023  61.226  1.00  0.00    -0.064 N 
ATOM     29  H23 UNL     1       8.792  39.028  61.125  1.00  0.00     0.275 HD
ATOM     30  H22 UNL     1       9.094  37.807  60.242  1.00  0.00     0.275 HD
ATOM     31  H21 UNL     1       8.114  37.546  61.604  1.00  0.00     0.275 HD
ENDBRANCH  27  28
BRANCH  27  32
HETATM   32  C19 UNL     1      10.454  36.256  61.908  1.00  0.00     0.207 C 
BRANCH  32  33
HETATM   33  O4  UNL     1      11.390  35.916  62.889  1.00  0.00    -0.398 OA
ATOM     34  H4  UNL     1      11.466  34.971  62.949  1.00  0.00     0.209 HD
ENDBRANCH  32  33
ENDBRANCH  27  32
ENDBRANCH  25  27
ENDBRANCH  24  25
ENDBRANCH  23  24
ENDBRANCH  20  23
ENDBRANCH   1  20
TORSDOF 17
ENDMDL
MODEL 3
REMARK VINA RESULT: -7.098634739      2.848      4.070
REMARK  17 active torsions:
REMARK  status: ('A' for Active; 'I' for Inactive)
REMARK    1  A    between atoms: C2_2  and  S1_3 
REMARK    2  A    between atoms: S1_3  and  C3_4 
REMARK    3  A    between atoms: C3_4  and  C4_5 
REMARK    4  A    between atoms: C4_5  and  C5_6 
REMARK    5  A    between atoms: C5_6  and  C6_7 
REMARK    6  A    between atoms: C6_7  and  C7_8 
REMARK    7  A    between atoms: C6_7  and  C9_10 
REMARK    8  A    between atoms: C14_15  and  N1_16 
REMARK    9  A    between atoms: N1_16  and  C15_19 
REMARK   10  A    between atoms: C15_19  and  O1_20 
REMARK   11  A    between atoms: C15_19  and  C16_22 
REMARK   12  A    between atoms: C16_22  and  O2_23 
REMARK   13  A    between atoms: O2_23  and  C17_24 
REMARK   14  A    between atoms: C17_24  and  C18_26 
REMARK   15  A    between atoms: C18_26  and  N2_27 
REMARK   16  A    between atoms: C18_26  and  C19_31 
REMARK   17  A    between atoms: C19_31  and  O4_32 
ROOT
HETATM    1  N1  UNL     1      15.277  37.326  60.116  1.00  0.00    -0.043 N 
ATOM      2  H11 UNL     1      14.979  36.356  60.222  1.00  0.00     0.280 HD
ATOM      3  H12 UNL     1      14.781  37.548  59.252  1.00  0.00     0.280 HD
ENDROOT
BRANCH   1   4
HETATM    4  C14 UNL     1      16.698  37.426  59.949  1.00  0.00     0.189 C 
HETATM    5  C13 UNL     1      17.384  36.436  60.818  1.00  0.00     0.034 C 
HETATM    6  C12 UNL     1      18.032  35.415  59.896  1.00  0.00     0.012 C 
HETATM    7  C4  UNL     1      18.180  36.097  58.551  1.00  0.00    -0.030 C 
HETATM    8  C20 UNL     1      17.173  37.198  58.530  1.00  0.00     0.043 C 
BRANCH   7   9
HETATM    9  C3  UNL     1      17.676  35.108  57.470  1.00  0.00     0.083 C 
BRANCH   9  10
HETATM   10  S1  UNL     1      18.222  35.401  55.841  1.00  0.00    -0.169 SA
BRANCH  10  11
HETATM   11  C2  UNL     1      17.225  36.516  54.885  1.00  0.00     0.069 C 
HETATM   12  C1  UNL     1      18.119  37.748  54.588  1.00  0.00     0.016 C 
ENDBRANCH  10  11
ENDBRANCH   9  10
ENDBRANCH   7   9
BRANCH   7  13
HETATM   13  C5  UNL     1      19.575  36.412  58.176  1.00  0.00     0.015 C 
BRANCH  13  14
HETATM   14  C6  UNL     1      20.256  37.610  58.645  1.00  0.00    -0.011 C 
BRANCH  14  15
HETATM   15  C7  UNL     1      20.735  38.661  57.744  1.00  0.00     0.000 C 
HETATM   16  C8  UNL     1      19.704  39.702  57.360  1.00  0.00     0.005 C 
ENDBRANCH  14  15
BRANCH  14  17
HETATM   17  C9  UNL     1      21.336  37.246  59.685  1.00  0.00    -0.019 C 
HETATM   18  C10 UNL     1      22.370  38.317  59.815  1.00  0.00     0.010 C 
HETATM   19  C11 UNL     1      21.963  35.915  59.434  1.00  0.00     0.010 C 
ENDBRANCH  14  17
ENDBRANCH  13  14
ENDBRANCH   7  13
ENDBRANCH   1   4
BRANCH   1  20
HETATM   20  C15 UNL     1      14.812  38.158  61.231  1.00  0.00     0.343 C 
BRANCH  20  21
HETATM   21  O1  UNL     1      14.015  37.442  62.078  1.00  0.00    -0.368 OA
ATOM     22  H1  UNL     1      13.343  36.971  61.599  1.00  0.00     0.212 HD
ENDBRANCH  20  21
BRANCH  20  23
HETATM   23  C16 UNL     1      14.090  39.318  60.616  1.00  0.00     0.239 C 
BRANCH  23  24
HETATM   24  O2  UNL     1      14.836  40.424  60.342  1.00  0.00    -0.315 OA
BRANCH  24  25
HETATM   25  C17 UNL     1      15.331  40.898  59.191  1.00  0.00     0.291 C 
HETATM   26  O3  UNL     1      15.432  40.177  58.185  1.00  0.00    -0.263 OA
BRANCH  25  27
HETATM   27  C18 UNL     1      15.787  42.335  59.068  1.00  0.00     0.305 C 
BRANCH  27  28
HETATM   28  N2  UNL     1      15.548  42.990  60.326  1.00  0.00    -0.064 N 
ATOM     29  H23 UNL     1      15.244  42.343  61.054  1.00  0.00     0.275 HD
ATOM     30  H22 UNL     1      16.407  43.307  60.773  1.00  0.00     0.275 HD
ATOM     31  H21 UNL     1      14.883  43.747  60.169  1.00  0.00     0.275 HD
ENDBRANCH  27  28
BRANCH  27  32
HETATM   32  C19 UNL     1      17.254  42.319  58.731  1.00  0.00     0.207 C 
BRANCH  32  33
HETATM   33  O4  UNL     1      17.422  42.351  57.344  1.00  0.00    -0.398 OA
ATOM     34  H4  UNL     1      17.044  43.148  56.992  1.00  0.00     0.209 HD
ENDBRANCH  32  33
ENDBRANCH  27  32
ENDBRANCH  25  27
ENDBRANCH  24  25
ENDBRANCH  23  24
ENDBRANCH  20  23
ENDBRANCH   1  20
TORSDOF 17
ENDMDL
MODEL 4
REMARK VINA RESULT: -7.037834813      1.197      1.407
REMARK  17 active torsions:
REMARK  status: ('A' for Active; 'I' for Inactive)
REMARK    1  A    between atoms: C2_2  and  S1_3 
REMARK    2  A    between atoms: S1_3  and  C3_4 
REMARK    3  A    between atoms: C3_4  and  C4_5 
REMARK    4  A    between atoms: C4_5  and  C5_6 
REMARK    5  A    between atoms: C5_6  and  C6_7 
REMARK    6  A    between atoms: C6_7  and  C7_8 
REMARK    7  A    between atoms: C6_7  and  C9_10 
REMARK    8  A    between atoms: C14_15  and  N1_16 
REMARK    9  A    between atoms: N1_16  and  C15_19 
REMARK   10  A    between atoms: C15_19  and  O1_20 
REMARK   11  A    between atoms: C15_19  and  C16_22 
REMARK   12  A    between atoms: C16_22  and  O2_23 
REMARK   13  A    between atoms: O2_23  and  C17_24 
REMARK   14  A    between atoms: C17_24  and  C18_26 
REMARK   15  A    between atoms: C18_26  and  N2_27 
REMARK   16  A    between atoms: C18_26  and  C19_31 
REMARK   17  A    between atoms: C19_31  and  O4_32 
ROOT
HETATM    1  N1  UNL     1      15.508  37.315  60.305  1.00  0.00    -0.043 N 
ATOM      2  H11 UNL     1      15.175  36.417  60.658  1.00  0.00     0.280 HD
ATOM      3  H12 UNL     1      15.013  37.324  59.413  1.00  0.00     0.280 HD
ENDROOT
BRANCH   1   4
HETATM    4  C14 UNL     1      16.931  37.313  60.120  1.00  0.00     0.189 C 
HETATM    5  C13 UNL     1      17.494  35.996  60.509  1.00  0.00     0.034 C 
HETATM    6  C12 UNL     1      18.012  35.343  59.237  1.00  0.00     0.012 C 
HETATM    7  C4  UNL     1      18.237  36.469  58.248  1.00  0.00    -0.030 C 
HETATM    8  C20 UNL     1      17.370  37.598  58.699  1.00  0.00     0.043 C 
BRANCH   7   9
HETATM    9  C3  UNL     1      17.614  36.035  56.898  1.00  0.00     0.083 C 
BRANCH   9  10
HETATM   10  S1  UNL     1      18.339  34.655  56.120  1.00  0.00    -0.169 SA
BRANCH  10  11
HETATM   11  C2  UNL     1      17.244  33.301  55.780  1.00  0.00     0.069 C 
HETATM   12  C1  UNL     1      15.855  33.722  56.327  1.00  0.00     0.016 C 
ENDBRANCH  10  11
ENDBRANCH   9  10
ENDBRANCH   7   9
BRANCH   7  13
HETATM   13  C5  UNL     1      19.658  36.748  57.954  1.00  0.00     0.015 C 
BRANCH  13  14
HETATM   14  C6  UNL     1      20.360  37.894  58.516  1.00  0.00    -0.011 C 
BRANCH  14  15
HETATM   15  C7  UNL     1      20.910  38.974  57.694  1.00  0.00     0.000 C 
HETATM   16  C8  UNL     1      19.892  39.761  56.895  1.00  0.00     0.005 C 
ENDBRANCH  14  15
BRANCH  14  17
HETATM   17  C9  UNL     1      21.384  37.435  59.573  1.00  0.00    -0.019 C 
HETATM   18  C10 UNL     1      22.546  38.369  59.670  1.00  0.00     0.010 C 
HETATM   19  C11 UNL     1      21.837  36.026  59.375  1.00  0.00     0.010 C 
ENDBRANCH  14  17
ENDBRANCH  13  14
ENDBRANCH   7  13
ENDBRANCH   1   4
BRANCH   1  20
HETATM   20  C15 UNL     1      15.085  38.424  61.167  1.00  0.00     0.343 C 
BRANCH  20  21
HETATM   21  O1  UNL     1      15.244  38.109  62.486  1.00  0.00    -0.368 OA
ATOM     22  H1  UNL     1      15.182  38.884  63.032  1.00  0.00     0.212 HD
ENDBRANCH  20  21
BRANCH  20  23
HETATM   23  C16 UNL     1      13.654  38.703  60.819  1.00  0.00     0.239 C 
BRANCH  23  24
HETATM   24  O2  UNL     1      12.733  38.468  61.794  1.00  0.00    -0.315 OA
BRANCH  24  25
HETATM   25  C17 UNL     1      12.164  37.333  62.224  1.00  0.00     0.291 C 
HETATM   26  O3  UNL     1      12.754  36.569  63.006  1.00  0.00    -0.263 OA
BRANCH  25  27
HETATM   27  C18 UNL     1      10.777  36.935  61.773  1.00  0.00     0.305 C 
BRANCH  27  28
HETATM   28  N2  UNL     1      10.387  35.761  62.506  1.00  0.00    -0.064 N 
ATOM     29  H23 UNL     1      10.351  34.926  61.921  1.00  0.00     0.275 HD
ATOM     30  H22 UNL     1      11.108  35.444  63.154  1.00  0.00     0.275 HD
ATOM     31  H21 UNL     1       9.500  35.955  62.970  1.00  0.00     0.275 HD
ENDBRANCH  27  28
BRANCH  27  32
HETATM   32  C19 UNL     1       9.856  38.089  62.064  1.00  0.00     0.207 C 
BRANCH  32  33
HETATM   33  O4  UNL     1      10.132  39.147  61.192  1.00  0.00    -0.398 OA
ATOM     34  H4  UNL     1      10.050  39.974  61.652  1.00  0.00     0.209 HD
ENDBRANCH  32  33
ENDBRANCH  27  32
ENDBRANCH  25  27
ENDBRANCH  24  25
ENDBRANCH  23  24
ENDBRANCH  20  23
ENDBRANCH   1  20
TORSDOF 17
ENDMDL
MODEL 5
REMARK VINA RESULT: -7.022630063      1.509      1.803
REMARK  17 active torsions:
REMARK  status: ('A' for Active; 'I' for Inactive)
REMARK    1  A    between atoms: C2_2  and  S1_3 
REMARK    2  A    between atoms: S1_3  and  C3_4 
REMARK    3  A    between atoms: C3_4  and  C4_5 
REMARK    4  A    between atoms: C4_5  and  C5_6 
REMARK    5  A    between atoms: C5_6  and  C6_7 
REMARK    6  A    between atoms: C6_7  and  C7_8 
REMARK    7  A    between atoms: C6_7  and  C9_10 
REMARK    8  A    between atoms: C14_15  and  N1_16 
REMARK    9  A    between atoms: N1_16  and  C15_19 
REMARK   10  A    between atoms: C15_19  and  O1_20 
REMARK   11  A    between atoms: C15_19  and  C16_22 
REMARK   12  A    between atoms: C16_22  and  O2_23 
REMARK   13  A    between atoms: O2_23  and  C17_24 
REMARK   14  A    between atoms: C17_24  and  C18_26 
REMARK   15  A    between atoms: C18_26  and  N2_27 
REMARK   16  A    between atoms: C18_26  and  C19_31 
REMARK   17  A    between atoms: C19_31  and  O4_32 
ROOT
HETATM    1  N1  UNL     1      15.938  36.572  60.079  1.00  0.00    -0.043 N 
ATOM      2  H11 UNL     1      15.778  35.641  60.464  1.00  0.00     0.280 HD
ATOM      3  H12 UNL     1      15.173  36.595  59.405  1.00  0.00     0.280 HD
ENDROOT
BRANCH   1   4
HETATM    4  C14 UNL     1      17.215  36.663  59.433  1.00  0.00     0.189 C 
HETATM    5  C13 UNL     1      18.220  35.857  60.172  1.00  0.00     0.034 C 
HETATM    6  C12 UNL     1      18.607  34.697  59.270  1.00  0.00     0.012 C 
HETATM    7  C4  UNL     1      18.255  35.126  57.859  1.00  0.00    -0.030 C 
HETATM    8  C20 UNL     1      17.217  36.189  57.994  1.00  0.00     0.043 C 
BRANCH   7   9
HETATM    9  C3  UNL     1      17.502  33.950  57.189  1.00  0.00     0.083 C 
BRANCH   9  10
HETATM   10  S1  UNL     1      16.226  34.381  56.083  1.00  0.00    -0.169 SA
BRANCH  10  11
HETATM   11  C2  UNL     1      16.748  34.860  54.456  1.00  0.00     0.069 C 
HETATM   12  C1  UNL     1      16.494  36.386  54.354  1.00  0.00     0.016 C 
ENDBRANCH  10  11
ENDBRANCH   9  10
ENDBRANCH   7   9
BRANCH   7  13
HETATM   13  C5  UNL     1      19.423  35.390  56.992  1.00  0.00     0.015 C 
BRANCH  13  14
HETATM   14  C6  UNL     1      19.846  36.739  56.644  1.00  0.00    -0.011 C 
BRANCH  14  15
HETATM   15  C7  UNL     1      19.957  37.209  55.262  1.00  0.00     0.000 C 
HETATM   16  C8  UNL     1      19.438  38.609  55.010  1.00  0.00     0.005 C 
ENDBRANCH  14  15
BRANCH  14  17
HETATM   17  C9  UNL     1      21.089  37.144  57.462  1.00  0.00    -0.019 C 
HETATM   18  C10 UNL     1      21.864  35.955  57.928  1.00  0.00     0.010 C 
HETATM   19  C11 UNL     1      20.768  38.060  58.597  1.00  0.00     0.010 C 
ENDBRANCH  14  17
ENDBRANCH  13  14
ENDBRANCH   7  13
ENDBRANCH   1   4
BRANCH   1  20
HETATM   20  C15 UNL     1      15.785  37.612  61.103  1.00  0.00     0.343 C 
BRANCH  20  21
HETATM   21  O1  UNL     1      15.844  37.079  62.358  1.00  0.00    -0.368 OA
ATOM     22  H1  UNL     1      15.658  37.736  63.018  1.00  0.00     0.212 HD
ENDBRANCH  20  21
BRANCH  20  23
HETATM   23  C16 UNL     1      14.470  38.278  60.830  1.00  0.00     0.239 C 
BRANCH  23  24
HETATM   24  O2  UNL     1      13.358  37.500  60.946  1.00  0.00    -0.315 OA
BRANCH  24  25
HETATM   25  C17 UNL     1      12.506  37.314  61.963  1.00  0.00     0.291 C 
HETATM   26  O3  UNL     1      12.877  37.416  63.145  1.00  0.00    -0.263 OA
BRANCH  25  27
HETATM   27  C18 UNL     1      11.054  36.974  61.715  1.00  0.00     0.305 C 
BRANCH  27  28
HETATM   28  N2  UNL     1      10.612  36.101  62.768  1.00  0.00    -0.064 N 
ATOM     29  H23 UNL     1      10.632  35.118  62.498  1.00  0.00     0.275 HD
ATOM     30  H22 UNL     1      11.277  36.046  63.539  1.00  0.00     0.275 HD
ATOM     31  H21 UNL     1       9.687  36.408  63.069  1.00  0.00     0.275 HD
ENDBRANCH  27  28
BRANCH  27  32
HETATM   32  C19 UNL     1      10.279  38.264  61.715  1.00  0.00     0.207 C 
BRANCH  32  33
HETATM   33  O4  UNL     1      11.103  39.313  61.294  1.00  0.00    -0.398 OA
ATOM     34  H4  UNL     1      10.641  39.853  60.663  1.00  0.00     0.209 HD
ENDBRANCH  32  33
ENDBRANCH  27  32
ENDBRANCH  25  27
ENDBRANCH  24  25
ENDBRANCH  23  24
ENDBRANCH  20  23
ENDBRANCH   1  20
TORSDOF 17
ENDMDL
