MODEL 1
REMARK VINA RESULT: -8.375384501      0.000      0.000
REMARK  17 active torsions:
REMARK  status: ('A' for Active; 'I' for Inactive)
REMARK    1  A    between atoms: C2_2  and  O1_3 
REMARK    2  A    between atoms: C2_2  and  C11_19 
REMARK    3  A    between atoms: O1_3  and  C3_4 
REMARK    4  A    between atoms: C4_5  and  C5_6 
REMARK    5  A    between atoms: C5_6  and  O2_7 
REMARK    6  A    between atoms: C6_10  and  C7_11 
REMARK    7  A    between atoms: C7_11  and  O4_12 
REMARK    8  A    between atoms: C10_16  and  O5_17 
REMARK    9  A    between atoms: C11_19  and  O6_20 
REMARK   10  A    between atoms: C11_19  and  C12_22 
REMARK   11  A    between atoms: C12_22  and  C13_23 
REMARK   12  A    between atoms: C12_22  and  C15_25 
REMARK   13  A    between atoms: C15_25  and  O7_26 
REMARK   14  A    between atoms: C15_25  and  C16_28 
REMARK   15  A    between atoms: C16_28  and  C18_30 
REMARK   16  A    between atoms: C18_30  and  C19_31 
REMARK   17  A    between atoms: C19_31  and  C20_32 
ROOT
HETATM    1  C1  UNL     1      16.520  37.010  61.508  1.00  0.00     0.049 C 
HETATM    2  C2  UNL     1      15.683  37.241  60.526  1.00  0.00     0.067 C 
ENDROOT
BRANCH   2   3
HETATM    3  O1  UNL     1      15.979  36.651  59.291  1.00  0.00    -0.343 OA
BRANCH   3   4
HETATM    4  C3  UNL     1      17.277  36.515  58.798  1.00  0.00     0.188 C 
HETATM    5  C4  UNL     1      17.938  37.873  58.799  1.00  0.00     0.177 C 
HETATM    6  O3  UNL     1      19.300  37.777  58.483  1.00  0.00    -0.373 OA
HETATM    7  C6  UNL     1      19.951  37.059  59.486  1.00  0.00     0.152 C 
HETATM    8  C8  UNL     1      19.557  35.613  59.299  1.00  0.00     0.044 C 
HETATM    9  C9  UNL     1      19.862  35.138  57.898  1.00  0.00     0.015 C 
HETATM   10  C10 UNL     1      18.067  35.497  59.598  1.00  0.00     0.156 C 
BRANCH   5  11
HETATM   11  C5  UNL     1      17.277  38.771  57.808  1.00  0.00     0.198 C 
BRANCH  11  12
HETATM   12  O2  UNL     1      16.343  39.637  58.347  1.00  0.00    -0.398 OA
ATOM     13  H2  UNL     1      15.504  39.239  58.547  1.00  0.00     0.209 HD
ENDBRANCH  11  12
ENDBRANCH   5  11
BRANCH   7  14
HETATM   14  C7  UNL     1      21.431  37.228  59.439  1.00  0.00     0.196 C 
BRANCH  14  15
HETATM   15  O4  UNL     1      21.997  36.735  60.595  1.00  0.00    -0.398 OA
ATOM     16  H4  UNL     1      22.925  36.578  60.460  1.00  0.00     0.209 HD
ENDBRANCH  14  15
ENDBRANCH   7  14
BRANCH  10  17
HETATM   17  O5  UNL     1      17.631  34.230  59.218  1.00  0.00    -0.392 OA
ATOM     18  H5  UNL     1      18.396  33.725  58.965  1.00  0.00     0.210 HD
ENDBRANCH  10  17
ENDBRANCH   3   4
ENDBRANCH   2   3
BRANCH   2  19
HETATM   19  C11 UNL     1      14.451  38.059  60.592  1.00  0.00     0.180 C 
BRANCH  19  20
HETATM   20  O6  UNL     1      14.865  39.284  61.198  1.00  0.00    -0.389 OA
ATOM     21  H6  UNL     1      14.143  39.526  61.767  1.00  0.00     0.210 HD
ENDBRANCH  19  20
BRANCH  19  22
HETATM   22  C12 UNL     1      13.438  37.478  61.478  1.00  0.00     0.050 C 
BRANCH  22  23
HETATM   23  C13 UNL     1      14.071  37.346  62.874  1.00  0.00     0.006 C 
HETATM   24  C14 UNL     1      14.038  35.930  63.389  1.00  0.00     0.006 C 
ENDBRANCH  22  23
BRANCH  22  25
HETATM   25  C15 UNL     1      12.147  38.133  61.700  1.00  0.00     0.128 C 
BRANCH  25  26
HETATM   26  O7  UNL     1      12.027  39.360  61.056  1.00  0.00    -0.395 OA
ATOM     27  H7  UNL     1      11.618  39.302  60.200  1.00  0.00     0.210 HD
ENDBRANCH  25  26
BRANCH  25  28
HETATM   28  C16 UNL     1      10.861  37.370  61.525  1.00  0.00     0.011 C 
HETATM   29  C17 UNL     1      10.769  36.291  62.554  1.00  0.00     0.012 C 
BRANCH  28  30
HETATM   30  C18 UNL     1       9.700  38.261  61.354  1.00  0.00     0.007 C 
BRANCH  30  31
HETATM   31  C19 UNL     1       8.573  38.278  62.301  1.00  0.00     0.000 C 
BRANCH  31  32
HETATM   32  C20 UNL     1       7.656  39.456  62.251  1.00  0.00    -0.005 C 
HETATM   33  C21 UNL     1       8.424  40.578  61.478  1.00  0.00     0.005 C 
ENDBRANCH  31  32
ENDBRANCH  30  31
ENDBRANCH  28  30
ENDBRANCH  25  28
ENDBRANCH  22  25
ENDBRANCH  19  22
ENDBRANCH   2  19
TORSDOF 17
ENDMDL
MODEL 2
REMARK VINA RESULT: -8.218339043      1.327      2.618
REMARK  17 active torsions:
REMARK  status: ('A' for Active; 'I' for Inactive)
REMARK    1  A    between atoms: C2_2  and  O1_3 
REMARK    2  A    between atoms: C2_2  and  C11_19 
REMARK    3  A    between atoms: O1_3  and  C3_4 
REMARK    4  A    between atoms: C4_5  and  C5_6 
REMARK    5  A    between atoms: C5_6  and  O2_7 
REMARK    6  A    between atoms: C6_10  and  C7_11 
REMARK    7  A    between atoms: C7_11  and  O4_12 
REMARK    8  A    between atoms: C10_16  and  O5_17 
REMARK    9  A    between atoms: C11_19  and  O6_20 
REMARK   10  A    between atoms: C11_19  and  C12_22 
REMARK   11  A    between atoms: C12_22  and  C13_23 
REMARK   12  A    between atoms: C12_22  and  C15_25 
REMARK   13  A    between atoms: C15_25  and  O7_26 
REMARK   14  A    between atoms: C15_25  and  C16_28 
REMARK   15  A    between atoms: C16_28  and  C18_30 
REMARK   16  A    between atoms: C18_30  and  C19_31 
REMARK   17  A    between atoms: C19_31  and  C20_32 
ROOT
HETATM    1  C1  UNL     1      16.444  37.104  61.638  1.00  0.00     0.049 C 
HETATM    2  C2  UNL     1      15.651  37.347  60.624  1.00  0.00     0.067 C 
ENDROOT
BRANCH   2   3
HETATM    3  O1  UNL     1      16.030  36.820  59.383  1.00  0.00    -0.343 OA
BRANCH   3   4
HETATM    4  C3  UNL     1      17.290  37.019  58.820  1.00  0.00     0.188 C 
HETATM    5  C4  UNL     1      17.776  35.708  58.249  1.00  0.00     0.177 C 
HETATM    6  O3  UNL     1      18.956  35.878  57.512  1.00  0.00    -0.373 OA
HETATM    7  C6  UNL     1      18.689  36.677  56.401  1.00  0.00     0.152 C 
HETATM    8  C8  UNL     1      18.522  38.086  56.920  1.00  0.00     0.044 C 
HETATM    9  C9  UNL     1      19.725  38.522  57.722  1.00  0.00     0.015 C 
HETATM   10  C10 UNL     1      17.260  38.118  57.775  1.00  0.00     0.156 C 
BRANCH   5  11
HETATM   11  C5  UNL     1      18.031  34.729  59.346  1.00  0.00     0.198 C 
BRANCH  11  12
HETATM   12  O2  UNL     1      17.800  33.409  59.005  1.00  0.00    -0.398 OA
ATOM     13  H2  UNL     1      17.191  32.954  59.575  1.00  0.00     0.209 HD
ENDBRANCH  11  12
ENDBRANCH   5  11
BRANCH   7  14
HETATM   14  C7  UNL     1      19.764  36.602  55.373  1.00  0.00     0.196 C 
BRANCH  14  15
HETATM   15  O4  UNL     1      20.585  35.525  55.629  1.00  0.00    -0.398 OA
ATOM     16  H4  UNL     1      20.290  34.768  55.135  1.00  0.00     0.209 HD
ENDBRANCH  14  15
ENDBRANCH   7  14
BRANCH  10  17
HETATM   17  O5  UNL     1      17.204  39.338  58.445  1.00  0.00    -0.392 OA
ATOM     18  H5  UNL     1      16.700  39.939  57.909  1.00  0.00     0.210 HD
ENDBRANCH  10  17
ENDBRANCH   3   4
ENDBRANCH   2   3
BRANCH   2  19
HETATM   19  C11 UNL     1      14.386  38.117  60.660  1.00  0.00     0.180 C 
BRANCH  19  20
HETATM   20  O6  UNL     1      14.730  39.342  61.308  1.00  0.00    -0.389 OA
ATOM     21  H6  UNL     1      13.940  39.868  61.261  1.00  0.00     0.210 HD
ENDBRANCH  19  20
BRANCH  19  22
HETATM   22  C12 UNL     1      13.362  37.478  61.492  1.00  0.00     0.050 C 
BRANCH  22  23
HETATM   23  C13 UNL     1      13.958  37.305  62.900  1.00  0.00     0.006 C 
HETATM   24  C14 UNL     1      13.977  35.865  63.343  1.00  0.00     0.006 C 
ENDBRANCH  22  23
BRANCH  22  25
HETATM   25  C15 UNL     1      12.051  38.095  61.701  1.00  0.00     0.128 C 
BRANCH  25  26
HETATM   26  O7  UNL     1      11.909  39.328  61.074  1.00  0.00    -0.395 OA
ATOM     27  H7  UNL     1      11.005  39.606  60.980  1.00  0.00     0.210 HD
ENDBRANCH  25  26
BRANCH  25  28
HETATM   28  C16 UNL     1      10.789  37.301  61.491  1.00  0.00     0.011 C 
HETATM   29  C17 UNL     1      10.737  36.168  62.463  1.00  0.00     0.012 C 
BRANCH  28  30
HETATM   30  C18 UNL     1       9.599  38.161  61.369  1.00  0.00     0.007 C 
BRANCH  30  31
HETATM   31  C19 UNL     1       8.567  38.232  62.416  1.00  0.00     0.000 C 
BRANCH  31  32
HETATM   32  C20 UNL     1       7.637  39.400  62.382  1.00  0.00    -0.005 C 
HETATM   33  C21 UNL     1       8.355  40.509  61.543  1.00  0.00     0.005 C 
ENDBRANCH  31  32
ENDBRANCH  30  31
ENDBRANCH  28  30
ENDBRANCH  25  28
ENDBRANCH  22  25
ENDBRANCH  19  22
ENDBRANCH   2  19
TORSDOF 17
ENDMDL
MODEL 3
REMARK VINA RESULT: -8.153645653      2.525      7.690
REMARK  17 active torsions:
REMARK  status: ('A' for Active; 'I' for Inactive)
REMARK    1  A    between atoms: C2_2  and  O1_3 
REMARK    2  A    between atoms: C2_2  and  C11_19 
REMARK    3  A    between atoms: O1_3  and  C3_4 
REMARK    4  A    between atoms: C4_5  and  C5_6 
REMARK    5  A    between atoms: C5_6  and  O2_7 
REMARK    6  A    between atoms: C6_10  and  C7_11 
REMARK    7  A    between atoms: C7_11  and  O4_12 
REMARK    8  A    between atoms: C10_16  and  O5_17 
REMARK    9  A    between atoms: C11_19  and  O6_20 
REMARK   10  A    between atoms: C11_19  and  C12_22 
REMARK   11  A    between atoms: C12_22  and  C13_23 
REMARK   12  A    between atoms: C12_22  and  C15_25 
REMARK   13  A    between atoms: C15_25  and  O7_26 
REMARK   14  A    between atoms: C15_25  and  C16_28 
REMARK   15  A    between atoms: C16_28  and  C18_30 
REMARK   16  A    between atoms: C18_30  and  C19_31 
REMARK   17  A    between atoms: C19_31  and  C20_32 
ROOT
HETATM    1  C1  UNL     1      18.576  39.607  58.394  1.00  0.00     0.049 C 
HETATM    2  C2  UNL     1      17.817  38.700  57.831  1.00  0.00     0.067 C 
ENDROOT
BRANCH   2   3
HETATM    3  O1  UNL     1      16.495  38.610  58.285  1.00  0.00    -0.343 OA
BRANCH   3   4
HETATM    4  C3  UNL     1      16.154  38.503  59.633  1.00  0.00     0.188 C 
HETATM    5  C4  UNL     1      14.940  39.362  59.893  1.00  0.00     0.177 C 
HETATM    6  O3  UNL     1      14.440  39.160  61.187  1.00  0.00    -0.373 OA
HETATM    7  C6  UNL     1      13.983  37.847  61.300  1.00  0.00     0.152 C 
HETATM    8  C8  UNL     1      15.212  36.973  61.376  1.00  0.00     0.044 C 
HETATM    9  C9  UNL     1      16.127  37.409  62.495  1.00  0.00     0.015 C 
HETATM   10  C10 UNL     1      15.924  37.057  60.030  1.00  0.00     0.156 C 
BRANCH   5  11
HETATM   11  C5  UNL     1      15.283  40.805  59.731  1.00  0.00     0.198 C 
BRANCH  11  12
HETATM   12  O2  UNL     1      15.385  41.229  58.418  1.00  0.00    -0.398 OA
ATOM     13  H2  UNL     1      15.830  40.621  57.840  1.00  0.00     0.209 HD
ENDBRANCH  11  12
ENDBRANCH   5  11
BRANCH   7  14
HETATM   14  C7  UNL     1      13.103  37.650  62.485  1.00  0.00     0.196 C 
BRANCH  14  15
HETATM   15  O4  UNL     1      11.782  37.796  62.120  1.00  0.00    -0.398 OA
ATOM     16  H4  UNL     1      11.304  36.996  62.303  1.00  0.00     0.209 HD
ENDBRANCH  14  15
ENDBRANCH   7  14
BRANCH  10  17
HETATM   17  O5  UNL     1      17.170  36.445  60.144  1.00  0.00    -0.392 OA
ATOM     18  H5  UNL     1      17.241  36.095  61.025  1.00  0.00     0.210 HD
ENDBRANCH  10  17
ENDBRANCH   3   4
ENDBRANCH   2   3
BRANCH   2  19
HETATM   19  C11 UNL     1      18.214  37.763  56.754  1.00  0.00     0.180 C 
BRANCH  19  20
HETATM   20  O6  UNL     1      17.590  38.280  55.579  1.00  0.00    -0.389 OA
ATOM     21  H6  UNL     1      17.205  39.104  55.855  1.00  0.00     0.210 HD
ENDBRANCH  19  20
BRANCH  19  22
HETATM   22  C12 UNL     1      17.673  36.415  56.955  1.00  0.00     0.050 C 
BRANCH  22  23
HETATM   23  C13 UNL     1      16.892  36.041  55.683  1.00  0.00     0.006 C 
HETATM   24  C14 UNL     1      16.119  34.757  55.841  1.00  0.00     0.006 C 
ENDBRANCH  22  23
BRANCH  22  25
HETATM   25  C15 UNL     1      18.547  35.271  57.222  1.00  0.00     0.128 C 
BRANCH  25  26
HETATM   26  O7  UNL     1      19.715  35.273  56.465  1.00  0.00    -0.395 OA
ATOM     27  H7  UNL     1      20.156  34.432  56.443  1.00  0.00     0.210 HD
ENDBRANCH  25  26
BRANCH  25  28
HETATM   28  C16 UNL     1      18.893  34.884  58.635  1.00  0.00     0.011 C 
HETATM   29  C17 UNL     1      18.425  33.490  58.905  1.00  0.00     0.012 C 
BRANCH  28  30
HETATM   30  C18 UNL     1      20.282  35.227  58.988  1.00  0.00     0.007 C 
BRANCH  30  31
HETATM   31  C19 UNL     1      20.638  36.495  59.643  1.00  0.00     0.000 C 
BRANCH  31  32
HETATM   32  C20 UNL     1      21.459  37.463  58.857  1.00  0.00    -0.005 C 
HETATM   33  C21 UNL     1      22.253  38.316  59.901  1.00  0.00     0.005 C 
ENDBRANCH  31  32
ENDBRANCH  30  31
ENDBRANCH  28  30
ENDBRANCH  25  28
ENDBRANCH  22  25
ENDBRANCH  19  22
ENDBRANCH   2  19
TORSDOF 17
ENDMDL
MODEL 4
REMARK VINA RESULT: -8.085326073      2.447      7.528
REMARK  17 active torsions:
REMARK  status: ('A' for Active; 'I' for Inactive)
REMARK    1  A    between atoms: C2_2  and  O1_3 
REMARK    2  A    between atoms: C2_2  and  C11_19 
REMARK    3  A    between atoms: O1_3  and  C3_4 
REMARK    4  A    between atoms: C4_5  and  C5_6 
REMARK    5  A    between atoms: C5_6  and  O2_7 
REMARK    6  A    between atoms: C6_10  and  C7_11 
REMARK    7  A    between atoms: C7_11  and  O4_12 
REMARK    8  A    between atoms: C10_16  and  O5_17 
REMARK    9  A    between atoms: C11_19  and  O6_20 
REMARK   10  A    between atoms: C11_19  and  C12_22 
REMARK   11  A    between atoms: C12_22  and  C13_23 
REMARK   12  A    between atoms: C12_22  and  C15_25 
REMARK   13  A    between atoms: C15_25  and  O7_26 
REMARK   14  A    between atoms: C15_25  and  C16_28 
REMARK   15  A    between atoms: C16_28  and  C18_30 
REMARK   16  A    between atoms: C18_30  and  C19_31 
REMARK   17  A    between atoms: C19_31  and  C20_32 
ROOT
HETATM    1  C1  UNL     1      18.345  40.131  57.938  1.00  0.00     0.049 C 
HETATM    2  C2  UNL     1      18.016  38.874  58.105  1.00  0.00     0.067 C 
ENDROOT
BRANCH   2   3
HETATM    3  O1  UNL     1      16.673  38.604  58.395  1.00  0.00    -0.343 OA
BRANCH   3   4
HETATM    4  C3  UNL     1      16.183  38.462  59.694  1.00  0.00     0.188 C 
HETATM    5  C4  UNL     1      14.947  39.316  59.839  1.00  0.00     0.177 C 
HETATM    6  O3  UNL     1      14.305  39.081  61.063  1.00  0.00    -0.373 OA
HETATM    7  C6  UNL     1      13.840  37.766  61.089  1.00  0.00     0.152 C 
HETATM    8  C8  UNL     1      15.054  36.888  61.279  1.00  0.00     0.044 C 
HETATM    9  C9  UNL     1      15.837  37.293  62.505  1.00  0.00     0.015 C 
HETATM   10  C10 UNL     1      15.912  37.007  60.024  1.00  0.00     0.156 C 
BRANCH   5  11
HETATM   11  C5  UNL     1      15.303  40.762  59.754  1.00  0.00     0.198 C 
BRANCH  11  12
HETATM   12  O2  UNL     1      15.303  41.282  58.472  1.00  0.00    -0.398 OA
ATOM     13  H2  UNL     1      14.823  42.095  58.376  1.00  0.00     0.209 HD
ENDBRANCH  11  12
ENDBRANCH   5  11
BRANCH   7  14
HETATM   14  C7  UNL     1      12.833  37.539  62.163  1.00  0.00     0.196 C 
BRANCH  14  15
HETATM   15  O4  UNL     1      11.661  38.197  61.856  1.00  0.00    -0.398 OA
ATOM     16  H4  UNL     1      11.136  38.307  62.640  1.00  0.00     0.209 HD
ENDBRANCH  14  15
ENDBRANCH   7  14
BRANCH  10  17
HETATM   17  O5  UNL     1      17.138  36.390  60.260  1.00  0.00    -0.392 OA
ATOM     18  H5  UNL     1      17.189  36.194  61.189  1.00  0.00     0.210 HD
ENDBRANCH  10  17
ENDBRANCH   3   4
ENDBRANCH   2   3
BRANCH   2  19
HETATM   19  C11 UNL     1      18.921  37.706  58.009  1.00  0.00     0.180 C 
BRANCH  19  20
HETATM   20  O6  UNL     1      20.129  38.232  57.457  1.00  0.00    -0.389 OA
ATOM     21  H6  UNL     1      20.811  37.655  57.781  1.00  0.00     0.210 HD
ENDBRANCH  19  20
BRANCH  19  22
HETATM   22  C12 UNL     1      18.437  36.695  57.064  1.00  0.00     0.050 C 
BRANCH  22  23
HETATM   23  C13 UNL     1      18.690  37.235  55.646  1.00  0.00     0.006 C 
HETATM   24  C14 UNL     1      17.449  37.207  54.791  1.00  0.00     0.006 C 
ENDBRANCH  22  23
BRANCH  22  25
HETATM   25  C15 UNL     1      18.972  35.332  57.059  1.00  0.00     0.128 C 
BRANCH  25  26
HETATM   26  O7  UNL     1      20.198  35.213  57.704  1.00  0.00    -0.395 OA
ATOM     27  H7  UNL     1      20.945  35.360  57.135  1.00  0.00     0.210 HD
ENDBRANCH  25  26
BRANCH  25  28
HETATM   28  C16 UNL     1      18.105  34.167  57.456  1.00  0.00     0.011 C 
HETATM   29  C17 UNL     1      18.468  33.714  58.833  1.00  0.00     0.012 C 
BRANCH  28  30
HETATM   30  C18 UNL     1      16.681  34.400  57.158  1.00  0.00     0.007 C 
BRANCH  30  31
HETATM   31  C19 UNL     1      15.990  33.734  56.043  1.00  0.00     0.000 C 
BRANCH  31  32
HETATM   32  C20 UNL     1      16.797  32.805  55.196  1.00  0.00    -0.005 C 
HETATM   33  C21 UNL     1      17.187  33.607  53.911  1.00  0.00     0.005 C 
ENDBRANCH  31  32
ENDBRANCH  30  31
ENDBRANCH  28  30
ENDBRANCH  25  28
ENDBRANCH  22  25
ENDBRANCH  19  22
ENDBRANCH   2  19
TORSDOF 17
ENDMDL
MODEL 5
REMARK VINA RESULT: -8.004119603      2.729      4.967
REMARK  17 active torsions:
REMARK  status: ('A' for Active; 'I' for Inactive)
REMARK    1  A    between atoms: C2_2  and  O1_3 
REMARK    2  A    between atoms: C2_2  and  C11_19 
REMARK    3  A    between atoms: O1_3  and  C3_4 
REMARK    4  A    between atoms: C4_5  and  C5_6 
REMARK    5  A    between atoms: C5_6  and  O2_7 
REMARK    6  A    between atoms: C6_10  and  C7_11 
REMARK    7  A    between atoms: C7_11  and  O4_12 
REMARK    8  A    between atoms: C10_16  and  O5_17 
REMARK    9  A    between atoms: C11_19  and  O6_20 
REMARK   10  A    between atoms: C11_19  and  C12_22 
REMARK   11  A    between atoms: C12_22  and  C13_23 
REMARK   12  A    between atoms: C12_22  and  C15_25 
REMARK   13  A    between atoms: C15_25  and  O7_26 
REMARK   14  A    between atoms: C15_25  and  C16_28 
REMARK   15  A    between atoms: C16_28  and  C18_30 
REMARK   16  A    between atoms: C18_30  and  C19_31 
REMARK   17  A    between atoms: C19_31  and  C20_32 
ROOT
HETATM    1  C1  UNL     1      18.230  37.478  59.317  1.00  0.00     0.049 C 
HETATM    2  C2  UNL     1      17.118  37.467  58.624  1.00  0.00     0.067 C 
ENDROOT
BRANCH   2   3
HETATM    3  O1  UNL     1      16.667  36.222  58.171  1.00  0.00    -0.343 OA
BRANCH   3   4
HETATM    4  C3  UNL     1      17.220  35.559  57.075  1.00  0.00     0.188 C 
HETATM    5  C4  UNL     1      17.398  34.103  57.431  1.00  0.00     0.177 C 
HETATM    6  O3  UNL     1      17.782  33.348  56.314  1.00  0.00    -0.373 OA
HETATM    7  C6  UNL     1      16.751  33.365  55.375  1.00  0.00     0.152 C 
HETATM    8  C8  UNL     1      16.764  34.741  54.753  1.00  0.00     0.044 C 
HETATM    9  C9  UNL     1      18.125  35.075  54.187  1.00  0.00     0.015 C 
HETATM   10  C10 UNL     1      16.367  35.742  55.833  1.00  0.00     0.156 C 
BRANCH   5  11
HETATM   11  C5  UNL     1      18.435  33.953  58.492  1.00  0.00     0.198 C 
BRANCH  11  12
HETATM   12  O2  UNL     1      18.204  32.920  59.383  1.00  0.00    -0.398 OA
ATOM     13  H2  UNL     1      18.882  32.256  59.404  1.00  0.00     0.209 HD
ENDBRANCH  11  12
ENDBRANCH   5  11
BRANCH   7  14
HETATM   14  C7  UNL     1      16.903  32.302  54.342  1.00  0.00     0.196 C 
BRANCH  14  15
HETATM   15  O4  UNL     1      16.423  31.104  54.827  1.00  0.00    -0.398 OA
ATOM     16  H4  UNL     1      16.836  30.381  54.369  1.00  0.00     0.209 HD
ENDBRANCH  14  15
ENDBRANCH   7  14
BRANCH  10  17
HETATM   17  O5  UNL     1      16.588  37.030  55.354  1.00  0.00    -0.392 OA
ATOM     18  H5  UNL     1      16.272  37.641  56.009  1.00  0.00     0.210 HD
ENDBRANCH  10  17
ENDBRANCH   3   4
ENDBRANCH   2   3
BRANCH   2  19
HETATM   19  C11 UNL     1      16.284  38.641  58.278  1.00  0.00     0.180 C 
BRANCH  19  20
HETATM   20  O6  UNL     1      17.067  39.372  57.333  1.00  0.00    -0.389 OA
ATOM     21  H6  UNL     1      16.531  39.399  56.549  1.00  0.00     0.210 HD
ENDBRANCH  19  20
BRANCH  19  22
HETATM   22  C12 UNL     1      16.070  39.534  59.421  1.00  0.00     0.050 C 
BRANCH  22  23
HETATM   23  C13 UNL     1      15.624  40.897  58.861  1.00  0.00     0.006 C 
HETATM   24  C14 UNL     1      16.540  42.017  59.280  1.00  0.00     0.006 C 
ENDBRANCH  22  23
BRANCH  22  25
HETATM   25  C15 UNL     1      15.103  39.214  60.473  1.00  0.00     0.128 C 
BRANCH  25  26
HETATM   26  O7  UNL     1      13.857  39.803  60.282  1.00  0.00    -0.395 OA
ATOM     27  H7  UNL     1      13.375  39.943  61.088  1.00  0.00     0.210 HD
ENDBRANCH  25  26
BRANCH  25  28
HETATM   28  C16 UNL     1      14.898  37.790  60.917  1.00  0.00     0.011 C 
HETATM   29  C17 UNL     1      15.773  37.497  62.093  1.00  0.00     0.012 C 
BRANCH  28  30
HETATM   30  C18 UNL     1      13.472  37.432  61.012  1.00  0.00     0.007 C 
BRANCH  30  31
HETATM   31  C19 UNL     1      12.806  37.183  62.300  1.00  0.00     0.000 C 
BRANCH  31  32
HETATM   32  C20 UNL     1      11.324  36.996  62.278  1.00  0.00    -0.005 C 
HETATM   33  C21 UNL     1      10.731  38.263  61.578  1.00  0.00     0.005 C 
ENDBRANCH  31  32
ENDBRANCH  30  31
ENDBRANCH  28  30
ENDBRANCH  25  28
ENDBRANCH  22  25
ENDBRANCH  19  22
ENDBRANCH   2  19
TORSDOF 17
ENDMDL
