MODEL 1
REMARK VINA RESULT: -8.423847497      0.000      0.000
REMARK  4 active torsions:
REMARK  status: ('A' for Active; 'I' for Inactive)
REMARK    1  A    between atoms: C2_2  and  C3_3 
REMARK    2  A    between atoms: C19_27  and  C20_28 
REMARK    3  A    between atoms: C20_28  and  N5_29 
REMARK    4  A    between atoms: N8_45  and  C28_46 
ROOT
HETATM    1  C3  UNL     1      40.320 -49.569  66.734  1.00  0.00     0.277 C 
HETATM    2  C4  UNL     1      41.157 -48.602  67.511  1.00  0.00    -0.021 A 
HETATM    3  C5  UNL     1      41.627 -48.904  68.762  1.00  0.00     0.010 A 
HETATM    4  C6  UNL     1      42.427 -48.017  69.552  1.00  0.00     0.009 A 
HETATM    5  C7  UNL     1      42.774 -46.781  69.087  1.00  0.00    -0.038 A 
HETATM    6  C8  UNL     1      42.314 -46.450  67.829  1.00  0.00     0.009 A 
HETATM    7  C9  UNL     1      41.524 -47.347  67.070  1.00  0.00     0.010 A 
HETATM    8  C10 UNL     1      43.626 -45.808  69.908  1.00  0.00     0.188 C 
HETATM    9  N1  UNL     1      45.042 -46.021  69.602  1.00  0.00    -0.283 N 
HETATM   10  C11 UNL     1      45.792 -45.726  68.535  1.00  0.00     0.140 A 
HETATM   11  C12 UNL     1      47.043 -46.176  68.835  1.00  0.00     0.070 A 
HETATM   12  N2  UNL     1      47.022 -46.748  70.106  1.00  0.00    -0.287 N 
ATOM     13  H2  UNL     1      47.811 -47.170  70.596  1.00  0.00     0.188 HD
HETATM   14  N3  UNL     1      45.812 -46.643  70.545  1.00  0.00    -0.240 N 
ATOM     15  H3  UNL     1      45.482 -46.971  71.453  1.00  0.00     0.208 HD
HETATM   16  C13 UNL     1      48.337 -46.150  68.059  1.00  0.00     0.292 C 
HETATM   17  N4  UNL     1      48.888 -44.857  67.831  1.00  0.00    -0.066 N 
ATOM     18  H41 UNL     1      49.616 -44.615  68.502  1.00  0.00     0.277 HD
ATOM     19  H42 UNL     1      48.237 -44.105  68.058  1.00  0.00     0.277 HD
HETATM   20  C14 UNL     1      49.357 -44.801  66.433  1.00  0.00     0.271 C 
HETATM   21  C15 UNL     1      48.291 -44.284  65.485  1.00  0.00    -0.032 A 
HETATM   22  C16 UNL     1      47.306 -45.089  65.014  1.00  0.00     0.009 A 
HETATM   23  C17 UNL     1      46.314 -44.593  64.120  1.00  0.00     0.010 A 
HETATM   24  C18 UNL     1      46.268 -43.298  63.670  1.00  0.00    -0.025 A 
HETATM   25  C19 UNL     1      47.252 -42.449  64.131  1.00  0.00    -0.025 A 
HETATM   26  C21 UNL     1      48.238 -42.986  65.034  1.00  0.00     0.018 A 
HETATM   27  C22 UNL     1      45.115 -42.991  62.704  1.00  0.00     0.271 C 
HETATM   28  N6  UNL     1      43.906 -42.609  63.394  1.00  0.00    -0.069 N 
ATOM     29  H61 UNL     1      43.556 -41.693  63.111  1.00  0.00     0.277 HD
ATOM     30  H62 UNL     1      44.059 -42.391  64.379  1.00  0.00     0.277 HD
HETATM   31  C23 UNL     1      42.932 -43.687  63.186  1.00  0.00     0.260 C 
HETATM   32  C24 UNL     1      41.653 -43.163  62.570  1.00  0.00     0.221 C 
HETATM   33  O1  UNL     1      40.686 -44.130  62.676  1.00  0.00    -0.302 OA
HETATM   34  N7  UNL     1      39.450 -43.714  62.366  1.00  0.00    -0.200 NA
HETATM   35  C25 UNL     1      39.385 -42.919  61.178  1.00  0.00     0.143 C 
HETATM   36  C26 UNL     1      38.550 -44.851  62.253  1.00  0.00     0.150 C 
HETATM   37  C27 UNL     1      38.705 -45.820  63.396  1.00  0.00     0.289 C 
HETATM   38  N8  UNL     1      38.794 -47.173  62.892  1.00  0.00     0.091 N 
HETATM   39  C30 UNL     1      39.795 -47.951  63.575  1.00  0.00     0.302 C 
HETATM   40  C31 UNL     1      39.328 -48.606  64.835  1.00  0.00     0.303 C 
HETATM   41  N9  UNL     1      40.254 -49.525  65.324  1.00  0.00     0.098 N 
HETATM   42  C32 UNL     1      41.524 -49.486  64.700  1.00  0.00     0.311 C 
ENDROOT
BRANCH  25  43
HETATM   43  C20 UNL     1      47.546 -40.950  63.923  1.00  0.00     0.268 C 
BRANCH  43  44
HETATM   44  N5  UNL     1      47.838 -40.620  62.535  1.00  0.00    -0.075 N 
ATOM     45  H53 UNL     1      48.819 -40.363  62.419  1.00  0.00     0.274 HD
ATOM     46  H52 UNL     1      47.816 -41.455  61.948  1.00  0.00     0.274 HD
ATOM     47  H51 UNL     1      47.224 -39.895  62.163  1.00  0.00     0.274 HD
ENDBRANCH  43  44
ENDBRANCH  25  43
BRANCH  38  48
HETATM   48  C28 UNL     1      37.542 -47.795  62.682  1.00  0.00     0.268 C 
HETATM   49  C29 UNL     1      37.463 -48.586  61.404  1.00  0.00     0.037 C 
ENDBRANCH  38  48
BRANCH   1  50
HETATM   50  C2  UNL     1      40.676 -51.037  66.935  1.00  0.00     0.003 C 
HETATM   51  C1  UNL     1      39.745 -51.897  67.309  1.00  0.00     0.009 C 
ENDBRANCH   1  50
TORSDOF 4
ENDMDL
MODEL 2
REMARK VINA RESULT: -8.319920764      1.022      1.050
REMARK  4 active torsions:
REMARK  status: ('A' for Active; 'I' for Inactive)
REMARK    1  A    between atoms: C2_2  and  C3_3 
REMARK    2  A    between atoms: C19_27  and  C20_28 
REMARK    3  A    between atoms: C20_28  and  N5_29 
REMARK    4  A    between atoms: N8_45  and  C28_46 
ROOT
HETATM    1  C3  UNL     1      40.216 -49.438  66.710  1.00  0.00     0.277 C 
HETATM    2  C4  UNL     1      41.279 -48.605  67.355  1.00  0.00    -0.021 A 
HETATM    3  C5  UNL     1      41.832 -48.955  68.559  1.00  0.00     0.010 A 
HETATM    4  C6  UNL     1      42.847 -48.195  69.225  1.00  0.00     0.009 A 
HETATM    5  C7  UNL     1      43.333 -47.042  68.678  1.00  0.00    -0.038 A 
HETATM    6  C8  UNL     1      42.795 -46.666  67.465  1.00  0.00     0.009 A 
HETATM    7  C9  UNL     1      41.791 -47.438  66.829  1.00  0.00     0.010 A 
HETATM    8  C10 UNL     1      44.417 -46.205  69.364  1.00  0.00     0.188 C 
HETATM    9  N1  UNL     1      45.738 -46.654  68.918  1.00  0.00    -0.283 N 
HETATM   10  C11 UNL     1      46.401 -46.507  67.766  1.00  0.00     0.140 A 
HETATM   11  C12 UNL     1      47.589 -47.150  67.947  1.00  0.00     0.070 A 
HETATM   12  N2  UNL     1      47.619 -47.685  69.234  1.00  0.00    -0.287 N 
ATOM     13  H2  UNL     1      48.380 -48.220  69.652  1.00  0.00     0.188 HD
HETATM   14  N3  UNL     1      46.498 -47.374  69.796  1.00  0.00    -0.240 N 
ATOM     15  H3  UNL     1      46.224 -47.625  70.745  1.00  0.00     0.208 HD
HETATM   16  C13 UNL     1      48.775 -47.353  67.036  1.00  0.00     0.292 C 
HETATM   17  N4  UNL     1      49.497 -46.172  66.700  1.00  0.00    -0.066 N 
ATOM     18  H41 UNL     1      50.326 -46.039  67.280  1.00  0.00     0.277 HD
ATOM     19  H42 UNL     1      49.005 -45.319  66.967  1.00  0.00     0.277 HD
HETATM   20  C14 UNL     1      49.810 -46.222  65.259  1.00  0.00     0.271 C 
HETATM   21  C15 UNL     1      48.742 -45.557  64.412  1.00  0.00    -0.032 A 
HETATM   22  C16 UNL     1      47.593 -46.200  64.080  1.00  0.00     0.009 A 
HETATM   23  C17 UNL     1      46.600 -45.566  63.280  1.00  0.00     0.010 A 
HETATM   24  C18 UNL     1      46.713 -44.290  62.788  1.00  0.00    -0.025 A 
HETATM   25  C19 UNL     1      47.865 -43.605  63.108  1.00  0.00    -0.025 A 
HETATM   26  C21 UNL     1      48.848 -44.278  63.920  1.00  0.00     0.018 A 
HETATM   27  C22 UNL     1      45.523 -43.819  61.939  1.00  0.00     0.271 C 
HETATM   28  N6  UNL     1      44.476 -43.229  62.740  1.00  0.00    -0.069 N 
ATOM     29  H61 UNL     1      44.248 -42.274  62.461  1.00  0.00     0.277 HD
ATOM     30  H62 UNL     1      44.772 -43.020  63.694  1.00  0.00     0.277 HD
HETATM   31  C23 UNL     1      43.324 -44.137  62.680  1.00  0.00     0.260 C 
HETATM   32  C24 UNL     1      42.085 -43.424  62.184  1.00  0.00     0.221 C 
HETATM   33  O1  UNL     1      40.994 -44.217  62.430  1.00  0.00    -0.302 OA
HETATM   34  N7  UNL     1      39.814 -43.611  62.238  1.00  0.00    -0.200 NA
HETATM   35  C25 UNL     1      39.744 -42.840  61.035  1.00  0.00     0.143 C 
HETATM   36  C26 UNL     1      38.736 -44.587  62.266  1.00  0.00     0.150 C 
HETATM   37  C27 UNL     1      38.860 -45.545  63.422  1.00  0.00     0.289 C 
HETATM   38  N8  UNL     1      38.674 -46.904  62.964  1.00  0.00     0.091 N 
HETATM   39  C30 UNL     1      39.608 -47.821  63.566  1.00  0.00     0.302 C 
HETATM   40  C31 UNL     1      39.186 -48.365  64.892  1.00  0.00     0.303 C 
HETATM   41  N9  UNL     1      40.001 -49.413  65.315  1.00  0.00     0.098 N 
HETATM   42  C32 UNL     1      41.182 -49.595  64.557  1.00  0.00     0.311 C 
ENDROOT
BRANCH  25  43
HETATM   43  C20 UNL     1      48.371 -42.179  62.812  1.00  0.00     0.268 C 
BRANCH  43  44
HETATM   44  N5  UNL     1      47.539 -41.148  63.417  1.00  0.00    -0.075 N 
ATOM     45  H53 UNL     1      47.939 -40.827  64.299  1.00  0.00     0.274 HD
ATOM     46  H52 UNL     1      47.591 -40.278  62.886  1.00  0.00     0.274 HD
ATOM     47  H51 UNL     1      46.571 -41.444  63.541  1.00  0.00     0.274 HD
ENDBRANCH  43  44
ENDBRANCH  25  43
BRANCH  38  48
HETATM   48  C28 UNL     1      37.324 -47.317  62.914  1.00  0.00     0.268 C 
HETATM   49  C29 UNL     1      36.957 -48.045  61.648  1.00  0.00     0.037 C 
ENDBRANCH  38  48
BRANCH   1  50
HETATM   50  C2  UNL     1      40.352 -50.940  66.928  1.00  0.00     0.003 C 
HETATM   51  C1  UNL     1      39.397 -51.605  67.554  1.00  0.00     0.009 C 
ENDBRANCH   1  50
TORSDOF 4
ENDMDL
MODEL 3
REMARK VINA RESULT: -7.960123555      2.509      7.762
REMARK  4 active torsions:
REMARK  status: ('A' for Active; 'I' for Inactive)
REMARK    1  A    between atoms: C2_2  and  C3_3 
REMARK    2  A    between atoms: C19_27  and  C20_28 
REMARK    3  A    between atoms: C20_28  and  N5_29 
REMARK    4  A    between atoms: N8_45  and  C28_46 
ROOT
HETATM    1  C3  UNL     1      40.130 -48.083  70.321  1.00  0.00     0.277 C 
HETATM    2  C4  UNL     1      40.017 -48.248  68.837  1.00  0.00    -0.021 A 
HETATM    3  C5  UNL     1      38.830 -48.588  68.242  1.00  0.00     0.010 A 
HETATM    4  C6  UNL     1      38.665 -48.764  66.831  1.00  0.00     0.009 A 
HETATM    5  C7  UNL     1      39.716 -48.600  65.974  1.00  0.00    -0.038 A 
HETATM    6  C8  UNL     1      40.924 -48.258  66.547  1.00  0.00     0.009 A 
HETATM    7  C9  UNL     1      41.058 -48.090  67.947  1.00  0.00     0.010 A 
HETATM    8  C10 UNL     1      39.573 -48.783  64.460  1.00  0.00     0.188 C 
HETATM    9  N1  UNL     1      39.223 -47.502  63.844  1.00  0.00    -0.283 N 
HETATM   10  C11 UNL     1      39.926 -46.389  63.609  1.00  0.00     0.140 A 
HETATM   11  C12 UNL     1      39.053 -45.529  63.010  1.00  0.00     0.070 A 
HETATM   12  N2  UNL     1      37.814 -46.156  62.893  1.00  0.00    -0.287 N 
ATOM     13  H2  UNL     1      36.967 -45.757  62.486  1.00  0.00     0.188 HD
HETATM   14  N3  UNL     1      37.941 -47.337  63.400  1.00  0.00    -0.240 N 
ATOM     15  H3  UNL     1      37.202 -48.037  63.458  1.00  0.00     0.208 HD
HETATM   16  C13 UNL     1      39.218 -44.119  62.500  1.00  0.00     0.292 C 
HETATM   17  N4  UNL     1      40.089 -43.970  61.383  1.00  0.00    -0.066 N 
ATOM     18  H41 UNL     1      39.588 -43.929  60.495  1.00  0.00     0.277 HD
ATOM     19  H42 UNL     1      40.634 -44.811  61.193  1.00  0.00     0.277 HD
HETATM   20  C14 UNL     1      40.934 -42.783  61.617  1.00  0.00     0.271 C 
HETATM   21  C15 UNL     1      42.234 -43.128  62.317  1.00  0.00    -0.032 A 
HETATM   22  C16 UNL     1      42.294 -43.309  63.661  1.00  0.00     0.009 A 
HETATM   23  C17 UNL     1      43.522 -43.628  64.308  1.00  0.00     0.010 A 
HETATM   24  C18 UNL     1      44.717 -43.776  63.651  1.00  0.00    -0.025 A 
HETATM   25  C19 UNL     1      44.695 -43.604  62.283  1.00  0.00    -0.025 A 
HETATM   26  C21 UNL     1      43.434 -43.282  61.664  1.00  0.00     0.018 A 
HETATM   27  C22 UNL     1      45.913 -44.109  64.554  1.00  0.00     0.271 C 
HETATM   28  N6  UNL     1      46.058 -45.529  64.773  1.00  0.00    -0.069 N 
ATOM     29  H61 UNL     1      46.972 -45.886  64.491  1.00  0.00     0.277 HD
ATOM     30  H62 UNL     1      45.496 -46.091  64.134  1.00  0.00     0.277 HD
HETATM   31  C23 UNL     1      45.751 -45.781  66.186  1.00  0.00     0.260 C 
HETATM   32  C24 UNL     1      46.895 -46.487  66.881  1.00  0.00     0.221 C 
HETATM   33  O1  UNL     1      46.449 -46.961  68.088  1.00  0.00    -0.302 OA
HETATM   34  N7  UNL     1      47.300 -47.793  68.705  1.00  0.00    -0.200 NA
HETATM   35  C25 UNL     1      48.660 -47.348  68.693  1.00  0.00     0.143 C 
HETATM   36  C26 UNL     1      46.868 -48.032  70.074  1.00  0.00     0.150 C 
HETATM   37  C27 UNL     1      45.394 -48.331  70.165  1.00  0.00     0.289 C 
HETATM   38  N8  UNL     1      44.792 -47.545  71.218  1.00  0.00     0.091 N 
HETATM   39  C30 UNL     1      43.511 -47.004  70.839  1.00  0.00     0.302 C 
HETATM   40  C31 UNL     1      42.353 -47.922  71.061  1.00  0.00     0.303 C 
HETATM   41  N9  UNL     1      41.130 -47.273  70.901  1.00  0.00     0.098 N 
HETATM   42  C32 UNL     1      41.209 -45.979  70.336  1.00  0.00     0.311 C 
ENDROOT
BRANCH  25  43
HETATM   43  C20 UNL     1      45.766 -43.716  61.180  1.00  0.00     0.268 C 
BRANCH  43  44
HETATM   44  N5  UNL     1      45.957 -42.471  60.449  1.00  0.00    -0.075 N 
ATOM     45  H53 UNL     1      46.416 -41.771  61.034  1.00  0.00     0.274 HD
ATOM     46  H52 UNL     1      46.670 -42.576  59.727  1.00  0.00     0.274 HD
ATOM     47  H51 UNL     1      45.089 -42.106  60.056  1.00  0.00     0.274 HD
ENDBRANCH  43  44
ENDBRANCH  25  43
BRANCH  38  48
HETATM   48  C28 UNL     1      44.876 -48.135  72.499  1.00  0.00     0.268 C 
HETATM   49  C29 UNL     1      45.216 -47.162  73.596  1.00  0.00     0.037 C 
ENDBRANCH  38  48
BRANCH   1  50
HETATM   50  C2  UNL     1      38.895 -47.503  71.001  1.00  0.00     0.003 C 
HETATM   51  C1  UNL     1      38.082 -48.295  71.679  1.00  0.00     0.009 C 
ENDBRANCH   1  50
TORSDOF 4
ENDMDL
MODEL 4
REMARK VINA RESULT: -7.313712537      3.319      7.793
REMARK  4 active torsions:
REMARK  status: ('A' for Active; 'I' for Inactive)
REMARK    1  A    between atoms: C2_2  and  C3_3 
REMARK    2  A    between atoms: C19_27  and  C20_28 
REMARK    3  A    between atoms: C20_28  and  N5_29 
REMARK    4  A    between atoms: N8_45  and  C28_46 
ROOT
HETATM    1  C3  UNL     1      40.465 -45.084  69.798  1.00  0.00     0.277 C 
HETATM    2  C4  UNL     1      40.699 -45.351  68.344  1.00  0.00    -0.021 A 
HETATM    3  C5  UNL     1      39.827 -44.908  67.384  1.00  0.00     0.010 A 
HETATM    4  C6  UNL     1      39.997 -45.138  65.981  1.00  0.00     0.009 A 
HETATM    5  C7  UNL     1      41.071 -45.836  65.508  1.00  0.00    -0.038 A 
HETATM    6  C8  UNL     1      41.966 -46.295  66.453  1.00  0.00     0.009 A 
HETATM    7  C9  UNL     1      41.772 -46.052  67.835  1.00  0.00     0.010 A 
HETATM    8  C10 UNL     1      41.281 -46.101  64.015  1.00  0.00     0.188 C 
HETATM    9  N1  UNL     1      42.075 -45.016  63.432  1.00  0.00    -0.283 N 
HETATM   10  C11 UNL     1      43.369 -44.693  63.523  1.00  0.00     0.140 A 
HETATM   11  C12 UNL     1      43.518 -43.573  62.760  1.00  0.00     0.070 A 
HETATM   12  N2  UNL     1      42.281 -43.235  62.213  1.00  0.00    -0.287 N 
ATOM     13  H2  UNL     1      42.083 -42.444  61.600  1.00  0.00     0.188 HD
HETATM   14  N3  UNL     1      41.433 -44.115  62.630  1.00  0.00    -0.240 N 
ATOM     15  H3  UNL     1      40.440 -44.136  62.397  1.00  0.00     0.208 HD
HETATM   16  C13 UNL     1      44.721 -42.717  62.449  1.00  0.00     0.292 C 
HETATM   17  N4  UNL     1      45.735 -43.346  61.673  1.00  0.00    -0.066 N 
ATOM     18  H41 UNL     1      45.671 -43.117  60.681  1.00  0.00     0.277 HD
ATOM     19  H42 UNL     1      45.600 -44.354  61.589  1.00  0.00     0.277 HD
HETATM   20  C14 UNL     1      47.043 -42.993  62.258  1.00  0.00     0.271 C 
HETATM   21  C15 UNL     1      47.504 -44.001  63.293  1.00  0.00    -0.032 A 
HETATM   22  C16 UNL     1      47.042 -43.975  64.569  1.00  0.00     0.009 A 
HETATM   23  C17 UNL     1      47.486 -44.924  65.533  1.00  0.00     0.010 A 
HETATM   24  C18 UNL     1      48.394 -45.918  65.268  1.00  0.00    -0.025 A 
HETATM   25  C19 UNL     1      48.883 -45.978  63.980  1.00  0.00    -0.025 A 
HETATM   26  C21 UNL     1      48.410 -45.002  63.031  1.00  0.00     0.018 A 
HETATM   27  C22 UNL     1      48.734 -46.818  66.464  1.00  0.00     0.271 C 
HETATM   28  N6  UNL     1      47.820 -47.929  66.593  1.00  0.00    -0.069 N 
ATOM     29  H61 UNL     1      48.287 -48.836  66.579  1.00  0.00     0.277 HD
ATOM     30  H62 UNL     1      47.239 -48.068  65.766  1.00  0.00     0.277 HD
HETATM   31  C23 UNL     1      47.038 -47.703  67.816  1.00  0.00     0.260 C 
HETATM   32  C24 UNL     1      47.152 -48.875  68.767  1.00  0.00     0.221 C 
HETATM   33  O1  UNL     1      46.185 -48.752  69.732  1.00  0.00    -0.302 OA
HETATM   34  N7  UNL     1      46.036 -49.835  70.507  1.00  0.00    -0.200 NA
HETATM   35  C25 UNL     1      47.270 -50.405  70.954  1.00  0.00     0.143 C 
HETATM   36  C26 UNL     1      45.190 -49.524  71.649  1.00  0.00     0.150 C 
HETATM   37  C27 UNL     1      43.953 -48.760  71.255  1.00  0.00     0.289 C 
HETATM   38  N8  UNL     1      43.767 -47.627  72.134  1.00  0.00     0.091 N 
HETATM   39  C30 UNL     1      43.359 -46.441  71.426  1.00  0.00     0.302 C 
HETATM   40  C31 UNL     1      41.887 -46.322  71.199  1.00  0.00     0.303 C 
HETATM   41  N9  UNL     1      41.528 -45.060  70.726  1.00  0.00     0.098 N 
HETATM   42  C32 UNL     1      42.610 -44.241  70.326  1.00  0.00     0.311 C 
ENDROOT
BRANCH  25  43
HETATM   43  C20 UNL     1      49.856 -46.931  63.256  1.00  0.00     0.268 C 
BRANCH  43  44
HETATM   44  N5  UNL     1      50.193 -46.479  61.913  1.00  0.00    -0.075 N 
ATOM     45  H53 UNL     1      49.463 -45.873  61.537  1.00  0.00     0.274 HD
ATOM     46  H52 UNL     1      50.966 -45.814  61.935  1.00  0.00     0.274 HD
ATOM     47  H51 UNL     1      50.392 -47.250  61.275  1.00  0.00     0.274 HD
ENDBRANCH  43  44
ENDBRANCH  25  43
BRANCH  38  48
HETATM   48  C28 UNL     1      43.064 -47.929  73.323  1.00  0.00     0.268 C 
HETATM   49  C29 UNL     1      43.722 -47.397  74.569  1.00  0.00     0.037 C 
ENDBRANCH  38  48
BRANCH   1  50
HETATM   50  C2  UNL     1      39.813 -43.743  70.111  1.00  0.00     0.003 C 
HETATM   51  C1  UNL     1      38.587 -43.703  70.602  1.00  0.00     0.009 C 
ENDBRANCH   1  50
TORSDOF 4
ENDMDL
MODEL 5
REMARK VINA RESULT: -6.763243623      3.136      7.816
REMARK  4 active torsions:
REMARK  status: ('A' for Active; 'I' for Inactive)
REMARK    1  A    between atoms: C2_2  and  C3_3 
REMARK    2  A    between atoms: C19_27  and  C20_28 
REMARK    3  A    between atoms: C20_28  and  N5_29 
REMARK    4  A    between atoms: N8_45  and  C28_46 
ROOT
HETATM    1  C3  UNL     1      40.846 -46.825  70.290  1.00  0.00     0.277 C 
HETATM    2  C4  UNL     1      40.963 -46.980  68.806  1.00  0.00    -0.021 A 
HETATM    3  C5  UNL     1      39.902 -46.734  67.974  1.00  0.00     0.010 A 
HETATM    4  C6  UNL     1      39.955 -46.870  66.549  1.00  0.00     0.009 A 
HETATM    5  C7  UNL     1      41.102 -47.268  65.923  1.00  0.00    -0.038 A 
HETATM    6  C8  UNL     1      42.186 -47.523  66.737  1.00  0.00     0.009 A 
HETATM    7  C9  UNL     1      42.105 -47.379  68.144  1.00  0.00     0.010 A 
HETATM    8  C10 UNL     1      41.190 -47.425  64.402  1.00  0.00     0.188 C 
HETATM    9  N1  UNL     1      41.625 -46.160  63.805  1.00  0.00    -0.283 N 
HETATM   10  C11 UNL     1      42.805 -45.533  63.775  1.00  0.00     0.140 A 
HETATM   11  C12 UNL     1      42.589 -44.386  63.069  1.00  0.00     0.070 A 
HETATM   12  N2  UNL     1      41.251 -44.345  62.679  1.00  0.00    -0.287 N 
ATOM     13  H2  UNL     1      40.798 -43.607  62.140  1.00  0.00     0.188 HD
HETATM   14  N3  UNL     1      40.695 -45.420  63.131  1.00  0.00    -0.240 N 
ATOM     15  H3  UNL     1      39.716 -45.676  63.005  1.00  0.00     0.208 HD
HETATM   16  C13 UNL     1      43.506 -43.252  62.683  1.00  0.00     0.292 C 
HETATM   17  N4  UNL     1      44.542 -43.588  61.766  1.00  0.00    -0.066 N 
ATOM     18  H41 UNL     1      44.308 -43.350  60.802  1.00  0.00     0.277 HD
ATOM     19  H42 UNL     1      44.643 -44.595  61.637  1.00  0.00     0.277 HD
HETATM   20  C14 UNL     1      45.787 -42.944  62.227  1.00  0.00     0.271 C 
HETATM   21  C15 UNL     1      46.596 -43.841  63.145  1.00  0.00    -0.032 A 
HETATM   22  C16 UNL     1      46.295 -43.969  64.462  1.00  0.00     0.009 A 
HETATM   23  C17 UNL     1      47.066 -44.810  65.314  1.00  0.00     0.010 A 
HETATM   24  C18 UNL     1      48.148 -45.542  64.893  1.00  0.00    -0.025 A 
HETATM   25  C19 UNL     1      48.480 -45.440  63.559  1.00  0.00    -0.025 A 
HETATM   26  C21 UNL     1      47.678 -44.579  62.728  1.00  0.00     0.018 A 
HETATM   27  C22 UNL     1      48.833 -46.370  65.990  1.00  0.00     0.271 C 
HETATM   28  N6  UNL     1      48.235 -47.674  66.150  1.00  0.00    -0.069 N 
ATOM     29  H61 UNL     1      48.901 -48.437  66.031  1.00  0.00     0.277 HD
ATOM     30  H62 UNL     1      47.610 -47.924  65.383  1.00  0.00     0.277 HD
HETATM   31  C23 UNL     1      47.573 -47.686  67.461  1.00  0.00     0.260 C 
HETATM   32  C24 UNL     1      48.076 -48.824  68.322  1.00  0.00     0.221 C 
HETATM   33  O1  UNL     1      47.230 -48.974  69.391  1.00  0.00    -0.302 OA
HETATM   34  N7  UNL     1      47.438 -50.085  70.111  1.00  0.00    -0.200 NA
HETATM   35  C25 UNL     1      48.817 -50.348  70.388  1.00  0.00     0.143 C 
HETATM   36  C26 UNL     1      46.684 -50.027  71.354  1.00  0.00     0.150 C 
HETATM   37  C27 UNL     1      45.262 -49.577  71.141  1.00  0.00     0.289 C 
HETATM   38  N8  UNL     1      44.915 -48.554  72.102  1.00  0.00     0.091 N 
HETATM   39  C30 UNL     1      44.153 -47.482  71.515  1.00  0.00     0.302 C 
HETATM   40  C31 UNL     1      42.679 -47.720  71.454  1.00  0.00     0.303 C 
HETATM   41  N9  UNL     1      41.974 -46.571  71.099  1.00  0.00     0.098 N 
HETATM   42  C32 UNL     1      42.773 -45.499  70.635  1.00  0.00     0.311 C 
ENDROOT
BRANCH  25  43
HETATM   43  C20 UNL     1      49.560 -46.101  62.679  1.00  0.00     0.268 C 
BRANCH  43  44
HETATM   44  N5  UNL     1      50.083 -45.203  61.658  1.00  0.00    -0.075 N 
ATOM     45  H53 UNL     1      49.363 -44.970  60.974  1.00  0.00     0.274 HD
ATOM     46  H52 UNL     1      50.254 -44.273  62.041  1.00  0.00     0.274 HD
ATOM     47  H51 UNL     1      50.917 -45.569  61.200  1.00  0.00     0.274 HD
ENDBRANCH  43  44
ENDBRANCH  25  43
BRANCH  38  48
HETATM   48  C28 UNL     1      44.452 -49.056  73.339  1.00  0.00     0.268 C 
HETATM   49  C29 UNL     1      45.021 -48.343  74.536  1.00  0.00     0.037 C 
ENDBRANCH  38  48
BRANCH   1  50
HETATM   50  C2  UNL     1      39.933 -45.695  70.751  1.00  0.00     0.003 C 
HETATM   51  C1  UNL     1      38.873 -45.964  71.493  1.00  0.00     0.009 C 
ENDBRANCH   1  50
TORSDOF 4
ENDMDL
