MODEL 1
REMARK VINA RESULT: -8.825037183      0.000      0.000
REMARK  5 active torsions:
REMARK  status: ('A' for Active; 'I' for Inactive)
REMARK    1  A    between atoms: C3_3  and  C4_4 
REMARK    2  A    between atoms: C4_4  and  N1_5 
REMARK    3  A    between atoms: C14_21  and  N5_22 
REMARK    4  A    between atoms: N5_22  and  C15_23 
REMARK    5  A    between atoms: C21_32  and  C22_33 
ROOT
HETATM    1  C22 UNL     1      41.387 -45.896  63.760  1.00  0.00    -0.008 A 
HETATM    2  C23 UNL     1      40.493 -46.990  63.809  1.00  0.00     0.016 A 
HETATM    3  C24 UNL     1      39.143 -46.817  63.613  1.00  0.00     0.032 A 
HETATM    4  C25 UNL     1      38.594 -45.583  63.349  1.00  0.00     0.059 A 
HETATM    5  C26 UNL     1      39.436 -44.507  63.296  1.00  0.00    -0.029 A 
HETATM    6  C27 UNL     1      40.769 -44.713  63.513  1.00  0.00     0.023 A 
HETATM    7  C28 UNL     1      38.924 -43.096  62.948  1.00  0.00     0.050 C 
HETATM    8  C29 UNL     1      37.663 -43.198  62.126  1.00  0.00     0.109 C 
HETATM    9  C30 UNL     1      36.713 -44.189  62.680  1.00  0.00     0.237 C 
HETATM   10  O2  UNL     1      35.518 -43.908  62.802  1.00  0.00    -0.272 OA
HETATM   11  N8  UNL     1      37.213 -45.450  63.050  1.00  0.00    -0.218 N 
HETATM   12  C31 UNL     1      36.373 -46.583  63.132  1.00  0.00     0.192 C 
HETATM   13  N9  UNL     1      35.706 -47.507  63.185  1.00  0.00    -0.171 NA
ENDROOT
BRANCH   1  14
HETATM   14  C21 UNL     1      42.779 -46.151  63.990  1.00  0.00     0.054 A 
HETATM   15  C12 UNL     1      43.224 -46.708  65.203  1.00  0.00     0.002 A 
HETATM   16  C11 UNL     1      42.417 -46.551  66.463  1.00  0.00     0.063 C 
HETATM   17  C13 UNL     1      44.586 -46.998  65.350  1.00  0.00     0.089 A 
HETATM   18  C10 UNL     1      42.896 -47.185  67.689  1.00  0.00     0.135 C 
HETATM   19  N3  UNL     1      44.286 -47.535  67.733  1.00  0.00    -0.333 N 
HETATM   20  C2  UNL     1      44.934 -48.052  68.775  1.00  0.00     0.034 A 
HETATM   21  C9  UNL     1      45.075 -47.437  66.667  1.00  0.00     0.136 A 
HETATM   22  C1  UNL     1      44.297 -48.224  70.139  1.00  0.00     0.070 C 
HETATM   23  C3  UNL     1      46.233 -48.314  68.368  1.00  0.00     0.051 A 
HETATM   24  N2  UNL     1      46.284 -47.933  67.080  1.00  0.00    -0.341 N 
ATOM     25  H2  UNL     1      47.112 -48.004  66.487  1.00  0.00     0.167 HD
HETATM   26  N4  UNL     1      45.469 -46.694  64.369  1.00  0.00    -0.312 N 
HETATM   27  C14 UNL     1      45.076 -46.114  63.213  1.00  0.00     0.260 A 
ATOM     28  H4  UNL     1      46.457 -46.909  64.506  1.00  0.00     0.170 HD
HETATM   29  N7  UNL     1      43.711 -45.878  63.055  1.00  0.00    -0.315 N 
ATOM     30  H7  UNL     1      43.397 -45.471  62.174  1.00  0.00     0.170 HD
BRANCH  23  31
HETATM   31  C4  UNL     1      47.281 -48.814  69.253  1.00  0.00     0.176 C 
BRANCH  31  32
HETATM   32  N1  UNL     1      47.730 -50.164  68.972  1.00  0.00    -0.403 N 
HETATM   33  C5  UNL     1      47.150 -51.037  68.069  1.00  0.00     0.143 C 
HETATM   34  C6  UNL     1      47.286 -52.464  68.623  1.00  0.00     0.187 C 
HETATM   35  O1  UNL     1      46.812 -52.607  69.930  1.00  0.00    -0.388 OA
HETATM   36  C7  UNL     1      47.375 -51.754  70.857  1.00  0.00     0.187 C 
HETATM   37  C8  UNL     1      48.269 -50.757  70.208  1.00  0.00     0.143 C 
ENDBRANCH  31  32
ENDBRANCH  23  31
BRANCH  27  38
HETATM   38  N5  UNL     1      45.833 -45.220  62.722  1.00  0.00    -0.371 NA
BRANCH  38  39
HETATM   39  C15 UNL     1      46.570 -44.307  62.220  1.00  0.00     0.113 A 
HETATM   40  C16 UNL     1      45.849 -43.225  61.529  1.00  0.00     0.045 A 
HETATM   41  C17 UNL     1      46.434 -42.144  61.000  1.00  0.00     0.005 A 
HETATM   42  C18 UNL     1      47.784 -41.970  61.078  1.00  0.00     0.027 A 
HETATM   43  C19 UNL     1      48.560 -42.967  61.731  1.00  0.00     0.049 A 
HETATM   44  N6  UNL     1      49.918 -42.611  61.796  1.00  0.00    -0.102 NA
HETATM   45  C20 UNL     1      47.931 -44.094  62.272  1.00  0.00     0.071 A 
ENDBRANCH  38  39
ENDBRANCH  27  38
ENDBRANCH   1  14
TORSDOF 5
ENDMDL
MODEL 2
REMARK VINA RESULT: -8.640159990      4.376      8.824
REMARK  5 active torsions:
REMARK  status: ('A' for Active; 'I' for Inactive)
REMARK    1  A    between atoms: C3_3  and  C4_4 
REMARK    2  A    between atoms: C4_4  and  N1_5 
REMARK    3  A    between atoms: C14_21  and  N5_22 
REMARK    4  A    between atoms: N5_22  and  C15_23 
REMARK    5  A    between atoms: C21_32  and  C22_33 
ROOT
HETATM    1  C22 UNL     1      43.633 -44.606  64.514  1.00  0.00    -0.008 A 
HETATM    2  C23 UNL     1      44.473 -45.734  64.661  1.00  0.00     0.016 A 
HETATM    3  C24 UNL     1      45.723 -45.771  64.086  1.00  0.00     0.032 A 
HETATM    4  C25 UNL     1      46.224 -44.719  63.355  1.00  0.00     0.059 A 
HETATM    5  C26 UNL     1      45.432 -43.615  63.198  1.00  0.00    -0.029 A 
HETATM    6  C27 UNL     1      44.190 -43.619  63.767  1.00  0.00     0.023 A 
HETATM    7  C28 UNL     1      45.928 -42.364  62.446  1.00  0.00     0.050 C 
HETATM    8  C29 UNL     1      47.434 -42.298  62.504  1.00  0.00     0.109 C 
HETATM    9  C30 UNL     1      48.063 -43.606  62.212  1.00  0.00     0.237 C 
HETATM   10  O2  UNL     1      49.011 -43.681  61.426  1.00  0.00    -0.272 OA
HETATM   11  N8  UNL     1      47.554 -44.745  62.861  1.00  0.00    -0.218 N 
HETATM   12  C31 UNL     1      48.334 -45.910  63.030  1.00  0.00     0.192 C 
HETATM   13  N9  UNL     1      48.962 -46.850  63.186  1.00  0.00    -0.171 NA
ENDROOT
BRANCH   1  14
HETATM   14  C21 UNL     1      42.338 -44.645  65.129  1.00  0.00     0.054 A 
HETATM   15  C12 UNL     1      42.171 -45.138  66.436  1.00  0.00     0.002 A 
HETATM   16  C11 UNL     1      43.154 -46.114  67.023  1.00  0.00     0.063 C 
HETATM   17  C13 UNL     1      40.896 -45.093  67.014  1.00  0.00     0.089 A 
HETATM   18  C10 UNL     1      42.965 -46.563  68.400  1.00  0.00     0.135 C 
HETATM   19  N3  UNL     1      41.652 -46.404  68.954  1.00  0.00    -0.333 N 
HETATM   20  C2  UNL     1      41.252 -46.810  70.157  1.00  0.00     0.034 A 
HETATM   21  C9  UNL     1      40.689 -45.744  68.317  1.00  0.00     0.136 A 
HETATM   22  C1  UNL     1      42.125 -47.637  71.080  1.00  0.00     0.070 C 
HETATM   23  C3  UNL     1      39.942 -46.388  70.324  1.00  0.00     0.051 A 
HETATM   24  N2  UNL     1      39.632 -45.738  69.189  1.00  0.00    -0.341 N 
ATOM     25  H2  UNL     1      38.731 -45.298  69.002  1.00  0.00     0.167 HD
HETATM   26  N4  UNL     1      39.831 -44.641  66.308  1.00  0.00    -0.312 N 
HETATM   27  C14 UNL     1      39.955 -44.208  65.033  1.00  0.00     0.260 A 
ATOM     28  H4  UNL     1      38.912 -44.628  66.750  1.00  0.00     0.170 HD
HETATM   29  N7  UNL     1      41.237 -44.207  64.486  1.00  0.00    -0.315 N 
ATOM     30  H7  UNL     1      41.350 -43.852  63.536  1.00  0.00     0.170 HD
BRANCH  23  31
HETATM   31  C4  UNL     1      39.122 -46.709  71.490  1.00  0.00     0.176 C 
BRANCH  31  32
HETATM   32  N1  UNL     1      38.901 -45.609  72.407  1.00  0.00    -0.403 N 
HETATM   33  C5  UNL     1      39.432 -45.499  73.681  1.00  0.00     0.143 C 
HETATM   34  C6  UNL     1      38.403 -44.784  74.570  1.00  0.00     0.187 C 
HETATM   35  O1  UNL     1      37.132 -45.364  74.538  1.00  0.00    -0.388 OA
HETATM   36  C7  UNL     1      36.571 -45.484  73.283  1.00  0.00     0.187 C 
HETATM   37  C8  UNL     1      37.534 -45.093  72.217  1.00  0.00     0.143 C 
ENDBRANCH  31  32
ENDBRANCH  23  31
BRANCH  27  38
HETATM   38  N5  UNL     1      39.028 -44.514  64.220  1.00  0.00    -0.371 NA
BRANCH  38  39
HETATM   39  C15 UNL     1      38.081 -44.830  63.426  1.00  0.00     0.113 A 
HETATM   40  C16 UNL     1      38.065 -46.238  62.995  1.00  0.00     0.045 A 
HETATM   41  C17 UNL     1      37.116 -46.781  62.222  1.00  0.00     0.005 A 
HETATM   42  C18 UNL     1      36.065 -46.037  61.776  1.00  0.00     0.027 A 
HETATM   43  C19 UNL     1      35.999 -44.665  62.146  1.00  0.00     0.049 A 
HETATM   44  N6  UNL     1      34.825 -44.054  61.675  1.00  0.00    -0.102 NA
HETATM   45  C20 UNL     1      37.004 -44.113  62.950  1.00  0.00     0.071 A 
ENDBRANCH  38  39
ENDBRANCH  27  38
ENDBRANCH   1  14
TORSDOF 5
ENDMDL
MODEL 3
REMARK VINA RESULT: -8.588796706      0.913      1.747
REMARK  5 active torsions:
REMARK  status: ('A' for Active; 'I' for Inactive)
REMARK    1  A    between atoms: C3_3  and  C4_4 
REMARK    2  A    between atoms: C4_4  and  N1_5 
REMARK    3  A    between atoms: C14_21  and  N5_22 
REMARK    4  A    between atoms: N5_22  and  C15_23 
REMARK    5  A    between atoms: C21_32  and  C22_33 
ROOT
HETATM    1  C22 UNL     1      41.880 -46.266  63.686  1.00  0.00    -0.008 A 
HETATM    2  C23 UNL     1      41.318 -44.979  63.525  1.00  0.00     0.016 A 
HETATM    3  C24 UNL     1      39.977 -44.815  63.264  1.00  0.00     0.032 A 
HETATM    4  C25 UNL     1      39.116 -45.882  63.161  1.00  0.00     0.059 A 
HETATM    5  C26 UNL     1      39.633 -47.139  63.312  1.00  0.00    -0.029 A 
HETATM    6  C27 UNL     1      40.972 -47.266  63.552  1.00  0.00     0.023 A 
HETATM    7  C28 UNL     1      38.737 -48.392  63.271  1.00  0.00     0.050 C 
HETATM    8  C29 UNL     1      37.328 -48.027  63.668  1.00  0.00     0.109 C 
HETATM    9  C30 UNL     1      36.862 -46.791  63.000  1.00  0.00     0.237 C 
HETATM   10  O2  UNL     1      35.748 -46.748  62.473  1.00  0.00    -0.272 OA
HETATM   11  N8  UNL     1      37.721 -45.677  62.993  1.00  0.00    -0.218 N 
HETATM   12  C31 UNL     1      37.228 -44.365  62.824  1.00  0.00     0.192 C 
HETATM   13  N9  UNL     1      36.838 -43.299  62.704  1.00  0.00    -0.171 NA
ENDROOT
BRANCH   1  14
HETATM   14  C21 UNL     1      43.288 -46.361  63.940  1.00  0.00     0.054 A 
HETATM   15  C12 UNL     1      43.772 -46.864  65.161  1.00  0.00     0.002 A 
HETATM   16  C11 UNL     1      42.931 -46.803  66.407  1.00  0.00     0.063 C 
HETATM   17  C13 UNL     1      45.157 -46.996  65.333  1.00  0.00     0.089 A 
HETATM   18  C10 UNL     1      43.458 -47.380  67.641  1.00  0.00     0.135 C 
HETATM   19  N3  UNL     1      44.878 -47.567  67.710  1.00  0.00    -0.333 N 
HETATM   20  C2  UNL     1      45.562 -48.008  68.763  1.00  0.00     0.034 A 
HETATM   21  C9  UNL     1      45.669 -47.377  66.659  1.00  0.00     0.136 A 
HETATM   22  C1  UNL     1      44.925 -48.254  70.116  1.00  0.00     0.070 C 
HETATM   23  C3  UNL     1      46.890 -48.118  68.379  1.00  0.00     0.051 A 
HETATM   24  N2  UNL     1      46.919 -47.732  67.092  1.00  0.00    -0.341 N 
ATOM     25  H2  UNL     1      47.760 -47.707  66.515  1.00  0.00     0.167 HD
HETATM   26  N4  UNL     1      46.016 -46.591  64.367  1.00  0.00    -0.312 N 
HETATM   27  C14 UNL     1      45.579 -46.059  63.203  1.00  0.00     0.260 A 
ATOM     28  H4  UNL     1      47.019 -46.691  64.522  1.00  0.00     0.170 HD
HETATM   29  N7  UNL     1      44.199 -45.980  63.021  1.00  0.00    -0.315 N 
ATOM     30  H7  UNL     1      43.856 -45.611  62.134  1.00  0.00     0.170 HD
BRANCH  23  31
HETATM   31  C4  UNL     1      47.973 -48.496  69.283  1.00  0.00     0.176 C 
BRANCH  31  32
HETATM   32  N1  UNL     1      48.246 -49.918  69.353  1.00  0.00    -0.403 N 
HETATM   33  C5  UNL     1      47.863 -50.862  68.417  1.00  0.00     0.143 C 
HETATM   34  C6  UNL     1      47.551 -52.173  69.155  1.00  0.00     0.187 C 
HETATM   35  O1  UNL     1      46.646 -52.024  70.208  1.00  0.00    -0.388 OA
HETATM   36  C7  UNL     1      47.000 -51.094  71.163  1.00  0.00     0.187 C 
HETATM   37  C8  UNL     1      48.222 -50.343  70.764  1.00  0.00     0.143 C 
ENDBRANCH  31  32
ENDBRANCH  23  31
BRANCH  27  38
HETATM   38  N5  UNL     1      46.237 -45.083  62.725  1.00  0.00    -0.371 NA
BRANCH  38  39
HETATM   39  C15 UNL     1      46.874 -44.094  62.231  1.00  0.00     0.113 A 
HETATM   40  C16 UNL     1      46.035 -43.026  61.664  1.00  0.00     0.045 A 
HETATM   41  C17 UNL     1      46.508 -41.877  61.164  1.00  0.00     0.005 A 
HETATM   42  C18 UNL     1      47.845 -41.616  61.155  1.00  0.00     0.027 A 
HETATM   43  C19 UNL     1      48.731 -42.594  61.686  1.00  0.00     0.049 A 
HETATM   44  N6  UNL     1      50.064 -42.150  61.677  1.00  0.00    -0.102 NA
HETATM   45  C20 UNL     1      48.218 -43.791  62.199  1.00  0.00     0.071 A 
ENDBRANCH  38  39
ENDBRANCH  27  38
ENDBRANCH   1  14
TORSDOF 5
ENDMDL
MODEL 4
REMARK VINA RESULT: -8.505859081      1.514      1.998
REMARK  5 active torsions:
REMARK  status: ('A' for Active; 'I' for Inactive)
REMARK    1  A    between atoms: C3_3  and  C4_4 
REMARK    2  A    between atoms: C4_4  and  N1_5 
REMARK    3  A    between atoms: C14_21  and  N5_22 
REMARK    4  A    between atoms: N5_22  and  C15_23 
REMARK    5  A    between atoms: C21_32  and  C22_33 
ROOT
HETATM    1  C22 UNL     1      41.051 -46.000  63.770  1.00  0.00    -0.008 A 
HETATM    2  C23 UNL     1      40.137 -47.074  63.867  1.00  0.00     0.016 A 
HETATM    3  C24 UNL     1      38.791 -46.886  63.657  1.00  0.00     0.032 A 
HETATM    4  C25 UNL     1      38.267 -45.656  63.331  1.00  0.00     0.059 A 
HETATM    5  C26 UNL     1      39.128 -44.599  63.230  1.00  0.00    -0.029 A 
HETATM    6  C27 UNL     1      40.456 -44.819  63.463  1.00  0.00     0.023 A 
HETATM    7  C28 UNL     1      38.643 -43.197  62.813  1.00  0.00     0.050 C 
HETATM    8  C29 UNL     1      37.384 -43.316  61.991  1.00  0.00     0.109 C 
HETATM    9  C30 UNL     1      36.414 -44.262  62.587  1.00  0.00     0.237 C 
HETATM   10  O2  UNL     1      35.224 -43.954  62.691  1.00  0.00    -0.272 OA
HETATM   11  N8  UNL     1      36.889 -45.513  63.020  1.00  0.00    -0.218 N 
HETATM   12  C31 UNL     1      36.028 -46.625  63.152  1.00  0.00     0.192 C 
HETATM   13  N9  UNL     1      35.345 -47.533  63.246  1.00  0.00    -0.171 NA
ENDROOT
BRANCH   1  14
HETATM   14  C21 UNL     1      42.438 -46.269  64.017  1.00  0.00     0.054 A 
HETATM   15  C12 UNL     1      42.862 -46.815  65.242  1.00  0.00     0.002 A 
HETATM   16  C11 UNL     1      42.045 -46.631  66.492  1.00  0.00     0.063 C 
HETATM   17  C13 UNL     1      44.220 -47.120  65.409  1.00  0.00     0.089 A 
HETATM   18  C10 UNL     1      42.502 -47.255  67.731  1.00  0.00     0.135 C 
HETATM   19  N3  UNL     1      43.887 -47.621  67.795  1.00  0.00    -0.333 N 
HETATM   20  C2  UNL     1      44.518 -48.131  68.850  1.00  0.00     0.034 A 
HETATM   21  C9  UNL     1      44.689 -47.546  66.737  1.00  0.00     0.136 A 
HETATM   22  C1  UNL     1      43.864 -48.278  70.209  1.00  0.00     0.070 C 
HETATM   23  C3  UNL     1      45.818 -48.414  68.461  1.00  0.00     0.051 A 
HETATM   24  N2  UNL     1      45.887 -48.052  67.168  1.00  0.00    -0.341 N 
ATOM     25  H2  UNL     1      46.720 -48.141  66.586  1.00  0.00     0.167 HD
HETATM   26  N4  UNL     1      45.117 -46.840  64.433  1.00  0.00    -0.312 N 
HETATM   27  C14 UNL     1      44.743 -46.270  63.265  1.00  0.00     0.260 A 
ATOM     28  H4  UNL     1      46.100 -47.064  64.584  1.00  0.00     0.170 HD
HETATM   29  N7  UNL     1      43.383 -46.019  63.089  1.00  0.00    -0.315 N 
ATOM     30  H7  UNL     1      43.083 -45.620  62.199  1.00  0.00     0.170 HD
BRANCH  23  31
HETATM   31  C4  UNL     1      46.850 -48.916  69.364  1.00  0.00     0.176 C 
BRANCH  31  32
HETATM   32  N1  UNL     1      47.947 -48.001  69.612  1.00  0.00    -0.403 N 
HETATM   33  C5  UNL     1      47.834 -46.635  69.800  1.00  0.00     0.143 C 
HETATM   34  C6  UNL     1      49.077 -45.962  69.199  1.00  0.00     0.187 C 
HETATM   35  O1  UNL     1      49.331 -46.329  67.875  1.00  0.00    -0.388 OA
HETATM   36  C7  UNL     1      49.455 -47.685  67.653  1.00  0.00     0.187 C 
HETATM   37  C8  UNL     1      49.137 -48.468  68.878  1.00  0.00     0.143 C 
ENDBRANCH  31  32
ENDBRANCH  23  31
BRANCH  27  38
HETATM   38  N5  UNL     1      45.516 -45.392  62.770  1.00  0.00    -0.371 NA
BRANCH  38  39
HETATM   39  C15 UNL     1      46.274 -44.489  62.281  1.00  0.00     0.113 A 
HETATM   40  C16 UNL     1      45.582 -43.418  61.545  1.00  0.00     0.045 A 
HETATM   41  C17 UNL     1      46.190 -42.347  61.020  1.00  0.00     0.005 A 
HETATM   42  C18 UNL     1      47.536 -42.175  61.145  1.00  0.00     0.027 A 
HETATM   43  C19 UNL     1      48.285 -43.163  61.843  1.00  0.00     0.049 A 
HETATM   44  N6  UNL     1      49.640 -42.809  61.953  1.00  0.00    -0.102 NA
HETATM   45  C20 UNL     1      47.633 -44.279  62.380  1.00  0.00     0.071 A 
ENDBRANCH  38  39
ENDBRANCH  27  38
ENDBRANCH   1  14
TORSDOF 5
ENDMDL
MODEL 5
REMARK VINA RESULT: -8.479377799      4.299      8.932
REMARK  5 active torsions:
REMARK  status: ('A' for Active; 'I' for Inactive)
REMARK    1  A    between atoms: C3_3  and  C4_4 
REMARK    2  A    between atoms: C4_4  and  N1_5 
REMARK    3  A    between atoms: C14_21  and  N5_22 
REMARK    4  A    between atoms: N5_22  and  C15_23 
REMARK    5  A    between atoms: C21_32  and  C22_33 
ROOT
HETATM    1  C22 UNL     1      43.640 -44.389  64.521  1.00  0.00    -0.008 A 
HETATM    2  C23 UNL     1      43.864 -43.371  63.566  1.00  0.00     0.016 A 
HETATM    3  C24 UNL     1      45.088 -43.223  62.954  1.00  0.00     0.032 A 
HETATM    4  C25 UNL     1      46.147 -44.058  63.227  1.00  0.00     0.059 A 
HETATM    5  C26 UNL     1      45.958 -45.052  64.147  1.00  0.00    -0.029 A 
HETATM    6  C27 UNL     1      44.736 -45.158  64.747  1.00  0.00     0.023 A 
HETATM    7  C28 UNL     1      47.066 -46.072  64.474  1.00  0.00     0.050 C 
HETATM    8  C29 UNL     1      48.003 -46.203  63.300  1.00  0.00     0.109 C 
HETATM    9  C30 UNL     1      48.384 -44.887  62.739  1.00  0.00     0.237 C 
HETATM   10  O2  UNL     1      49.564 -44.637  62.480  1.00  0.00    -0.272 OA
HETATM   11  N8  UNL     1      47.365 -43.947  62.506  1.00  0.00    -0.218 N 
HETATM   12  C31 UNL     1      47.527 -42.897  61.576  1.00  0.00     0.192 C 
HETATM   13  N9  UNL     1      47.641 -42.055  60.814  1.00  0.00    -0.171 NA
ENDROOT
BRANCH   1  14
HETATM   14  C21 UNL     1      42.344 -44.471  65.128  1.00  0.00     0.054 A 
HETATM   15  C12 UNL     1      42.184 -44.981  66.429  1.00  0.00     0.002 A 
HETATM   16  C11 UNL     1      43.191 -45.934  67.012  1.00  0.00     0.063 C 
HETATM   17  C13 UNL     1      40.904 -44.979  67.000  1.00  0.00     0.089 A 
HETATM   18  C10 UNL     1      43.008 -46.401  68.384  1.00  0.00     0.135 C 
HETATM   19  N3  UNL     1      41.688 -46.286  68.932  1.00  0.00    -0.333 N 
HETATM   20  C2  UNL     1      41.293 -46.715  70.129  1.00  0.00     0.034 A 
HETATM   21  C9  UNL     1      40.710 -45.648  68.296  1.00  0.00     0.136 A 
HETATM   22  C1  UNL     1      42.184 -47.525  71.049  1.00  0.00     0.070 C 
HETATM   23  C3  UNL     1      39.970 -46.332  70.293  1.00  0.00     0.051 A 
HETATM   24  N2  UNL     1      39.649 -45.681  69.162  1.00  0.00    -0.341 N 
ATOM     25  H2  UNL     1      38.736 -45.265  68.974  1.00  0.00     0.167 HD
HETATM   26  N4  UNL     1      39.831 -44.550  66.292  1.00  0.00    -0.312 N 
HETATM   27  C14 UNL     1      39.949 -44.101  65.023  1.00  0.00     0.260 A 
ATOM     28  H4  UNL     1      38.910 -44.568  66.730  1.00  0.00     0.170 HD
HETATM   29  N7  UNL     1      41.234 -44.058  64.483  1.00  0.00    -0.315 N 
ATOM     30  H7  UNL     1      41.341 -43.691  63.537  1.00  0.00     0.170 HD
BRANCH  23  31
HETATM   31  C4  UNL     1      39.155 -46.688  71.450  1.00  0.00     0.176 C 
BRANCH  31  32
HETATM   32  N1  UNL     1      38.916 -45.610  72.390  1.00  0.00    -0.403 N 
HETATM   33  C5  UNL     1      39.419 -45.533  73.677  1.00  0.00     0.143 C 
HETATM   34  C6  UNL     1      38.373 -44.836  74.560  1.00  0.00     0.187 C 
HETATM   35  O1  UNL     1      37.101 -45.409  74.485  1.00  0.00    -0.388 OA
HETATM   36  C7  UNL     1      36.568 -45.496  73.216  1.00  0.00     0.187 C 
HETATM   37  C8  UNL     1      37.556 -45.084  72.181  1.00  0.00     0.143 C 
ENDBRANCH  31  32
ENDBRANCH  23  31
BRANCH  27  38
HETATM   38  N5  UNL     1      39.036 -44.426  64.202  1.00  0.00    -0.371 NA
BRANCH  38  39
HETATM   39  C15 UNL     1      38.105 -44.767  63.398  1.00  0.00     0.113 A 
HETATM   40  C16 UNL     1      38.159 -46.161  62.929  1.00  0.00     0.045 A 
HETATM   41  C17 UNL     1      37.239 -46.730  62.140  1.00  0.00     0.005 A 
HETATM   42  C18 UNL     1      36.152 -46.027  61.714  1.00  0.00     0.027 A 
HETATM   43  C19 UNL     1      36.018 -44.671  62.121  1.00  0.00     0.049 A 
HETATM   44  N6  UNL     1      34.815 -44.106  61.666  1.00  0.00    -0.102 NA
HETATM   45  C20 UNL     1      36.994 -44.092  62.940  1.00  0.00     0.071 A 
ENDBRANCH  38  39
ENDBRANCH  27  38
ENDBRANCH   1  14
TORSDOF 5
ENDMDL
