MODEL 1
REMARK VINA RESULT: -6.776900026      0.000      0.000
REMARK  9 active torsions:
REMARK  status: ('A' for Active; 'I' for Inactive)
REMARK    1  A    between atoms: C2_3  and  N2_4 
REMARK    2  A    between atoms: C3_9  and  O1_10 
REMARK    3  A    between atoms: O1_10  and  C4_11 
REMARK    4  A    between atoms: C5_13  and  N4_14 
REMARK    5  A    between atoms: N4_14  and  N5_16 
REMARK    6  A    between atoms: C6_22  and  N7_23 
REMARK    7  A    between atoms: C6_22  and  C7_27 
REMARK    8  A    between atoms: C7_27  and  O4_28 
REMARK    9  A    between atoms: O4_28  and  N8_29 
ROOT
HETATM    1  C4  UNL     1      40.832  34.043  60.475  1.00  0.00     0.335 C 
HETATM    2  O2  UNL     1      39.934  34.784  61.362  1.00  0.00    -0.307 OA
HETATM    3  C5  UNL     1      40.702  34.941  62.508  1.00  0.00     0.392 C 
HETATM    4  O3  UNL     1      41.743  34.054  62.501  1.00  0.00    -0.299 OA
HETATM    5  C6  UNL     1      41.348  33.106  61.528  1.00  0.00     0.301 C 
ENDROOT
BRANCH   1   6
HETATM    6  O1  UNL     1      41.814  34.912  60.104  1.00  0.00    -0.305 OA
BRANCH   6   7
HETATM    7  C3  UNL     1      41.814  35.376  58.810  1.00  0.00     0.253 C 
HETATM    8  N3  UNL     1      43.030  36.140  58.586  1.00  0.00    -0.310 N 
HETATM    9  C2  UNL     1      43.990  35.233  58.068  1.00  0.00     0.175 C 
ATOM     10  H3  UNL     1      43.166  37.134  58.767  1.00  0.00     0.167 HD
HETATM   11  N1  UNL     1      43.373  34.018  57.695  1.00  0.00    -0.337 N 
HETATM   12  C1  UNL     1      44.076  32.873  57.163  1.00  0.00     0.154 C 
HETATM   13  C9  UNL     1      41.953  34.142  57.940  1.00  0.00     0.235 C 
HETATM   14  S1  UNL     1      41.184  34.661  56.385  1.00  0.00    -0.062 SA
HETATM   15  C8  UNL     1      40.269  36.062  57.099  1.00  0.00     0.139 C 
HETATM   16  N9  UNL     1      40.639  36.036  58.481  1.00  0.00    -0.319 N 
HETATM   17  N10 UNL     1      39.516  36.816  56.506  1.00  0.00    -0.380 N 
ATOM     18  H9  UNL     1      40.063  36.484  59.193  1.00  0.00     0.166 HD
ATOM     19 2H10 UNL     1      39.004  37.602  56.907  1.00  0.00     0.158 HD
ATOM     20 1H10 UNL     1      39.252  36.834  55.521  1.00  0.00     0.158 HD
BRANCH   9  21
HETATM   21  N2  UNL     1      45.262  35.518  57.970  1.00  0.00    -0.371 N 
ATOM     22  H22 UNL     1      45.902  35.007  57.362  1.00  0.00     0.159 HD
ATOM     23  H21 UNL     1      45.755  36.259  58.466  1.00  0.00     0.159 HD
ENDBRANCH   9  21
ENDBRANCH   6   7
ENDBRANCH   1   6
BRANCH   5  24
HETATM   24  N7  UNL     1      40.264  32.348  62.129  1.00  0.00    -0.039 N 
ATOM     25  H73 UNL     1      39.732  32.912  62.792  1.00  0.00     0.278 HD
ATOM     26  H72 UNL     1      39.520  32.158  61.456  1.00  0.00     0.278 HD
ATOM     27  H71 UNL     1      40.610  31.489  62.558  1.00  0.00     0.278 HD
ENDBRANCH   5  24
BRANCH   5  28
HETATM   28  C7  UNL     1      42.467  32.261  61.057  1.00  0.00     0.274 C 
BRANCH  28  29
HETATM   29  O4  UNL     1      42.071  31.280  60.161  1.00  0.00    -0.282 OA
BRANCH  29  30
HETATM   30  N8  UNL     1      43.141  30.523  59.830  1.00  0.00    -0.311 N 
ATOM     31  H82 UNL     1      43.764  30.711  59.045  1.00  0.00     0.184 HD
ATOM     32  H81 UNL     1      43.216  29.745  60.485  1.00  0.00     0.184 HD
ENDBRANCH  29  30
ENDBRANCH  28  29
ENDBRANCH   5  28
BRANCH   3  33
HETATM   33  N4  UNL     1      39.964  34.810  63.732  1.00  0.00    -0.271 N 
ATOM     34  H4  UNL     1      39.879  33.903  64.191  1.00  0.00     0.187 HD
BRANCH  33  35
HETATM   35  N5  UNL     1      39.435  35.811  64.219  1.00  0.00    -0.250 N 
HETATM   36  N6  UNL     1      39.192  37.006  64.397  1.00  0.00    -0.331 N 
ATOM     37  H62 UNL     1      39.836  37.384  63.702  1.00  0.00     0.178 HD
ATOM     38  H61 UNL     1      38.754  37.834  64.800  1.00  0.00     0.178 HD
ATOM     39  H5  UNL     1      38.808  35.383  64.900  1.00  0.00     0.207 HD
ENDBRANCH  33  35
ENDBRANCH   3  33
TORSDOF 9
ENDMDL
MODEL 2
REMARK VINA RESULT: -6.716976979      3.486      6.313
REMARK  9 active torsions:
REMARK  status: ('A' for Active; 'I' for Inactive)
REMARK    1  A    between atoms: C2_3  and  N2_4 
REMARK    2  A    between atoms: C3_9  and  O1_10 
REMARK    3  A    between atoms: O1_10  and  C4_11 
REMARK    4  A    between atoms: C5_13  and  N4_14 
REMARK    5  A    between atoms: N4_14  and  N5_16 
REMARK    6  A    between atoms: C6_22  and  N7_23 
REMARK    7  A    between atoms: C6_22  and  C7_27 
REMARK    8  A    between atoms: C7_27  and  O4_28 
REMARK    9  A    between atoms: O4_28  and  N8_29 
ROOT
HETATM    1  C4  UNL     1      45.208  32.271  58.300  1.00  0.00     0.335 C 
HETATM    2  O2  UNL     1      45.592  32.225  56.889  1.00  0.00    -0.307 OA
HETATM    3  C5  UNL     1      44.787  31.210  56.389  1.00  0.00     0.392 C 
HETATM    4  O3  UNL     1      44.306  30.445  57.416  1.00  0.00    -0.299 OA
HETATM    5  C6  UNL     1      45.157  30.783  58.493  1.00  0.00     0.301 C 
ENDROOT
BRANCH   1   6
HETATM    6  O1  UNL     1      43.949  32.790  58.343  1.00  0.00    -0.305 OA
BRANCH   6   7
HETATM    7  C3  UNL     1      43.802  34.148  58.195  1.00  0.00     0.253 C 
HETATM    8  N3  UNL     1      43.383  34.428  56.831  1.00  0.00    -0.310 N 
HETATM    9  C2  UNL     1      41.964  34.459  56.841  1.00  0.00     0.175 C 
ATOM     10  H3  UNL     1      43.990  34.574  56.025  1.00  0.00     0.167 HD
HETATM   11  N1  UNL     1      41.478  34.492  58.167  1.00  0.00    -0.337 N 
HETATM   12  C1  UNL     1      40.079  34.496  58.526  1.00  0.00     0.154 C 
HETATM   13  C9  UNL     1      42.615  34.522  59.061  1.00  0.00     0.235 C 
HETATM   14  S1  UNL     1      42.941  36.259  59.457  1.00  0.00    -0.062 SA
HETATM   15  C8  UNL     1      44.713  36.204  59.049  1.00  0.00     0.139 C 
HETATM   16  N9  UNL     1      44.918  34.855  58.620  1.00  0.00    -0.319 N 
HETATM   17  N10 UNL     1      45.509  37.123  59.145  1.00  0.00    -0.380 N 
ATOM     18  H9  UNL     1      45.845  34.430  58.627  1.00  0.00     0.166 HD
ATOM     19 2H10 UNL     1      46.502  37.092  58.915  1.00  0.00     0.158 HD
ATOM     20 1H10 UNL     1      45.363  38.085  59.451  1.00  0.00     0.158 HD
BRANCH   9  21
HETATM   21  N2  UNL     1      41.242  34.454  55.751  1.00  0.00    -0.371 N 
ATOM     22  H22 UNL     1      40.474  35.104  55.589  1.00  0.00     0.159 HD
ATOM     23  H21 UNL     1      41.353  33.824  54.956  1.00  0.00     0.159 HD
ENDBRANCH   9  21
ENDBRANCH   6   7
ENDBRANCH   1   6
BRANCH   5  24
HETATM   24  N7  UNL     1      46.441  30.173  58.193  1.00  0.00    -0.039 N 
ATOM     25  H73 UNL     1      46.496  29.871  57.221  1.00  0.00     0.278 HD
ATOM     26  H72 UNL     1      47.192  30.864  58.183  1.00  0.00     0.278 HD
ATOM     27  H71 UNL     1      46.643  29.408  58.837  1.00  0.00     0.278 HD
ENDBRANCH   5  24
BRANCH   5  28
HETATM   28  C7  UNL     1      44.609  30.386  59.809  1.00  0.00     0.274 C 
BRANCH  28  29
HETATM   29  O4  UNL     1      43.311  29.904  59.736  1.00  0.00    -0.282 OA
BRANCH  29  30
HETATM   30  N8  UNL     1      42.452  30.886  60.088  1.00  0.00    -0.311 N 
ATOM     31  H82 UNL     1      42.668  31.883  60.061  1.00  0.00     0.184 HD
ATOM     32  H81 UNL     1      41.568  30.469  60.381  1.00  0.00     0.184 HD
ENDBRANCH  29  30
ENDBRANCH  28  29
ENDBRANCH   5  28
BRANCH   3  33
HETATM   33  N4  UNL     1      45.435  30.370  55.423  1.00  0.00    -0.271 N 
ATOM     34  H4  UNL     1      45.173  29.387  55.332  1.00  0.00     0.187 HD
BRANCH  33  35
HETATM   35  N5  UNL     1      46.312  30.852  54.704  1.00  0.00    -0.250 N 
HETATM   36  N6  UNL     1      47.249  31.582  54.375  1.00  0.00    -0.331 N 
ATOM     37  H62 UNL     1      47.341  32.096  55.251  1.00  0.00     0.178 HD
ATOM     38  H61 UNL     1      47.975  31.982  53.781  1.00  0.00     0.178 HD
ATOM     39  H5  UNL     1      46.180  30.311  53.850  1.00  0.00     0.207 HD
ENDBRANCH  33  35
ENDBRANCH   3  33
TORSDOF 9
ENDMDL
MODEL 3
REMARK VINA RESULT: -6.645767120      3.109      5.686
REMARK  9 active torsions:
REMARK  status: ('A' for Active; 'I' for Inactive)
REMARK    1  A    between atoms: C2_3  and  N2_4 
REMARK    2  A    between atoms: C3_9  and  O1_10 
REMARK    3  A    between atoms: O1_10  and  C4_11 
REMARK    4  A    between atoms: C5_13  and  N4_14 
REMARK    5  A    between atoms: N4_14  and  N5_16 
REMARK    6  A    between atoms: C6_22  and  N7_23 
REMARK    7  A    between atoms: C6_22  and  C7_27 
REMARK    8  A    between atoms: C7_27  and  O4_28 
REMARK    9  A    between atoms: O4_28  and  N8_29 
ROOT
HETATM    1  C4  UNL     1      44.117  33.475  58.876  1.00  0.00     0.335 C 
HETATM    2  O2  UNL     1      43.180  33.675  59.983  1.00  0.00    -0.307 OA
HETATM    3  C5  UNL     1      41.986  33.938  59.325  1.00  0.00     0.392 C 
HETATM    4  O3  UNL     1      42.234  34.289  58.026  1.00  0.00    -0.299 OA
HETATM    5  C6  UNL     1      43.610  34.613  58.039  1.00  0.00     0.301 C 
ENDROOT
BRANCH   1   6
HETATM    6  O1  UNL     1      43.785  32.287  58.298  1.00  0.00    -0.305 OA
BRANCH   6   7
HETATM    7  C3  UNL     1      44.628  31.218  58.483  1.00  0.00     0.253 C 
HETATM    8  N3  UNL     1      44.393  30.247  57.426  1.00  0.00    -0.310 N 
HETATM    9  C2  UNL     1      45.304  30.553  56.383  1.00  0.00     0.175 C 
ATOM     10  H3  UNL     1      43.706  29.494  57.435  1.00  0.00     0.167 HD
HETATM   11  N1  UNL     1      46.278  31.473  56.829  1.00  0.00    -0.337 N 
HETATM   12  C1  UNL     1      47.332  32.014  56.002  1.00  0.00     0.154 C 
HETATM   13  C9  UNL     1      46.023  31.756  58.224  1.00  0.00     0.235 C 
HETATM   14  S1  UNL     1      47.067  30.640  59.197  1.00  0.00    -0.062 SA
HETATM   15  C8  UNL     1      45.725  30.021  60.257  1.00  0.00     0.139 C 
HETATM   16  N9  UNL     1      44.568  30.707  59.771  1.00  0.00    -0.319 N 
HETATM   17  N10 UNL     1      45.831  29.218  61.169  1.00  0.00    -0.380 N 
ATOM     18  H9  UNL     1      43.734  30.817  60.347  1.00  0.00     0.166 HD
ATOM     19 2H10 UNL     1      45.078  28.871  61.763  1.00  0.00     0.158 HD
ATOM     20 1H10 UNL     1      46.656  28.729  61.516  1.00  0.00     0.158 HD
BRANCH   9  21
HETATM   21  N2  UNL     1      45.218  30.035  55.186  1.00  0.00    -0.371 N 
ATOM     22  H22 UNL     1      45.922  30.184  54.463  1.00  0.00     0.159 HD
ATOM     23  H21 UNL     1      44.467  29.439  54.837  1.00  0.00     0.159 HD
ENDBRANCH   9  21
ENDBRANCH   6   7
ENDBRANCH   1   6
BRANCH   5  24
HETATM   24  N7  UNL     1      43.715  35.874  58.753  1.00  0.00    -0.039 N 
ATOM     25  H73 UNL     1      42.797  36.258  58.977  1.00  0.00     0.278 HD
ATOM     26  H72 UNL     1      44.063  35.741  59.703  1.00  0.00     0.278 HD
ATOM     27  H71 UNL     1      44.285  36.543  58.235  1.00  0.00     0.278 HD
ENDBRANCH   5  24
BRANCH   5  28
HETATM   28  C7  UNL     1      44.208  34.651  56.686  1.00  0.00     0.274 C 
BRANCH  28  29
HETATM   29  O4  UNL     1      43.262  34.656  55.672  1.00  0.00    -0.282 OA
BRANCH  29  30
HETATM   30  N8  UNL     1      42.746  33.413  55.540  1.00  0.00    -0.311 N 
ATOM     31  H82 UNL     1      42.105  32.978  56.204  1.00  0.00     0.184 HD
ATOM     32  H81 UNL     1      43.100  32.993  54.681  1.00  0.00     0.184 HD
ENDBRANCH  29  30
ENDBRANCH  28  29
ENDBRANCH   5  28
BRANCH   3  33
HETATM   33  N4  UNL     1      41.180  34.946  59.952  1.00  0.00    -0.271 N 
ATOM     34  H4  UNL     1      41.182  35.054  60.966  1.00  0.00     0.187 HD
BRANCH  33  35
HETATM   35  N5  UNL     1      40.485  35.679  59.246  1.00  0.00    -0.250 N 
HETATM   36  N6  UNL     1      40.174  36.379  58.280  1.00  0.00    -0.331 N 
ATOM     37  H62 UNL     1      41.038  36.274  57.747  1.00  0.00     0.178 HD
ATOM     38  H61 UNL     1      39.599  36.985  57.695  1.00  0.00     0.178 HD
ATOM     39  H5  UNL     1      39.642  35.752  59.816  1.00  0.00     0.207 HD
ENDBRANCH  33  35
ENDBRANCH   3  33
TORSDOF 9
ENDMDL
MODEL 4
REMARK VINA RESULT: -6.626665917      2.815      5.898
REMARK  9 active torsions:
REMARK  status: ('A' for Active; 'I' for Inactive)
REMARK    1  A    between atoms: C2_3  and  N2_4 
REMARK    2  A    between atoms: C3_9  and  O1_10 
REMARK    3  A    between atoms: O1_10  and  C4_11 
REMARK    4  A    between atoms: C5_13  and  N4_14 
REMARK    5  A    between atoms: N4_14  and  N5_16 
REMARK    6  A    between atoms: C6_22  and  N7_23 
REMARK    7  A    between atoms: C6_22  and  C7_27 
REMARK    8  A    between atoms: C7_27  and  O4_28 
REMARK    9  A    between atoms: O4_28  and  N8_29 
ROOT
HETATM    1  C4  UNL     1      42.406  35.261  60.304  1.00  0.00     0.335 C 
HETATM    2  O2  UNL     1      42.720  36.170  59.201  1.00  0.00    -0.307 OA
HETATM    3  C5  UNL     1      41.490  36.325  58.577  1.00  0.00     0.392 C 
HETATM    4  O3  UNL     1      40.640  35.324  58.959  1.00  0.00    -0.299 OA
HETATM    5  C6  UNL     1      41.513  34.355  59.507  1.00  0.00     0.301 C 
ENDROOT
BRANCH   1   6
HETATM    6  O1  UNL     1      41.666  35.977  61.197  1.00  0.00    -0.305 OA
BRANCH   6   7
HETATM    7  C3  UNL     1      42.253  36.334  62.387  1.00  0.00     0.253 C 
HETATM    8  N3  UNL     1      41.251  36.956  63.236  1.00  0.00    -0.310 N 
HETATM    9  C2  UNL     1      40.692  35.922  64.031  1.00  0.00     0.175 C 
ATOM     10  H3  UNL     1      40.998  37.944  63.256  1.00  0.00     0.167 HD
HETATM   11  N1  UNL     1      41.470  34.747  63.932  1.00  0.00    -0.337 N 
HETATM   12  C1  UNL     1      41.157  33.501  64.592  1.00  0.00     0.154 C 
HETATM   13  C9  UNL     1      42.599  35.027  63.073  1.00  0.00     0.235 C 
HETATM   14  S1  UNL     1      43.985  35.492  64.143  1.00  0.00    -0.062 SA
HETATM   15  C8  UNL     1      44.387  37.028  63.254  1.00  0.00     0.139 C 
HETATM   16  N9  UNL     1      43.412  37.077  62.209  1.00  0.00    -0.319 N 
HETATM   17  N10 UNL     1      45.293  37.801  63.513  1.00  0.00    -0.380 N 
ATOM     18  H9  UNL     1      43.562  37.634  61.368  1.00  0.00     0.166 HD
ATOM     19 2H10 UNL     1      45.518  38.662  63.015  1.00  0.00     0.158 HD
ATOM     20 1H10 UNL     1      45.989  37.766  64.259  1.00  0.00     0.158 HD
BRANCH   9  21
HETATM   21  N2  UNL     1      39.605  36.074  64.739  1.00  0.00    -0.371 N 
ATOM     22  H22 UNL     1      39.601  36.486  65.672  1.00  0.00     0.159 HD
ATOM     23  H21 UNL     1      38.660  35.813  64.460  1.00  0.00     0.159 HD
ENDBRANCH   9  21
ENDBRANCH   6   7
ENDBRANCH   1   6
BRANCH   5  24
HETATM   24  N7  UNL     1      42.226  33.779  58.380  1.00  0.00    -0.039 N 
ATOM     25  H73 UNL     1      43.205  33.601  58.606  1.00  0.00     0.278 HD
ATOM     26  H72 UNL     1      41.932  32.819  58.200  1.00  0.00     0.278 HD
ATOM     27  H71 UNL     1      42.133  34.364  57.549  1.00  0.00     0.278 HD
ENDBRANCH   5  24
BRANCH   5  28
HETATM   28  C7  UNL     1      40.813  33.351  60.338  1.00  0.00     0.274 C 
BRANCH  28  29
HETATM   29  O4  UNL     1      39.432  33.452  60.267  1.00  0.00    -0.282 OA
BRANCH  29  30
HETATM   30  N8  UNL     1      39.018  34.454  61.076  1.00  0.00    -0.311 N 
ATOM     31  H82 UNL     1      38.597  34.320  61.996  1.00  0.00     0.184 HD
ATOM     32  H81 UNL     1      39.195  35.348  60.619  1.00  0.00     0.184 HD
ENDBRANCH  29  30
ENDBRANCH  28  29
ENDBRANCH   5  28
BRANCH   3  33
HETATM   33  N4  UNL     1      41.561  36.378  57.144  1.00  0.00    -0.271 N 
ATOM     34  H4  UNL     1      42.454  36.258  56.665  1.00  0.00     0.187 HD
BRANCH  33  35
HETATM   35  N5  UNL     1      40.527  36.570  56.502  1.00  0.00    -0.250 N 
HETATM   36  N6  UNL     1      39.339  36.824  56.295  1.00  0.00    -0.331 N 
ATOM     37  H62 UNL     1      39.051  36.950  57.265  1.00  0.00     0.178 HD
ATOM     38  H61 UNL     1      38.483  36.983  55.764  1.00  0.00     0.178 HD
ATOM     39  H5  UNL     1      40.864  36.433  55.549  1.00  0.00     0.207 HD
ENDBRANCH  33  35
ENDBRANCH   3  33
TORSDOF 9
ENDMDL
MODEL 5
REMARK VINA RESULT: -6.553100715      3.038      6.114
REMARK  9 active torsions:
REMARK  status: ('A' for Active; 'I' for Inactive)
REMARK    1  A    between atoms: C2_3  and  N2_4 
REMARK    2  A    between atoms: C3_9  and  O1_10 
REMARK    3  A    between atoms: O1_10  and  C4_11 
REMARK    4  A    between atoms: C5_13  and  N4_14 
REMARK    5  A    between atoms: N4_14  and  N5_16 
REMARK    6  A    between atoms: C6_22  and  N7_23 
REMARK    7  A    between atoms: C6_22  and  C7_27 
REMARK    8  A    between atoms: C7_27  and  O4_28 
REMARK    9  A    between atoms: O4_28  and  N8_29 
ROOT
HETATM    1  C4  UNL     1      44.666  32.609  57.783  1.00  0.00     0.335 C 
HETATM    2  O2  UNL     1      44.950  32.358  56.369  1.00  0.00    -0.307 OA
HETATM    3  C5  UNL     1      44.630  31.014  56.231  1.00  0.00     0.392 C 
HETATM    4  O3  UNL     1      44.582  30.414  57.459  1.00  0.00    -0.299 OA
HETATM    5  C6  UNL     1      45.268  31.330  58.290  1.00  0.00     0.301 C 
ENDROOT
BRANCH   1   6
HETATM    6  O1  UNL     1      43.311  32.572  57.919  1.00  0.00    -0.305 OA
BRANCH   6   7
HETATM    7  C3  UNL     1      42.660  33.737  58.246  1.00  0.00     0.253 C 
HETATM    8  N3  UNL     1      41.795  33.486  59.387  1.00  0.00    -0.310 N 
HETATM    9  C2  UNL     1      42.551  33.796  60.547  1.00  0.00     0.175 C 
ATOM     10  H3  UNL     1      40.832  33.151  59.359  1.00  0.00     0.167 HD
HETATM   11  N1  UNL     1      43.734  34.486  60.198  1.00  0.00    -0.337 N 
HETATM   12  C1  UNL     1      44.738  34.917  61.142  1.00  0.00     0.154 C 
HETATM   13  C9  UNL     1      43.739  34.669  58.763  1.00  0.00     0.235 C 
HETATM   14  S1  UNL     1      43.043  36.308  58.430  1.00  0.00    -0.062 SA
HETATM   15  C8  UNL     1      41.826  35.738  57.204  1.00  0.00     0.139 C 
HETATM   16  N9  UNL     1      42.035  34.324  57.156  1.00  0.00    -0.319 N 
HETATM   17  N10 UNL     1      41.043  36.434  56.581  1.00  0.00    -0.380 N 
ATOM     18  H9  UNL     1      41.736  33.770  56.353  1.00  0.00     0.166 HD
ATOM     19 2H10 UNL     1      40.360  36.114  55.894  1.00  0.00     0.158 HD
ATOM     20 1H10 UNL     1      40.894  37.443  56.615  1.00  0.00     0.158 HD
BRANCH   9  21
HETATM   21  N2  UNL     1      42.174  33.468  61.754  1.00  0.00    -0.371 N 
ATOM     22  H22 UNL     1      42.658  33.783  62.595  1.00  0.00     0.159 HD
ATOM     23  H21 UNL     1      41.377  32.881  62.000  1.00  0.00     0.159 HD
ENDBRANCH   9  21
ENDBRANCH   6   7
ENDBRANCH   1   6
BRANCH   5  24
HETATM   24  N7  UNL     1      46.670  31.231  57.920  1.00  0.00    -0.039 N 
ATOM     25  H73 UNL     1      46.965  32.022  57.348  1.00  0.00     0.278 HD
ATOM     26  H72 UNL     1      47.282  31.384  58.722  1.00  0.00     0.278 HD
ATOM     27  H71 UNL     1      46.866  30.341  57.461  1.00  0.00     0.278 HD
ENDBRANCH   5  24
BRANCH   5  28
HETATM   28  C7  UNL     1      45.020  31.102  59.730  1.00  0.00     0.274 C 
BRANCH  28  29
HETATM   29  O4  UNL     1      44.310  29.938  59.983  1.00  0.00    -0.282 OA
BRANCH  29  30
HETATM   30  N8  UNL     1      42.986  30.207  59.936  1.00  0.00    -0.311 N 
ATOM     31  H82 UNL     1      42.548  30.854  59.281  1.00  0.00     0.184 HD
ATOM     32  H81 UNL     1      42.508  29.664  60.655  1.00  0.00     0.184 HD
ENDBRANCH  29  30
ENDBRANCH  28  29
ENDBRANCH   5  28
BRANCH   3  33
HETATM   33  N4  UNL     1      45.517  30.285  55.370  1.00  0.00    -0.271 N 
ATOM     34  H4  UNL     1      45.490  29.265  55.343  1.00  0.00     0.187 HD
BRANCH  33  35
HETATM   35  N5  UNL     1      46.312  30.909  54.666  1.00  0.00    -0.250 N 
HETATM   36  N6  UNL     1      47.247  31.663  54.385  1.00  0.00    -0.331 N 
ATOM     37  H62 UNL     1      47.514  31.914  55.337  1.00  0.00     0.178 HD
ATOM     38  H61 UNL     1      47.904  32.179  53.802  1.00  0.00     0.178 HD
ATOM     39  H5  UNL     1      46.006  30.627  53.735  1.00  0.00     0.207 HD
ENDBRANCH  33  35
ENDBRANCH   3  33
TORSDOF 9
ENDMDL
