MODEL 1
REMARK VINA RESULT: -9.477012172      0.000      0.000
REMARK  12 active torsions:
REMARK  status: ('A' for Active; 'I' for Inactive)
REMARK    1  A    between atoms: C2_7  and  N3_8 
REMARK    2  A    between atoms: N3_8  and  O1_10 
REMARK    3  A    between atoms: N4_12  and  C3_13 
REMARK    4  A    between atoms: C9_19  and  N5_20 
REMARK    5  A    between atoms: N5_20  and  O2_21 
REMARK    6  A    between atoms: O2_21  and  C10_22 
REMARK    7  A    between atoms: C10_22  and  C11_23 
REMARK       I    between atoms: C11_23  and  N6_25 
REMARK    8  A    between atoms: N6_25  and  N7_27 
REMARK    9  A    between atoms: C12_29  and  C13_30 
REMARK   10  A    between atoms: C15_32  and  N8_33 
REMARK   11  A    between atoms: C17_37  and  N9_38 
REMARK   12  A    between atoms: C18_41  and  O8_42 
ROOT
HETATM    1  O2  UNL     1      79.613 -10.263   5.131  1.00  0.00    -0.197 OA
ENDROOT
BRANCH   1   2
HETATM    2  N5  UNL     1      79.432 -11.077   4.174  1.00  0.00    -0.240 NA
BRANCH   2   3
HETATM    3  C9  UNL     1      79.397 -11.630   3.113  1.00  0.00     0.325 A 
HETATM    4  N4  UNL     1      78.437 -12.504   2.678  1.00  0.00    -0.099 N 
HETATM    5  C2  UNL     1      78.642 -13.179   1.569  1.00  0.00     0.727 A 
HETATM    6  N2  UNL     1      79.747 -13.046   0.837  1.00  0.00    -0.020 N 
HETATM    7  C1  UNL     1      80.739 -12.168   1.241  1.00  0.00     0.694 A 
ATOM      8  H2  UNL     1      79.863 -13.588  -0.019  1.00  0.00     0.203 HD
HETATM    9  N1  UNL     1      81.791 -12.045   0.610  1.00  0.00    -0.234 N 
HETATM   10  N10 UNL     1      80.552 -11.473   2.372  1.00  0.00    -0.146 N 
ATOM     11  H12 UNL     1      81.934 -12.574  -0.250  1.00  0.00     0.174 HD
ATOM     12  H11 UNL     1      82.522 -11.399   0.908  1.00  0.00     0.174 HD
ATOM     13  H10 UNL     1      81.270 -10.822   2.688  1.00  0.00     0.188 HD
BRANCH   4  14
HETATM   14  C3  UNL     1      77.281 -12.548   3.512  1.00  0.00     0.061 A 
HETATM   15  C4  UNL     1      76.242 -11.687   3.298  1.00  0.00     0.030 A 
HETATM   16  C5  UNL     1      75.070 -11.801   4.080  1.00  0.00     0.002 A 
HETATM   17  C6  UNL     1      74.993 -12.774   5.045  1.00  0.00     0.000 A 
HETATM   18  C7  UNL     1      76.059 -13.662   5.265  1.00  0.00     0.002 A 
HETATM   19  C8  UNL     1      77.205 -13.525   4.474  1.00  0.00     0.030 A 
ENDBRANCH   4  14
BRANCH   5  20
HETATM   20  N3  UNL     1      77.697 -14.010   1.188  1.00  0.00    -0.097 N 
ATOM     21  H3  UNL     1      76.720 -13.802   1.395  1.00  0.00     0.213 HD
BRANCH  20  22
HETATM   22  O1  UNL     1      78.029 -15.155   0.511  1.00  0.00    -0.276 OA
ATOM     23  H1  UNL     1      77.868 -16.002   0.911  1.00  0.00     0.245 HD
ENDBRANCH  20  22
ENDBRANCH   5  20
ENDBRANCH   2   3
ENDBRANCH   1   2
BRANCH   1  24
HETATM   24  C10 UNL     1      80.084 -10.853   6.412  1.00  0.00     0.322 C 
BRANCH  24  25
HETATM   25  C11 UNL     1      78.726 -11.276   7.018  1.00  0.00     0.263 C 
HETATM   26  O3  UNL     1      78.673 -12.298   7.730  1.00  0.00    -0.269 OA
HETATM   27  N6  UNL     1      77.680 -10.473   6.753  1.00  0.00    -0.269 N 
ATOM     28  H6  UNL     1      77.875  -9.698   6.119  1.00  0.00     0.190 HD
BRANCH  27  29
HETATM   29  N7  UNL     1      76.375 -10.548   7.216  1.00  0.00    -0.308 N 
HETATM   30  C12 UNL     1      75.910  -9.684   8.050  1.00  0.00     0.121 C 
ATOM     31  H7  UNL     1      75.771 -11.302   6.889  1.00  0.00     0.186 HD
BRANCH  30  32
HETATM   32  C13 UNL     1      74.552  -9.771   8.507  1.00  0.00     0.019 A 
HETATM   33  C14 UNL     1      73.625 -10.323   7.570  1.00  0.00     0.052 A 
HETATM   34  C15 UNL     1      72.294 -10.488   7.837  1.00  0.00     0.106 A 
HETATM   35  C16 UNL     1      71.852 -10.081   9.106  1.00  0.00     0.075 A 
HETATM   36  C17 UNL     1      72.683  -9.559  10.032  1.00  0.00     0.139 A 
HETATM   37  C18 UNL     1      74.058  -9.407   9.714  1.00  0.00     0.110 A 
BRANCH  34  38
HETATM   38  N8  UNL     1      71.409 -11.051   6.878  1.00  0.00    -0.116 N 
HETATM   39  O4  UNL     1      71.328 -12.283   6.848  1.00  0.00    -0.532 OA
HETATM   40  O5  UNL     1      70.680 -10.275   6.063  1.00  0.00    -0.532 OA
ENDBRANCH  34  38
BRANCH  36  41
HETATM   41  N9  UNL     1      72.242  -9.151  11.295  1.00  0.00    -0.113 N 
HETATM   42  O6  UNL     1      72.490  -9.757  12.357  1.00  0.00    -0.532 OA
HETATM   43  O7  UNL     1      71.472  -8.016  11.389  1.00  0.00    -0.532 OA
ENDBRANCH  36  41
BRANCH  37  44
HETATM   44  O8  UNL     1      74.827  -8.897  10.666  1.00  0.00    -0.357 OA
ATOM     45  H8  UNL     1      74.699  -8.019  11.004  1.00  0.00     0.217 HD
ENDBRANCH  37  44
ENDBRANCH  30  32
ENDBRANCH  27  29
ENDBRANCH  24  25
ENDBRANCH   1  24
TORSDOF 12
ENDMDL
MODEL 2
REMARK VINA RESULT: -9.228186032      5.569      9.524
REMARK  12 active torsions:
REMARK  status: ('A' for Active; 'I' for Inactive)
REMARK    1  A    between atoms: C2_7  and  N3_8 
REMARK    2  A    between atoms: N3_8  and  O1_10 
REMARK    3  A    between atoms: N4_12  and  C3_13 
REMARK    4  A    between atoms: C9_19  and  N5_20 
REMARK    5  A    between atoms: N5_20  and  O2_21 
REMARK    6  A    between atoms: O2_21  and  C10_22 
REMARK    7  A    between atoms: C10_22  and  C11_23 
REMARK       I    between atoms: C11_23  and  N6_25 
REMARK    8  A    between atoms: N6_25  and  N7_27 
REMARK    9  A    between atoms: C12_29  and  C13_30 
REMARK   10  A    between atoms: C15_32  and  N8_33 
REMARK   11  A    between atoms: C17_37  and  N9_38 
REMARK   12  A    between atoms: C18_41  and  O8_42 
ROOT
HETATM    1  O2  UNL     1      70.779 -16.277   1.044  1.00  0.00    -0.197 OA
ENDROOT
BRANCH   1   2
HETATM    2  N5  UNL     1      70.158 -16.925   1.941  1.00  0.00    -0.240 NA
BRANCH   2   3
HETATM    3  C9  UNL     1      69.849 -17.617   2.867  1.00  0.00     0.325 A 
HETATM    4  N4  UNL     1      69.800 -17.248   4.184  1.00  0.00    -0.099 N 
HETATM    5  C2  UNL     1      69.635 -18.175   5.102  1.00  0.00     0.727 A 
HETATM    6  N2  UNL     1      69.502 -19.467   4.808  1.00  0.00    -0.020 N 
HETATM    7  C1  UNL     1      69.540 -19.879   3.487  1.00  0.00     0.694 A 
ATOM      8  H2  UNL     1      69.372 -20.151   5.553  1.00  0.00     0.203 HD
HETATM    9  N1  UNL     1      69.458 -21.070   3.178  1.00  0.00    -0.234 N 
HETATM   10  N10 UNL     1      69.713 -18.952   2.535  1.00  0.00    -0.146 N 
ATOM     11  H12 UNL     1      69.327 -21.776   3.902  1.00  0.00     0.174 HD
ATOM     12  H11 UNL     1      69.487 -21.374   2.205  1.00  0.00     0.174 HD
ATOM     13  H10 UNL     1      69.745 -19.234   1.556  1.00  0.00     0.188 HD
BRANCH   4  14
HETATM   14  C3  UNL     1      69.918 -15.842   4.391  1.00  0.00     0.061 A 
HETATM   15  C4  UNL     1      68.863 -15.015   4.125  1.00  0.00     0.030 A 
HETATM   16  C5  UNL     1      68.970 -13.636   4.415  1.00  0.00     0.002 A 
HETATM   17  C6  UNL     1      70.132 -13.146   4.957  1.00  0.00     0.000 A 
HETATM   18  C7  UNL     1      71.217 -13.995   5.232  1.00  0.00     0.002 A 
HETATM   19  C8  UNL     1      71.080 -15.355   4.937  1.00  0.00     0.030 A 
ENDBRANCH   4  14
BRANCH   5  20
HETATM   20  N3  UNL     1      69.597 -17.778   6.355  1.00  0.00    -0.097 N 
ATOM     21  H3  UNL     1      70.185 -17.005   6.665  1.00  0.00     0.213 HD
BRANCH  20  22
HETATM   22  O1  UNL     1      68.762 -18.406   7.243  1.00  0.00    -0.276 OA
ATOM     23  H1  UNL     1      69.119 -18.781   8.040  1.00  0.00     0.245 HD
ENDBRANCH  20  22
ENDBRANCH   5  20
ENDBRANCH   2   3
ENDBRANCH   1   2
BRANCH   1  24
HETATM   24  C10 UNL     1      70.228 -14.939   0.702  1.00  0.00     0.322 C 
BRANCH  24  25
HETATM   25  C11 UNL     1      71.282 -14.040   1.387  1.00  0.00     0.263 C 
HETATM   26  O3  UNL     1      71.025 -12.833   1.567  1.00  0.00    -0.269 OA
HETATM   27  N6  UNL     1      72.418 -14.646   1.777  1.00  0.00    -0.269 N 
ATOM     28  H6  UNL     1      72.498 -15.629   1.520  1.00  0.00     0.190 HD
BRANCH  27  29
HETATM   29  N7  UNL     1      73.496 -14.126   2.478  1.00  0.00    -0.308 N 
HETATM   30  C12 UNL     1      74.661 -14.672   2.417  1.00  0.00     0.121 C 
ATOM     31  H7  UNL     1      73.363 -13.294   3.054  1.00  0.00     0.186 HD
BRANCH  30  32
HETATM   32  C13 UNL     1      75.767 -14.111   3.140  1.00  0.00     0.019 A 
HETATM   33  C14 UNL     1      76.870 -13.686   2.336  1.00  0.00     0.052 A 
HETATM   34  C15 UNL     1      78.003 -13.122   2.853  1.00  0.00     0.106 A 
HETATM   35  C16 UNL     1      78.052 -12.971   4.248  1.00  0.00     0.075 A 
HETATM   36  C17 UNL     1      77.038 -13.350   5.055  1.00  0.00     0.139 A 
HETATM   37  C18 UNL     1      75.878 -13.929   4.477  1.00  0.00     0.110 A 
BRANCH  34  38
HETATM   38  N8  UNL     1      79.073 -12.704   2.015  1.00  0.00    -0.116 N 
HETATM   39  O4  UNL     1      79.175 -13.264   0.918  1.00  0.00    -0.532 OA
HETATM   40  O5  UNL     1      79.914 -11.731   2.392  1.00  0.00    -0.532 OA
ENDBRANCH  34  38
BRANCH  36  41
HETATM   41  N9  UNL     1      77.088 -13.203   6.445  1.00  0.00    -0.113 N 
HETATM   42  O6  UNL     1      77.256 -14.144   7.246  1.00  0.00    -0.532 OA
HETATM   43  O7  UNL     1      76.929 -11.947   6.981  1.00  0.00    -0.532 OA
ENDBRANCH  36  41
BRANCH  37  44
HETATM   44  O8  UNL     1      74.913 -14.272   5.318  1.00  0.00    -0.357 OA
ATOM     45  H8  UNL     1      74.505 -13.644   5.902  1.00  0.00     0.217 HD
ENDBRANCH  37  44
ENDBRANCH  30  32
ENDBRANCH  27  29
ENDBRANCH  24  25
ENDBRANCH   1  24
TORSDOF 12
ENDMDL
MODEL 3
REMARK VINA RESULT: -9.179024990      4.495      7.097
REMARK  12 active torsions:
REMARK  status: ('A' for Active; 'I' for Inactive)
REMARK    1  A    between atoms: C2_7  and  N3_8 
REMARK    2  A    between atoms: N3_8  and  O1_10 
REMARK    3  A    between atoms: N4_12  and  C3_13 
REMARK    4  A    between atoms: C9_19  and  N5_20 
REMARK    5  A    between atoms: N5_20  and  O2_21 
REMARK    6  A    between atoms: O2_21  and  C10_22 
REMARK    7  A    between atoms: C10_22  and  C11_23 
REMARK       I    between atoms: C11_23  and  N6_25 
REMARK    8  A    between atoms: N6_25  and  N7_27 
REMARK    9  A    between atoms: C12_29  and  C13_30 
REMARK   10  A    between atoms: C15_32  and  N8_33 
REMARK   11  A    between atoms: C17_37  and  N9_38 
REMARK   12  A    between atoms: C18_41  and  O8_42 
ROOT
HETATM    1  O2  UNL     1      76.649 -14.201   0.538  1.00  0.00    -0.197 OA
ENDROOT
BRANCH   1   2
HETATM    2  N5  UNL     1      77.746 -13.843   1.065  1.00  0.00    -0.240 NA
BRANCH   2   3
HETATM    3  C9  UNL     1      78.655 -13.234   1.550  1.00  0.00     0.325 A 
HETATM    4  N4  UNL     1      78.689 -12.669   2.797  1.00  0.00    -0.099 N 
HETATM    5  C2  UNL     1      79.681 -11.864   3.108  1.00  0.00     0.727 A 
HETATM    6  N2  UNL     1      80.669 -11.576   2.262  1.00  0.00    -0.020 N 
HETATM    7  C1  UNL     1      80.673 -12.132   0.994  1.00  0.00     0.694 A 
ATOM      8  H2  UNL     1      81.421 -10.949   2.547  1.00  0.00     0.203 HD
HETATM    9  N1  UNL     1      81.551 -11.860   0.171  1.00  0.00    -0.234 N 
HETATM   10  N10 UNL     1      79.669 -12.951   0.654  1.00  0.00    -0.146 N 
ATOM     11  H12 UNL     1      82.315 -11.236   0.429  1.00  0.00     0.174 HD
ATOM     12  H11 UNL     1      81.553 -12.269  -0.763  1.00  0.00     0.174 HD
ATOM     13  H10 UNL     1      79.653 -13.371  -0.275  1.00  0.00     0.188 HD
BRANCH   4  14
HETATM   14  C3  UNL     1      77.607 -13.066   3.636  1.00  0.00     0.061 A 
HETATM   15  C4  UNL     1      76.441 -12.352   3.641  1.00  0.00     0.030 A 
HETATM   16  C5  UNL     1      75.349 -12.809   4.414  1.00  0.00     0.002 A 
HETATM   17  C6  UNL     1      75.475 -13.960   5.150  1.00  0.00     0.000 A 
HETATM   18  C7  UNL     1      76.672 -14.695   5.146  1.00  0.00     0.002 A 
HETATM   19  C8  UNL     1      77.734 -14.220   4.369  1.00  0.00     0.030 A 
ENDBRANCH   4  14
BRANCH   5  20
HETATM   20  N3  UNL     1      79.673 -11.341   4.314  1.00  0.00    -0.097 N 
ATOM     21  H3  UNL     1      80.158 -11.810   5.078  1.00  0.00     0.213 HD
BRANCH  20  22
HETATM   22  O1  UNL     1      79.011 -10.161   4.540  1.00  0.00    -0.276 OA
ATOM     23  H1  UNL     1      79.465  -9.439   4.958  1.00  0.00     0.245 HD
ENDBRANCH  20  22
ENDBRANCH   5  20
ENDBRANCH   2   3
ENDBRANCH   1   2
BRANCH   1  24
HETATM   24  C10 UNL     1      76.573 -15.615   0.083  1.00  0.00     0.322 C 
BRANCH  24  25
HETATM   25  C11 UNL     1      75.303 -16.064   0.843  1.00  0.00     0.263 C 
HETATM   26  O3  UNL     1      75.426 -16.620   1.952  1.00  0.00    -0.269 OA
HETATM   27  N6  UNL     1      74.127 -15.789   0.251  1.00  0.00    -0.269 N 
ATOM     28  H6  UNL     1      74.193 -15.370  -0.676  1.00  0.00     0.190 HD
BRANCH  27  29
HETATM   29  N7  UNL     1      72.838 -15.994   0.719  1.00  0.00    -0.308 N 
HETATM   30  C12 UNL     1      72.447 -15.502   1.843  1.00  0.00     0.121 C 
ATOM     31  H7  UNL     1      72.185 -16.546   0.162  1.00  0.00     0.186 HD
BRANCH  30  32
HETATM   32  C13 UNL     1      71.105 -15.714   2.305  1.00  0.00     0.019 A 
HETATM   33  C14 UNL     1      70.597 -17.038   2.122  1.00  0.00     0.052 A 
HETATM   34  C15 UNL     1      69.343 -17.422   2.509  1.00  0.00     0.106 A 
HETATM   35  C16 UNL     1      68.541 -16.439   3.111  1.00  0.00     0.075 A 
HETATM   36  C17 UNL     1      68.970 -15.176   3.313  1.00  0.00     0.139 A 
HETATM   37  C18 UNL     1      70.280 -14.819   2.898  1.00  0.00     0.110 A 
BRANCH  34  38
HETATM   38  N8  UNL     1      68.883 -18.753   2.317  1.00  0.00    -0.116 N 
HETATM   39  O4  UNL     1      67.685 -18.896   2.050  1.00  0.00    -0.532 OA
HETATM   40  O5  UNL     1      69.718 -19.798   2.400  1.00  0.00    -0.532 OA
ENDBRANCH  34  38
BRANCH  36  41
HETATM   41  N9  UNL     1      68.170 -14.195   3.908  1.00  0.00    -0.113 N 
HETATM   42  O6  UNL     1      68.015 -13.043   3.456  1.00  0.00    -0.532 OA
HETATM   43  O7  UNL     1      67.515 -14.501   5.078  1.00  0.00    -0.532 OA
ENDBRANCH  36  41
BRANCH  37  44
HETATM   44  O8  UNL     1      70.649 -13.567   3.131  1.00  0.00    -0.357 OA
ATOM     45  H8  UNL     1      71.294 -13.122   2.595  1.00  0.00     0.217 HD
ENDBRANCH  37  44
ENDBRANCH  30  32
ENDBRANCH  27  29
ENDBRANCH  24  25
ENDBRANCH   1  24
TORSDOF 12
ENDMDL
MODEL 4
REMARK VINA RESULT: -9.043669373      2.172      9.333
REMARK  12 active torsions:
REMARK  status: ('A' for Active; 'I' for Inactive)
REMARK    1  A    between atoms: C2_7  and  N3_8 
REMARK    2  A    between atoms: N3_8  and  O1_10 
REMARK    3  A    between atoms: N4_12  and  C3_13 
REMARK    4  A    between atoms: C9_19  and  N5_20 
REMARK    5  A    between atoms: N5_20  and  O2_21 
REMARK    6  A    between atoms: O2_21  and  C10_22 
REMARK    7  A    between atoms: C10_22  and  C11_23 
REMARK       I    between atoms: C11_23  and  N6_25 
REMARK    8  A    between atoms: N6_25  and  N7_27 
REMARK    9  A    between atoms: C12_29  and  C13_30 
REMARK   10  A    between atoms: C15_32  and  N8_33 
REMARK   11  A    between atoms: C17_37  and  N9_38 
REMARK   12  A    between atoms: C18_41  and  O8_42 
ROOT
HETATM    1  O2  UNL     1      76.802  -9.049   8.327  1.00  0.00    -0.197 OA
ENDROOT
BRANCH   1   2
HETATM    2  N5  UNL     1      75.586  -9.410   8.366  1.00  0.00    -0.240 NA
BRANCH   2   3
HETATM    3  C9  UNL     1      74.417  -9.522   8.594  1.00  0.00     0.325 A 
HETATM    4  N4  UNL     1      73.754  -9.077   9.707  1.00  0.00    -0.099 N 
HETATM    5  C2  UNL     1      72.509  -9.451   9.902  1.00  0.00     0.727 A 
HETATM    6  N2  UNL     1      71.852 -10.242   9.055  1.00  0.00    -0.020 N 
HETATM    7  C1  UNL     1      72.486 -10.708   7.917  1.00  0.00     0.694 A 
ATOM      8  H2  UNL     1      70.884 -10.504   9.245  1.00  0.00     0.203 HD
HETATM    9  N1  UNL     1      71.923 -11.472   7.129  1.00  0.00    -0.234 N 
HETATM   10  N10 UNL     1      73.757 -10.344   7.701  1.00  0.00    -0.146 N 
ATOM     11  H12 UNL     1      70.955 -11.750   7.293  1.00  0.00     0.174 HD
ATOM     12  H11 UNL     1      72.390 -11.816   6.290  1.00  0.00     0.174 HD
ATOM     13  H10 UNL     1      74.243 -10.677   6.868  1.00  0.00     0.188 HD
BRANCH   4  14
HETATM   14  C3  UNL     1      74.532  -8.211  10.530  1.00  0.00     0.061 A 
HETATM   15  C4  UNL     1      75.090  -8.676  11.687  1.00  0.00     0.030 A 
HETATM   16  C5  UNL     1      75.928  -7.828  12.446  1.00  0.00     0.002 A 
HETATM   17  C6  UNL     1      76.168  -6.548  12.013  1.00  0.00     0.000 A 
HETATM   18  C7  UNL     1      75.596  -6.068  10.823  1.00  0.00     0.002 A 
HETATM   19  C8  UNL     1      74.773  -6.931  10.092  1.00  0.00     0.030 A 
ENDBRANCH   4  14
BRANCH   5  20
HETATM   20  N3  UNL     1      71.910  -9.003  10.984  1.00  0.00    -0.097 N 
ATOM     21  H3  UNL     1      72.143  -9.395  11.896  1.00  0.00     0.213 HD
BRANCH  20  22
HETATM   22  O1  UNL     1      70.973  -8.008  10.881  1.00  0.00    -0.276 OA
ATOM     23  H1  UNL     1      70.049  -8.225  10.924  1.00  0.00     0.245 HD
ENDBRANCH  20  22
ENDBRANCH   5  20
ENDBRANCH   2   3
ENDBRANCH   1   2
BRANCH   1  24
HETATM   24  C10 UNL     1      77.772  -9.937   9.021  1.00  0.00     0.322 C 
BRANCH  24  25
HETATM   25  C11 UNL     1      78.482 -10.555   7.795  1.00  0.00     0.263 C 
HETATM   26  O3  UNL     1      79.527 -11.213   7.968  1.00  0.00    -0.269 OA
HETATM   27  N6  UNL     1      77.890 -10.360   6.603  1.00  0.00    -0.269 N 
ATOM     28  H6  UNL     1      77.063  -9.764   6.620  1.00  0.00     0.190 HD
BRANCH  27  29
HETATM   29  N7  UNL     1      78.241 -10.853   5.355  1.00  0.00    -0.308 N 
HETATM   30  C12 UNL     1      77.826 -12.001   4.947  1.00  0.00     0.121 C 
ATOM     31  H7  UNL     1      78.842 -10.293   4.749  1.00  0.00     0.186 HD
BRANCH  30  32
HETATM   32  C13 UNL     1      78.191 -12.487   3.646  1.00  0.00     0.019 A 
HETATM   33  C14 UNL     1      77.383 -13.554   3.144  1.00  0.00     0.052 A 
HETATM   34  C15 UNL     1      77.579 -14.135   1.922  1.00  0.00     0.106 A 
HETATM   35  C16 UNL     1      78.639 -13.633   1.150  1.00  0.00     0.075 A 
HETATM   36  C17 UNL     1      79.430 -12.624   1.571  1.00  0.00     0.139 A 
HETATM   37  C18 UNL     1      79.190 -12.048   2.846  1.00  0.00     0.110 A 
BRANCH  34  38
HETATM   38  N8  UNL     1      76.745 -15.188   1.458  1.00  0.00    -0.116 N 
HETATM   39  O4  UNL     1      76.763 -15.421   0.244  1.00  0.00    -0.532 OA
HETATM   40  O5  UNL     1      75.994 -15.906   2.304  1.00  0.00    -0.532 OA
ENDBRANCH  34  38
BRANCH  36  41
HETATM   41  N9  UNL     1      80.488 -12.126   0.804  1.00  0.00    -0.113 N 
HETATM   42  O6  UNL     1      81.692 -12.216   1.121  1.00  0.00    -0.532 OA
HETATM   43  O7  UNL     1      80.200 -11.480  -0.375  1.00  0.00    -0.532 OA
ENDBRANCH  36  41
BRANCH  37  44
HETATM   44  O8  UNL     1      79.993 -11.055   3.202  1.00  0.00    -0.357 OA
ATOM     45  H8  UNL     1      80.461 -11.054   4.028  1.00  0.00     0.217 HD
ENDBRANCH  37  44
ENDBRANCH  30  32
ENDBRANCH  27  29
ENDBRANCH  24  25
ENDBRANCH   1  24
TORSDOF 12
ENDMDL
MODEL 5
REMARK VINA RESULT: -9.008904816      5.573     10.185
REMARK  12 active torsions:
REMARK  status: ('A' for Active; 'I' for Inactive)
REMARK    1  A    between atoms: C2_7  and  N3_8 
REMARK    2  A    between atoms: N3_8  and  O1_10 
REMARK    3  A    between atoms: N4_12  and  C3_13 
REMARK    4  A    between atoms: C9_19  and  N5_20 
REMARK    5  A    between atoms: N5_20  and  O2_21 
REMARK    6  A    between atoms: O2_21  and  C10_22 
REMARK    7  A    between atoms: C10_22  and  C11_23 
REMARK       I    between atoms: C11_23  and  N6_25 
REMARK    8  A    between atoms: N6_25  and  N7_27 
REMARK    9  A    between atoms: C12_29  and  C13_30 
REMARK   10  A    between atoms: C15_32  and  N8_33 
REMARK   11  A    between atoms: C17_37  and  N9_38 
REMARK   12  A    between atoms: C18_41  and  O8_42 
ROOT
HETATM    1  O2  UNL     1      70.181 -16.140   0.907  1.00  0.00    -0.197 OA
ENDROOT
BRANCH   1   2
HETATM    2  N5  UNL     1      70.163 -16.796   1.993  1.00  0.00    -0.240 NA
BRANCH   2   3
HETATM    3  C9  UNL     1      69.883 -17.510   2.912  1.00  0.00     0.325 A 
HETATM    4  N4  UNL     1      69.854 -17.165   4.237  1.00  0.00    -0.099 N 
HETATM    5  C2  UNL     1      69.722 -18.110   5.141  1.00  0.00     0.727 A 
HETATM    6  N2  UNL     1      69.605 -19.399   4.825  1.00  0.00    -0.020 N 
HETATM    7  C1  UNL     1      69.624 -19.787   3.497  1.00  0.00     0.694 A 
ATOM      8  H2  UNL     1      69.501 -20.099   5.560  1.00  0.00     0.203 HD
HETATM    9  N1  UNL     1      69.556 -20.974   3.168  1.00  0.00    -0.234 N 
HETATM   10  N10 UNL     1      69.763 -18.840   2.559  1.00  0.00    -0.146 N 
ATOM     11  H12 UNL     1      69.450 -21.694   3.881  1.00  0.00     0.174 HD
ATOM     12  H11 UNL     1      69.570 -21.259   2.189  1.00  0.00     0.174 HD
ATOM     13  H10 UNL     1      69.780 -19.105   1.574  1.00  0.00     0.188 HD
BRANCH   4  14
HETATM   14  C3  UNL     1      69.953 -15.761   4.466  1.00  0.00     0.061 A 
HETATM   15  C4  UNL     1      71.173 -15.181   4.675  1.00  0.00     0.030 A 
HETATM   16  C5  UNL     1      71.261 -13.778   4.817  1.00  0.00     0.002 A 
HETATM   17  C6  UNL     1      70.121 -13.017   4.744  1.00  0.00     0.000 A 
HETATM   18  C7  UNL     1      68.867 -13.611   4.528  1.00  0.00     0.002 A 
HETATM   19  C8  UNL     1      68.811 -15.002   4.390  1.00  0.00     0.030 A 
ENDBRANCH   4  14
BRANCH   5  20
HETATM   20  N3  UNL     1      69.702 -17.736   6.401  1.00  0.00    -0.097 N 
ATOM     21  H3  UNL     1      70.313 -16.986   6.721  1.00  0.00     0.213 HD
BRANCH  20  22
HETATM   22  O1  UNL     1      68.857 -18.360   7.283  1.00  0.00    -0.276 OA
ATOM     23  H1  UNL     1      69.216 -18.835   8.023  1.00  0.00     0.245 HD
ENDBRANCH  20  22
ENDBRANCH   5  20
ENDBRANCH   2   3
ENDBRANCH   1   2
BRANCH   1  24
HETATM   24  C10 UNL     1      69.774 -14.712   0.997  1.00  0.00     0.322 C 
BRANCH  24  25
HETATM   25  C11 UNL     1      71.168 -14.044   0.977  1.00  0.00     0.263 C 
HETATM   26  O3  UNL     1      71.249 -12.808   1.120  1.00  0.00    -0.269 OA
HETATM   27  N6  UNL     1      72.221 -14.868   0.835  1.00  0.00    -0.269 N 
ATOM     28  H6  UNL     1      71.990 -15.850   0.685  1.00  0.00     0.190 HD
BRANCH  27  29
HETATM   29  N7  UNL     1      73.577 -14.575   0.861  1.00  0.00    -0.308 N 
HETATM   30  C12 UNL     1      74.230 -14.523   1.969  1.00  0.00     0.121 C 
ATOM     31  H7  UNL     1      74.067 -14.397  -0.017  1.00  0.00     0.186 HD
BRANCH  30  32
HETATM   32  C13 UNL     1      75.636 -14.231   1.974  1.00  0.00     0.019 A 
HETATM   33  C14 UNL     1      76.393 -14.853   0.933  1.00  0.00     0.052 A 
HETATM   34  C15 UNL     1      77.741 -14.682   0.779  1.00  0.00     0.106 A 
HETATM   35  C16 UNL     1      78.380 -13.847   1.711  1.00  0.00     0.075 A 
HETATM   36  C17 UNL     1      77.714 -13.231   2.710  1.00  0.00     0.139 A 
HETATM   37  C18 UNL     1      76.314 -13.434   2.832  1.00  0.00     0.110 A 
BRANCH  34  38
HETATM   38  N8  UNL     1      78.453 -15.312  -0.277  1.00  0.00    -0.116 N 
HETATM   39  O4  UNL     1      77.802 -16.037  -1.036  1.00  0.00    -0.532 OA
HETATM   40  O5  UNL     1      79.767 -15.108  -0.450  1.00  0.00    -0.532 OA
ENDBRANCH  34  38
BRANCH  36  41
HETATM   41  N9  UNL     1      78.351 -12.402   3.639  1.00  0.00    -0.113 N 
HETATM   42  O6  UNL     1      78.852 -11.293   3.366  1.00  0.00    -0.532 OA
HETATM   43  O7  UNL     1      78.450 -12.829   4.942  1.00  0.00    -0.532 OA
ENDBRANCH  36  41
BRANCH  37  44
HETATM   44  O8  UNL     1      75.714 -12.795   3.826  1.00  0.00    -0.357 OA
ATOM     45  H8  UNL     1      75.847 -13.035   4.736  1.00  0.00     0.217 HD
ENDBRANCH  37  44
ENDBRANCH  30  32
ENDBRANCH  27  29
ENDBRANCH  24  25
ENDBRANCH   1  24
TORSDOF 12
ENDMDL
