MODEL 1
REMARK VINA RESULT: -6.570529902      0.000      0.000
REMARK  8 active torsions:
REMARK  status: ('A' for Active; 'I' for Inactive)
REMARK    1  A    between atoms: C3_3  and  N1_5 
REMARK    2  A    between atoms: N2_8  and  C7_9 
REMARK    3  A    between atoms: C7_9  and  O1_10 
REMARK    4  A    between atoms: C7_9  and  N3_12 
REMARK    5  A    between atoms: C10_15  and  C11_16 
REMARK    6  A    between atoms: C11_16  and  N4_17 
REMARK    7  A    between atoms: C11_16  and  N5_21 
REMARK       I    between atoms: N5_21  and  C12_23 
REMARK       I    between atoms: C12_23  and  N6_25 
REMARK       I    between atoms: C13_27  and  N8_29 
REMARK    8  A    between atoms: N8_29  and  C15_31 
ROOT
HETATM    1  C1  UNL     1      14.441  76.389   9.981  1.00  0.00     0.014 C 
HETATM    2  C2  UNL     1      14.094  76.247  11.126  1.00  0.00    -0.082 C 
HETATM    3  C3  UNL     1      13.644  76.065  12.528  1.00  0.00     0.296 C 
HETATM    4  C4  UNL     1      14.629  76.779  13.428  1.00  0.00     0.056 C 
ENDROOT
BRANCH   3   5
HETATM    5  N1  UNL     1      13.715  74.650  12.836  1.00  0.00     0.107 N 
HETATM    6  C5  UNL     1      12.418  74.211  13.266  1.00  0.00     0.294 C 
HETATM    7  C6  UNL     1      12.553  73.455  14.602  1.00  0.00     0.156 C 
HETATM    8  N2  UNL     1      13.525  72.455  14.381  1.00  0.00    -0.344 N 
HETATM    9  C19 UNL     1      14.904  72.966  14.179  1.00  0.00     0.156 C 
HETATM   10  C20 UNL     1      14.788  74.412  13.745  1.00  0.00     0.294 C 
BRANCH   8  11
HETATM   11  C7  UNL     1      13.323  71.082  14.320  1.00  0.00     0.217 C 
BRANCH  11  12
HETATM   12  O1  UNL     1      13.633  70.369  15.383  1.00  0.00    -0.333 OA
ATOM     13  H1  UNL     1      13.548  69.425  15.322  1.00  0.00     0.220 HD
ENDBRANCH  11  12
BRANCH  11  14
HETATM   14  N3  UNL     1      12.821  70.296  13.268  1.00  0.00    -0.347 N 
HETATM   15  C8  UNL     1      12.982  70.385  11.846  1.00  0.00     0.127 C 
HETATM   16  C9  UNL     1      12.348  69.147  11.240  1.00  0.00     0.030 C 
HETATM   17  C10 UNL     1      12.283  68.198  12.435  1.00  0.00     0.055 C 
HETATM   18  C18 UNL     1      11.941  69.148  13.524  1.00  0.00     0.134 C 
BRANCH  17  19
HETATM   19  C11 UNL     1      13.607  67.521  12.554  1.00  0.00     0.291 C 
BRANCH  19  20
HETATM   20  N4  UNL     1      13.777  66.716  11.330  1.00  0.00    -0.058 N 
ATOM     21  H43 UNL     1      13.185  67.024  10.559  1.00  0.00     0.276 HD
ATOM     22  H42 UNL     1      14.674  66.867  10.869  1.00  0.00     0.276 HD
ATOM     23  H41 UNL     1      13.619  65.745  11.598  1.00  0.00     0.276 HD
ENDBRANCH  19  20
BRANCH  19  24
HETATM   24  N5  UNL     1      13.712  66.694  13.726  1.00  0.00    -0.314 N 
HETATM   25  C12 UNL     1      14.588  67.069  14.766  1.00  0.00     0.324 C 
HETATM   26  O2  UNL     1      15.278  68.112  14.681  1.00  0.00    -0.247 OA
HETATM   27  N6  UNL     1      14.694  66.265  15.920  1.00  0.00    -0.283 N 
HETATM   28  C13 UNL     1      14.244  66.672  17.055  1.00  0.00     0.194 C 
ATOM     29  H6  UNL     1      15.133  65.346  15.854  1.00  0.00     0.173 HD
HETATM   30  N7  UNL     1      13.635  67.960  17.115  1.00  0.00    -0.063 NA
HETATM   31  N8  UNL     1      14.344  65.870  18.224  1.00  0.00    -0.356 N 
HETATM   32  C14 UNL     1      13.599  66.265  19.391  1.00  0.00     0.152 C 
ATOM     33  H5  UNL     1      13.156  65.843  13.805  1.00  0.00     0.166 HD
BRANCH  31  34
HETATM   34  C15 UNL     1      15.184  64.706  18.184  1.00  0.00     0.078 C 
HETATM   35  C16 UNL     1      14.393  63.418  18.162  1.00  0.00     0.032 C 
HETATM   36  C17 UNL     1      16.112  64.727  19.386  1.00  0.00     0.032 C 
ENDBRANCH  31  34
ENDBRANCH  19  24
ENDBRANCH  17  19
ENDBRANCH  11  14
ENDBRANCH   8  11
ENDBRANCH   3   5
TORSDOF 8
ENDMDL
MODEL 2
REMARK VINA RESULT: -6.533365612      1.684      9.013
REMARK  8 active torsions:
REMARK  status: ('A' for Active; 'I' for Inactive)
REMARK    1  A    between atoms: C3_3  and  N1_5 
REMARK    2  A    between atoms: N2_8  and  C7_9 
REMARK    3  A    between atoms: C7_9  and  O1_10 
REMARK    4  A    between atoms: C7_9  and  N3_12 
REMARK    5  A    between atoms: C10_15  and  C11_16 
REMARK    6  A    between atoms: C11_16  and  N4_17 
REMARK    7  A    between atoms: C11_16  and  N5_21 
REMARK       I    between atoms: N5_21  and  C12_23 
REMARK       I    between atoms: C12_23  and  N6_25 
REMARK       I    between atoms: C13_27  and  N8_29 
REMARK    8  A    between atoms: N8_29  and  C15_31 
ROOT
HETATM    1  C1  UNL     1      17.042  65.529  19.426  1.00  0.00     0.014 C 
HETATM    2  C2  UNL     1      15.967  65.284  18.942  1.00  0.00    -0.082 C 
HETATM    3  C3  UNL     1      14.632  65.002  18.359  1.00  0.00     0.296 C 
HETATM    4  C4  UNL     1      14.696  63.646  17.690  1.00  0.00     0.056 C 
ENDROOT
BRANCH   3   5
HETATM    5  N1  UNL     1      14.380  65.989  17.327  1.00  0.00     0.107 N 
HETATM    6  C5  UNL     1      15.311  65.775  16.256  1.00  0.00     0.294 C 
HETATM    7  C6  UNL     1      16.009  67.106  15.915  1.00  0.00     0.156 C 
HETATM    8  N2  UNL     1      14.971  68.036  15.685  1.00  0.00    -0.344 N 
HETATM    9  C19 UNL     1      14.190  68.403  16.891  1.00  0.00     0.156 C 
HETATM   10  C20 UNL     1      14.380  67.294  17.904  1.00  0.00     0.294 C 
BRANCH   8  11
HETATM   11  C7  UNL     1      14.610  68.613  14.473  1.00  0.00     0.217 C 
BRANCH  11  12
HETATM   12  O1  UNL     1      15.176  69.757  14.146  1.00  0.00    -0.333 OA
ATOM     13  H1  UNL     1      15.320  69.930  13.224  1.00  0.00     0.220 HD
ENDBRANCH  11  12
BRANCH  11  14
HETATM   14  N3  UNL     1      13.704  68.160  13.499  1.00  0.00    -0.347 N 
HETATM   15  C8  UNL     1      12.503  67.382  13.598  1.00  0.00     0.127 C 
HETATM   16  C9  UNL     1      11.860  67.365  12.224  1.00  0.00     0.030 C 
HETATM   17  C10 UNL     1      12.526  68.557  11.539  1.00  0.00     0.055 C 
HETATM   18  C18 UNL     1      13.907  68.445  12.073  1.00  0.00     0.134 C 
BRANCH  17  19
HETATM   19  C11 UNL     1      11.776  69.787  11.929  1.00  0.00     0.291 C 
BRANCH  19  20
HETATM   20  N4  UNL     1      10.430  69.660  11.340  1.00  0.00    -0.058 N 
ATOM     21  H43 UNL     1      10.432  69.222  10.420  1.00  0.00     0.276 HD
ATOM     22  H42 UNL     1       9.847  68.966  11.809  1.00  0.00     0.276 HD
ATOM     23  H41 UNL     1      10.024  70.596  11.341  1.00  0.00     0.276 HD
ENDBRANCH  19  20
BRANCH  19  24
HETATM   24  N5  UNL     1      12.414  70.997  11.487  1.00  0.00    -0.314 N 
HETATM   25  C12 UNL     1      11.846  72.245  11.822  1.00  0.00     0.324 C 
HETATM   26  O2  UNL     1      10.794  72.312  12.499  1.00  0.00    -0.247 OA
HETATM   27  N6  UNL     1      12.468  73.436  11.394  1.00  0.00    -0.283 N 
HETATM   28  C13 UNL     1      13.041  74.224  12.236  1.00  0.00     0.194 C 
ATOM     29  H6  UNL     1      12.463  73.678  10.403  1.00  0.00     0.173 HD
HETATM   30  N7  UNL     1      13.032  73.859  13.614  1.00  0.00    -0.063 NA
HETATM   31  N8  UNL     1      13.672  75.426  11.816  1.00  0.00    -0.356 N 
HETATM   32  C14 UNL     1      14.512  76.123  12.756  1.00  0.00     0.152 C 
ATOM     33  H5  UNL     1      13.270  70.954  10.935  1.00  0.00     0.166 HD
BRANCH  31  34
HETATM   34  C15 UNL     1      13.440  75.888  10.476  1.00  0.00     0.078 C 
HETATM   35  C16 UNL     1      14.628  76.624   9.901  1.00  0.00     0.032 C 
HETATM   36  C17 UNL     1      12.217  76.788  10.469  1.00  0.00     0.032 C 
ENDBRANCH  31  34
ENDBRANCH  19  24
ENDBRANCH  17  19
ENDBRANCH  11  14
ENDBRANCH   8  11
ENDBRANCH   3   5
TORSDOF 8
ENDMDL
MODEL 3
REMARK VINA RESULT: -6.507270833      2.101      2.587
REMARK  8 active torsions:
REMARK  status: ('A' for Active; 'I' for Inactive)
REMARK    1  A    between atoms: C3_3  and  N1_5 
REMARK    2  A    between atoms: N2_8  and  C7_9 
REMARK    3  A    between atoms: C7_9  and  O1_10 
REMARK    4  A    between atoms: C7_9  and  N3_12 
REMARK    5  A    between atoms: C10_15  and  C11_16 
REMARK    6  A    between atoms: C11_16  and  N4_17 
REMARK    7  A    between atoms: C11_16  and  N5_21 
REMARK       I    between atoms: N5_21  and  C12_23 
REMARK       I    between atoms: C12_23  and  N6_25 
REMARK       I    between atoms: C13_27  and  N8_29 
REMARK    8  A    between atoms: N8_29  and  C15_31 
ROOT
HETATM    1  C1  UNL     1      13.906  75.636  10.756  1.00  0.00     0.014 C 
HETATM    2  C2  UNL     1      13.649  75.002  11.747  1.00  0.00    -0.082 C 
HETATM    3  C3  UNL     1      13.306  74.228  12.965  1.00  0.00     0.296 C 
HETATM    4  C4  UNL     1      14.600  73.854  13.655  1.00  0.00     0.056 C 
ENDROOT
BRANCH   3   5
HETATM    5  N1  UNL     1      12.663  72.998  12.544  1.00  0.00     0.107 N 
HETATM    6  C5  UNL     1      11.301  73.291  12.200  1.00  0.00     0.294 C 
HETATM    7  C6  UNL     1      10.368  72.313  12.939  1.00  0.00     0.156 C 
HETATM    8  N2  UNL     1      10.842  71.019  12.628  1.00  0.00    -0.344 N 
HETATM    9  C19 UNL     1      12.162  70.686  13.218  1.00  0.00     0.156 C 
HETATM   10  C20 UNL     1      12.855  71.993  13.538  1.00  0.00     0.294 C 
BRANCH   8  11
HETATM   11  C7  UNL     1      10.221  70.063  11.834  1.00  0.00     0.217 C 
BRANCH  11  12
HETATM   12  O1  UNL     1       8.968  70.275  11.487  1.00  0.00    -0.333 OA
ATOM     13  H1  UNL     1       8.742  70.178  10.570  1.00  0.00     0.220 HD
ENDBRANCH  11  12
BRANCH  11  14
HETATM   14  N3  UNL     1      10.730  68.858  11.319  1.00  0.00    -0.347 N 
HETATM   15  C8  UNL     1      11.251  68.513  10.029  1.00  0.00     0.127 C 
HETATM   16  C9  UNL     1      11.813  67.108  10.127  1.00  0.00     0.030 C 
HETATM   17  C10 UNL     1      11.989  66.934  11.635  1.00  0.00     0.055 C 
HETATM   18  C18 UNL     1      10.780  67.638  12.136  1.00  0.00     0.134 C 
BRANCH  17  19
HETATM   19  C11 UNL     1      13.299  67.537  12.016  1.00  0.00     0.291 C 
BRANCH  19  20
HETATM   20  N4  UNL     1      14.246  67.194  10.939  1.00  0.00    -0.058 N 
ATOM     21  H43 UNL     1      15.072  67.792  10.923  1.00  0.00     0.276 HD
ATOM     22  H42 UNL     1      14.732  66.311  11.094  1.00  0.00     0.276 HD
ATOM     23  H41 UNL     1      13.715  67.216  10.068  1.00  0.00     0.276 HD
ENDBRANCH  19  20
BRANCH  19  24
HETATM   24  N5  UNL     1      13.782  67.072  13.288  1.00  0.00    -0.314 N 
HETATM   25  C12 UNL     1      14.748  67.829  13.984  1.00  0.00     0.324 C 
HETATM   26  O2  UNL     1      15.191  68.901  13.508  1.00  0.00    -0.247 OA
HETATM   27  N6  UNL     1      15.225  67.380  15.233  1.00  0.00    -0.283 N 
HETATM   28  C13 UNL     1      14.926  68.004  16.319  1.00  0.00     0.194 C 
ATOM     29  H6  UNL     1      15.815  66.550  15.277  1.00  0.00     0.173 HD
HETATM   30  N7  UNL     1      14.098  69.161  16.226  1.00  0.00    -0.063 NA
HETATM   31  N8  UNL     1      15.399  67.560  17.583  1.00  0.00    -0.356 N 
HETATM   32  C14 UNL     1      14.824  68.137  18.771  1.00  0.00     0.152 C 
ATOM     33  H5  UNL     1      13.430  66.201  13.684  1.00  0.00     0.166 HD
BRANCH  31  34
HETATM   34  C15 UNL     1      16.429  66.559  17.615  1.00  0.00     0.078 C 
HETATM   35  C16 UNL     1      16.173  65.494  18.656  1.00  0.00     0.032 C 
HETATM   36  C17 UNL     1      17.764  67.234  17.877  1.00  0.00     0.032 C 
ENDBRANCH  31  34
ENDBRANCH  19  24
ENDBRANCH  17  19
ENDBRANCH  11  14
ENDBRANCH   8  11
ENDBRANCH   3   5
TORSDOF 8
ENDMDL
MODEL 4
REMARK VINA RESULT: -6.492014385      1.071      1.154
REMARK  8 active torsions:
REMARK  status: ('A' for Active; 'I' for Inactive)
REMARK    1  A    between atoms: C3_3  and  N1_5 
REMARK    2  A    between atoms: N2_8  and  C7_9 
REMARK    3  A    between atoms: C7_9  and  O1_10 
REMARK    4  A    between atoms: C7_9  and  N3_12 
REMARK    5  A    between atoms: C10_15  and  C11_16 
REMARK    6  A    between atoms: C11_16  and  N4_17 
REMARK    7  A    between atoms: C11_16  and  N5_21 
REMARK       I    between atoms: N5_21  and  C12_23 
REMARK       I    between atoms: C12_23  and  N6_25 
REMARK       I    between atoms: C13_27  and  N8_29 
REMARK    8  A    between atoms: N8_29  and  C15_31 
ROOT
HETATM    1  C1  UNL     1      14.495  76.389   9.983  1.00  0.00     0.014 C 
HETATM    2  C2  UNL     1      13.502  75.973  10.525  1.00  0.00    -0.082 C 
HETATM    3  C3  UNL     1      12.275  75.445  11.171  1.00  0.00     0.296 C 
HETATM    4  C4  UNL     1      11.935  76.354  12.332  1.00  0.00     0.056 C 
ENDROOT
BRANCH   3   5
HETATM    5  N1  UNL     1      12.588  74.138  11.714  1.00  0.00     0.107 N 
HETATM    6  C5  UNL     1      11.361  73.420  11.910  1.00  0.00     0.294 C 
HETATM    7  C6  UNL     1      11.318  72.867  13.347  1.00  0.00     0.156 C 
HETATM    8  N2  UNL     1      12.517  72.141  13.516  1.00  0.00    -0.344 N 
HETATM    9  C19 UNL     1      13.745  72.973  13.546  1.00  0.00     0.156 C 
HETATM   10  C20 UNL     1      13.416  74.285  12.866  1.00  0.00     0.294 C 
BRANCH   8  11
HETATM   11  C7  UNL     1      12.659  70.764  13.637  1.00  0.00     0.217 C 
BRANCH  11  12
HETATM   12  O1  UNL     1      13.157  70.296  14.763  1.00  0.00    -0.333 OA
ATOM     13  H1  UNL     1      14.000  70.629  15.044  1.00  0.00     0.220 HD
ENDBRANCH  11  12
BRANCH  11  14
HETATM   14  N3  UNL     1      12.345  69.746  12.719  1.00  0.00    -0.347 N 
HETATM   15  C8  UNL     1      12.513  69.655  11.298  1.00  0.00     0.127 C 
HETATM   16  C9  UNL     1      12.152  68.240  10.889  1.00  0.00     0.030 C 
HETATM   17  C10 UNL     1      12.255  67.483  12.212  1.00  0.00     0.055 C 
HETATM   18  C18 UNL     1      11.708  68.496  13.152  1.00  0.00     0.134 C 
BRANCH  17  19
HETATM   19  C11 UNL     1      13.685  67.112  12.417  1.00  0.00     0.291 C 
BRANCH  19  20
HETATM   20  N4  UNL     1      14.065  66.264  11.271  1.00  0.00    -0.058 N 
ATOM     21  H43 UNL     1      13.533  65.396  11.218  1.00  0.00     0.276 HD
ATOM     22  H42 UNL     1      13.774  66.647  10.372  1.00  0.00     0.276 HD
ATOM     23  H41 UNL     1      15.072  66.117  11.342  1.00  0.00     0.276 HD
ENDBRANCH  19  20
BRANCH  19  24
HETATM   24  N5  UNL     1      13.914  66.423  13.658  1.00  0.00    -0.314 N 
HETATM   25  C12 UNL     1      14.694  67.038  14.661  1.00  0.00     0.324 C 
HETATM   26  O2  UNL     1      15.190  68.175  14.483  1.00  0.00    -0.247 OA
HETATM   27  N6  UNL     1      14.920  66.370  15.882  1.00  0.00    -0.283 N 
HETATM   28  C13 UNL     1      14.387  66.790  16.976  1.00  0.00     0.194 C 
ATOM     29  H6  UNL     1      15.515  65.542  15.899  1.00  0.00     0.173 HD
HETATM   30  N7  UNL     1      13.559  67.949  16.920  1.00  0.00    -0.063 NA
HETATM   31  N8  UNL     1      14.607  66.124  18.212  1.00  0.00    -0.356 N 
HETATM   32  C14 UNL     1      13.784  66.482  19.339  1.00  0.00     0.152 C 
ATOM     33  H5  UNL     1      13.516  65.497  13.813  1.00  0.00     0.166 HD
BRANCH  31  34
HETATM   34  C15 UNL     1      15.640  65.128  18.278  1.00  0.00     0.078 C 
HETATM   35  C16 UNL     1      15.190  63.870  18.983  1.00  0.00     0.032 C 
HETATM   36  C17 UNL     1      16.849  65.718  18.984  1.00  0.00     0.032 C 
ENDBRANCH  31  34
ENDBRANCH  19  24
ENDBRANCH  17  19
ENDBRANCH  11  14
ENDBRANCH   8  11
ENDBRANCH   3   5
TORSDOF 8
ENDMDL
MODEL 5
REMARK VINA RESULT: -6.441073111      1.623      8.804
REMARK  8 active torsions:
REMARK  status: ('A' for Active; 'I' for Inactive)
REMARK    1  A    between atoms: C3_3  and  N1_5 
REMARK    2  A    between atoms: N2_8  and  C7_9 
REMARK    3  A    between atoms: C7_9  and  O1_10 
REMARK    4  A    between atoms: C7_9  and  N3_12 
REMARK    5  A    between atoms: C10_15  and  C11_16 
REMARK    6  A    between atoms: C11_16  and  N4_17 
REMARK    7  A    between atoms: C11_16  and  N5_21 
REMARK       I    between atoms: N5_21  and  C12_23 
REMARK       I    between atoms: C12_23  and  N6_25 
REMARK       I    between atoms: C13_27  and  N8_29 
REMARK    8  A    between atoms: N8_29  and  C15_31 
ROOT
HETATM    1  C1  UNL     1      13.704  62.559  17.917  1.00  0.00     0.014 C 
HETATM    2  C2  UNL     1      14.439  63.511  17.866  1.00  0.00    -0.082 C 
HETATM    3  C3  UNL     1      15.354  64.677  17.780  1.00  0.00     0.296 C 
HETATM    4  C4  UNL     1      15.457  65.288  19.160  1.00  0.00     0.056 C 
ENDROOT
BRANCH   3   5
HETATM    5  N1  UNL     1      14.739  65.660  16.909  1.00  0.00     0.107 N 
HETATM    6  C5  UNL     1      15.738  66.161  16.010  1.00  0.00     0.294 C 
HETATM    7  C6  UNL     1      15.727  67.702  16.045  1.00  0.00     0.156 C 
HETATM    8  N2  UNL     1      14.390  68.083  15.793  1.00  0.00    -0.344 N 
HETATM    9  C19 UNL     1      13.436  67.746  16.877  1.00  0.00     0.156 C 
HETATM   10  C20 UNL     1      14.059  66.637  17.697  1.00  0.00     0.294 C 
BRANCH   8  11
HETATM   11  C7  UNL     1      13.893  68.707  14.656  1.00  0.00     0.217 C 
BRANCH  11  12
HETATM   12  O1  UNL     1      13.679  70.006  14.715  1.00  0.00    -0.333 OA
ATOM     13  H1  UNL     1      13.181  70.404  14.010  1.00  0.00     0.220 HD
ENDBRANCH  11  12
BRANCH  11  14
HETATM   14  N3  UNL     1      13.566  68.161  13.403  1.00  0.00    -0.347 N 
HETATM   15  C8  UNL     1      12.753  67.041  13.030  1.00  0.00     0.127 C 
HETATM   16  C9  UNL     1      12.631  67.052  11.518  1.00  0.00     0.030 C 
HETATM   17  C10 UNL     1      13.015  68.490  11.172  1.00  0.00     0.055 C 
HETATM   18  C18 UNL     1      14.100  68.730  12.158  1.00  0.00     0.134 C 
BRANCH  17  19
HETATM   19  C11 UNL     1      11.798  69.338  11.325  1.00  0.00     0.291 C 
BRANCH  19  20
HETATM   20  N4  UNL     1      10.825  68.859  10.325  1.00  0.00    -0.058 N 
ATOM     21  H43 UNL     1      10.795  69.434   9.483  1.00  0.00     0.276 HD
ATOM     22  H42 UNL     1      11.106  67.989   9.874  1.00  0.00     0.276 HD
ATOM     23  H41 UNL     1       9.926  68.795  10.803  1.00  0.00     0.276 HD
ENDBRANCH  19  20
BRANCH  19  24
HETATM   24  N5  UNL     1      12.064  70.740  11.146  1.00  0.00    -0.314 N 
HETATM   25  C12 UNL     1      11.786  71.641  12.196  1.00  0.00     0.324 C 
HETATM   26  O2  UNL     1      11.308  71.236  13.281  1.00  0.00    -0.247 OA
HETATM   27  N6  UNL     1      12.047  73.016  12.028  1.00  0.00    -0.283 N 
HETATM   28  C13 UNL     1      12.996  73.595  12.678  1.00  0.00     0.194 C 
ATOM     29  H6  UNL     1      11.476  73.561  11.382  1.00  0.00     0.173 HD
HETATM   30  N7  UNL     1      13.777  72.806  13.573  1.00  0.00    -0.063 NA
HETATM   31  N8  UNL     1      13.270  74.980  12.516  1.00  0.00    -0.356 N 
HETATM   32  C14 UNL     1      14.493  75.505  13.065  1.00  0.00     0.152 C 
ATOM     33  H5  UNL     1      12.452  71.081  10.266  1.00  0.00     0.166 HD
BRANCH  31  34
HETATM   34  C15 UNL     1      12.312  75.789  11.815  1.00  0.00     0.078 C 
HETATM   35  C16 UNL     1      12.789  76.194  10.440  1.00  0.00     0.032 C 
HETATM   36  C17 UNL     1      12.007  77.023  12.646  1.00  0.00     0.032 C 
ENDBRANCH  31  34
ENDBRANCH  19  24
ENDBRANCH  17  19
ENDBRANCH  11  14
ENDBRANCH   8  11
ENDBRANCH   3   5
TORSDOF 8
ENDMDL
