MODEL 1
REMARK VINA RESULT: -8.787755498      0.000      0.000
REMARK  7 active torsions:
REMARK  status: ('A' for Active; 'I' for Inactive)
REMARK    1  A    between atoms: C2_2  and  N1_3 
REMARK    2  A    between atoms: C2_2  and  N3_30 
REMARK       I    between atoms: N1_3  and  C3_4 
REMARK    3  A    between atoms: C3_4  and  C4_6 
REMARK    4  A    between atoms: C6_8  and  C7_9 
REMARK       I    between atoms: C7_9  and  N2_11 
REMARK    5  A    between atoms: N2_11  and  C8_13 
REMARK    6  A    between atoms: C19_24  and  S1_26 
REMARK    7  A    between atoms: N3_30  and  N4_32 
ROOT
HETATM    1  C4  UNL     1      16.589 -12.882  19.859  1.00  0.00     0.145 C 
HETATM    2  C5  UNL     1      18.049 -13.043  19.660  1.00  0.00    -0.057 C 
HETATM    3  C6  UNL     1      19.165 -13.313  20.257  1.00  0.00     0.078 C 
HETATM    4  C18 UNL     1      17.788 -12.709  18.191  1.00  0.00     0.061 C 
HETATM    5  C19 UNL     1      16.422 -13.245  18.408  1.00  0.00     0.080 C 
HETATM    6  C20 UNL     1      16.407 -14.750  18.196  1.00  0.00     0.033 C 
ENDROOT
BRANCH   1   7
HETATM    7  C3  UNL     1      16.181 -11.508  20.247  1.00  0.00     0.303 C 
HETATM    8  N1  UNL     1      15.016 -11.216  20.790  1.00  0.00    -0.355 NA
HETATM    9  O1  UNL     1      17.044 -10.589  20.022  1.00  0.00    -0.256 OA
BRANCH   8  10
HETATM   10  C2  UNL     1      13.968 -10.952  21.274  1.00  0.00     0.171 C 
HETATM   11  C1  UNL     1      13.127 -11.913  22.074  1.00  0.00     0.108 C 
BRANCH  10  12
HETATM   12  N3  UNL     1      13.397  -9.633  21.129  1.00  0.00    -0.264 N 
ATOM     13  H3  UNL     1      13.481  -8.947  21.879  1.00  0.00     0.191 HD
BRANCH  12  14
HETATM   14  N4  UNL     1      12.738  -9.316  19.965  1.00  0.00    -0.247 N 
HETATM   15  N5  UNL     1      13.056  -9.874  18.876  1.00  0.00    -0.331 N 
ATOM     16  H52 UNL     1      13.809 -10.562  18.879  1.00  0.00     0.178 HD
ATOM     17  H51 UNL     1      12.567  -9.638  18.012  1.00  0.00     0.178 HD
ATOM     18  H4  UNL     1      11.987  -8.625  19.980  1.00  0.00     0.207 HD
ENDBRANCH  12  14
ENDBRANCH  10  12
ENDBRANCH   8  10
ENDBRANCH   1   7
BRANCH   3  19
HETATM   19  C7  UNL     1      19.410 -13.613  21.634  1.00  0.00     0.242 C 
HETATM   20  O2  UNL     1      18.365 -13.844  22.350  1.00  0.00    -0.269 OA
HETATM   21  N2  UNL     1      20.690 -13.663  22.193  1.00  0.00    -0.348 N 
ATOM     22  H2  UNL     1      21.476 -13.478  21.568  1.00  0.00     0.163 HD
BRANCH  21  23
HETATM   23  C8  UNL     1      21.006 -13.956  23.585  1.00  0.00     0.034 C 
HETATM   24  C9  UNL     1      22.441 -13.607  23.904  1.00  0.00     0.035 C 
HETATM   25  C10 UNL     1      22.710 -13.950  25.356  1.00  0.00    -0.012 C 
HETATM   26  C11 UNL     1      22.537 -15.420  25.572  1.00  0.00     0.009 C 
HETATM   27  C15 UNL     1      21.808 -13.129  26.254  1.00  0.00     0.009 C 
HETATM   28  C12 UNL     1      21.136 -15.816  25.225  1.00  0.00    -0.012 C 
HETATM   29  C13 UNL     1      20.198 -15.033  26.150  1.00  0.00     0.009 C 
HETATM   30  C17 UNL     1      20.772 -15.435  23.830  1.00  0.00     0.035 C 
HETATM   31  C14 UNL     1      20.373 -13.563  25.953  1.00  0.00    -0.012 C 
HETATM   32  C16 UNL     1      20.121 -13.157  24.494  1.00  0.00     0.035 C 
ENDBRANCH  21  23
ENDBRANCH   3  19
BRANCH   5  33
HETATM   33  S1  UNL     1      15.189 -12.478  17.464  1.00  0.00     0.150 S 
HETATM   34  C21 UNL     1      15.229 -13.271  15.841  1.00  0.00     0.162 C 
HETATM   35  O3  UNL     1      13.797 -12.721  18.013  1.00  0.00    -0.227 OA
HETATM   36  O4  UNL     1      15.382 -11.016  17.207  1.00  0.00    -0.227 OA
ENDBRANCH   5  33
TORSDOF 7
ENDMDL
MODEL 2
REMARK VINA RESULT: -8.781914702      0.068      1.338
REMARK  7 active torsions:
REMARK  status: ('A' for Active; 'I' for Inactive)
REMARK    1  A    between atoms: C2_2  and  N1_3 
REMARK    2  A    between atoms: C2_2  and  N3_30 
REMARK       I    between atoms: N1_3  and  C3_4 
REMARK    3  A    between atoms: C3_4  and  C4_6 
REMARK    4  A    between atoms: C6_8  and  C7_9 
REMARK       I    between atoms: C7_9  and  N2_11 
REMARK    5  A    between atoms: N2_11  and  C8_13 
REMARK    6  A    between atoms: C19_24  and  S1_26 
REMARK    7  A    between atoms: N3_30  and  N4_32 
ROOT
HETATM    1  C4  UNL     1      16.579 -12.888  19.815  1.00  0.00     0.145 C 
HETATM    2  C5  UNL     1      18.042 -13.044  19.629  1.00  0.00    -0.057 C 
HETATM    3  C6  UNL     1      19.152 -13.320  20.233  1.00  0.00     0.078 C 
HETATM    4  C18 UNL     1      17.796 -12.689  18.161  1.00  0.00     0.061 C 
HETATM    5  C19 UNL     1      16.429 -13.230  18.356  1.00  0.00     0.080 C 
HETATM    6  C20 UNL     1      16.418 -14.732  18.123  1.00  0.00     0.033 C 
ENDROOT
BRANCH   1   7
HETATM    7  C3  UNL     1      16.166 -11.520  20.217  1.00  0.00     0.303 C 
HETATM    8  N1  UNL     1      14.999 -11.239  20.763  1.00  0.00    -0.355 NA
HETATM    9  O1  UNL     1      17.025 -10.595  20.002  1.00  0.00    -0.256 OA
BRANCH   8  10
HETATM   10  C2  UNL     1      13.950 -10.985  21.251  1.00  0.00     0.171 C 
HETATM   11  C1  UNL     1      13.117 -11.957  22.046  1.00  0.00     0.108 C 
BRANCH  10  12
HETATM   12  N3  UNL     1      13.370  -9.669  21.115  1.00  0.00    -0.264 N 
ATOM     13  H3  UNL     1      13.433  -8.995  21.877  1.00  0.00     0.191 HD
BRANCH  12  14
HETATM   14  N4  UNL     1      12.731  -9.340  19.943  1.00  0.00    -0.247 N 
HETATM   15  N5  UNL     1      13.060  -9.895  18.856  1.00  0.00    -0.331 N 
ATOM     16  H52 UNL     1      13.807 -10.589  18.866  1.00  0.00     0.178 HD
ATOM     17  H51 UNL     1      12.586  -9.650  17.986  1.00  0.00     0.178 HD
ATOM     18  H4  UNL     1      11.986  -8.643  19.952  1.00  0.00     0.207 HD
ENDBRANCH  12  14
ENDBRANCH  10  12
ENDBRANCH   8  10
ENDBRANCH   1   7
BRANCH   3  19
HETATM   19  C7  UNL     1      19.383 -13.640  21.608  1.00  0.00     0.242 C 
HETATM   20  O2  UNL     1      18.337 -13.941  22.296  1.00  0.00    -0.269 OA
HETATM   21  N2  UNL     1      20.652 -13.637  22.194  1.00  0.00    -0.348 N 
ATOM     22  H2  UNL     1      21.440 -13.397  21.592  1.00  0.00     0.163 HD
BRANCH  21  23
HETATM   23  C8  UNL     1      20.953 -13.945  23.586  1.00  0.00     0.034 C 
HETATM   24  C9  UNL     1      20.043 -13.185  24.522  1.00  0.00     0.035 C 
HETATM   25  C10 UNL     1      20.417 -13.534  25.950  1.00  0.00    -0.012 C 
HETATM   26  C11 UNL     1      21.822 -13.102  26.227  1.00  0.00     0.009 C 
HETATM   27  C15 UNL     1      20.216 -15.017  26.186  1.00  0.00     0.009 C 
HETATM   28  C12 UNL     1      22.755 -13.801  25.289  1.00  0.00    -0.012 C 
HETATM   29  C13 UNL     1      22.608 -15.307  25.535  1.00  0.00     0.009 C 
HETATM   30  C17 UNL     1      22.397 -13.568  23.860  1.00  0.00     0.035 C 
HETATM   31  C14 UNL     1      21.204 -15.746  25.276  1.00  0.00    -0.012 C 
HETATM   32  C16 UNL     1      20.766 -15.409  23.844  1.00  0.00     0.035 C 
ENDBRANCH  21  23
ENDBRANCH   3  19
BRANCH   5  33
HETATM   33  S1  UNL     1      15.205 -12.453  17.410  1.00  0.00     0.150 S 
HETATM   34  C21 UNL     1      15.250 -13.235  15.783  1.00  0.00     0.162 C 
HETATM   35  O3  UNL     1      13.808 -12.693  17.950  1.00  0.00    -0.227 OA
HETATM   36  O4  UNL     1      15.405 -10.990  17.163  1.00  0.00    -0.227 OA
ENDBRANCH   5  33
TORSDOF 7
ENDMDL
MODEL 3
REMARK VINA RESULT: -8.534124122      1.342      1.692
REMARK  7 active torsions:
REMARK  status: ('A' for Active; 'I' for Inactive)
REMARK    1  A    between atoms: C2_2  and  N1_3 
REMARK    2  A    between atoms: C2_2  and  N3_30 
REMARK       I    between atoms: N1_3  and  C3_4 
REMARK    3  A    between atoms: C3_4  and  C4_6 
REMARK    4  A    between atoms: C6_8  and  C7_9 
REMARK       I    between atoms: C7_9  and  N2_11 
REMARK    5  A    between atoms: N2_11  and  C8_13 
REMARK    6  A    between atoms: C19_24  and  S1_26 
REMARK    7  A    between atoms: N3_30  and  N4_32 
ROOT
HETATM    1  C4  UNL     1      16.777 -12.979  20.081  1.00  0.00     0.145 C 
HETATM    2  C5  UNL     1      18.139 -13.084  19.504  1.00  0.00    -0.057 C 
HETATM    3  C6  UNL     1      19.396 -13.176  19.795  1.00  0.00     0.078 C 
HETATM    4  C18 UNL     1      17.458 -13.029  18.135  1.00  0.00     0.061 C 
HETATM    5  C19 UNL     1      16.267 -13.601  18.808  1.00  0.00     0.080 C 
HETATM    6  C20 UNL     1      16.356 -15.118  18.840  1.00  0.00     0.033 C 
ENDROOT
BRANCH   1   7
HETATM    7  C3  UNL     1      16.344 -11.586  20.355  1.00  0.00     0.303 C 
HETATM    8  N1  UNL     1      15.201 -11.275  20.933  1.00  0.00    -0.355 NA
HETATM    9  O1  UNL     1      17.161 -10.670  19.990  1.00  0.00    -0.256 OA
BRANCH   8  10
HETATM   10  C2  UNL     1      14.173 -10.995  21.450  1.00  0.00     0.171 C 
HETATM   11  C1  UNL     1      13.705  -9.588  21.721  1.00  0.00     0.108 C 
BRANCH  10  12
HETATM   12  N3  UNL     1      13.251 -12.024  21.872  1.00  0.00    -0.264 N 
ATOM     13  H3  UNL     1      12.269 -11.804  22.034  1.00  0.00     0.191 HD
BRANCH  12  14
HETATM   14  N4  UNL     1      13.718 -13.304  22.052  1.00  0.00    -0.247 N 
HETATM   15  N5  UNL     1      12.923 -14.287  22.025  1.00  0.00    -0.331 N 
ATOM     16  H52 UNL     1      11.931 -14.111  21.867  1.00  0.00     0.178 HD
ATOM     17  H51 UNL     1      13.270 -15.237  22.159  1.00  0.00     0.178 HD
ATOM     18  H4  UNL     1      14.714 -13.462  22.210  1.00  0.00     0.207 HD
ENDBRANCH  12  14
ENDBRANCH  10  12
ENDBRANCH   8  10
ENDBRANCH   1   7
BRANCH   3  19
HETATM   19  C7  UNL     1      20.033 -13.215  21.075  1.00  0.00     0.242 C 
HETATM   20  O2  UNL     1      20.999 -12.380  21.244  1.00  0.00    -0.269 OA
HETATM   21  N2  UNL     1      19.651 -14.089  22.096  1.00  0.00    -0.348 N 
ATOM     22  H2  UNL     1      18.873 -14.720  21.899  1.00  0.00     0.163 HD
BRANCH  21  23
HETATM   23  C8  UNL     1      20.262 -14.183  23.416  1.00  0.00     0.034 C 
HETATM   24  C9  UNL     1      21.769 -14.231  23.318  1.00  0.00     0.035 C 
HETATM   25  C10 UNL     1      22.340 -14.346  24.717  1.00  0.00    -0.012 C 
HETATM   26  C11 UNL     1      21.883 -15.621  25.351  1.00  0.00     0.009 C 
HETATM   27  C15 UNL     1      21.953 -13.130  25.533  1.00  0.00     0.009 C 
HETATM   28  C12 UNL     1      20.388 -15.633  25.427  1.00  0.00    -0.012 C 
HETATM   29  C13 UNL     1      19.965 -14.436  26.286  1.00  0.00     0.009 C 
HETATM   30  C17 UNL     1      19.753 -15.443  24.092  1.00  0.00     0.035 C 
HETATM   31  C14 UNL     1      20.431 -13.158  25.671  1.00  0.00    -0.012 C 
HETATM   32  C16 UNL     1      19.888 -12.991  24.245  1.00  0.00     0.035 C 
ENDBRANCH  21  23
ENDBRANCH   3  19
BRANCH   5  33
HETATM   33  S1  UNL     1      14.751 -13.089  18.146  1.00  0.00     0.150 S 
HETATM   34  C21 UNL     1      14.485 -14.083  16.662  1.00  0.00     0.162 C 
HETATM   35  O3  UNL     1      13.582 -13.388  19.064  1.00  0.00    -0.227 OA
HETATM   36  O4  UNL     1      14.686 -11.663  17.697  1.00  0.00    -0.227 OA
ENDBRANCH   5  33
TORSDOF 7
ENDMDL
MODEL 4
REMARK VINA RESULT: -8.448172761      1.341      2.202
REMARK  7 active torsions:
REMARK  status: ('A' for Active; 'I' for Inactive)
REMARK    1  A    between atoms: C2_2  and  N1_3 
REMARK    2  A    between atoms: C2_2  and  N3_30 
REMARK       I    between atoms: N1_3  and  C3_4 
REMARK    3  A    between atoms: C3_4  and  C4_6 
REMARK    4  A    between atoms: C6_8  and  C7_9 
REMARK       I    between atoms: C7_9  and  N2_11 
REMARK    5  A    between atoms: N2_11  and  C8_13 
REMARK    6  A    between atoms: C19_24  and  S1_26 
REMARK    7  A    between atoms: N3_30  and  N4_32 
ROOT
HETATM    1  C4  UNL     1      16.805 -12.975  20.072  1.00  0.00     0.145 C 
HETATM    2  C5  UNL     1      18.170 -13.070  19.503  1.00  0.00    -0.057 C 
HETATM    3  C6  UNL     1      19.425 -13.171  19.800  1.00  0.00     0.078 C 
HETATM    4  C18 UNL     1      17.499 -12.984  18.131  1.00  0.00     0.061 C 
HETATM    5  C19 UNL     1      16.302 -13.568  18.783  1.00  0.00     0.080 C 
HETATM    6  C20 UNL     1      16.388 -15.085  18.783  1.00  0.00     0.033 C 
ENDROOT
BRANCH   1   7
HETATM    7  C3  UNL     1      16.372 -11.587  20.373  1.00  0.00     0.303 C 
HETATM    8  N1  UNL     1      15.222 -11.286  20.942  1.00  0.00    -0.355 NA
HETATM    9  O1  UNL     1      17.197 -10.665  20.043  1.00  0.00    -0.256 OA
BRANCH   8  10
HETATM   10  C2  UNL     1      14.187 -11.014  21.449  1.00  0.00     0.171 C 
HETATM   11  C1  UNL     1      13.706  -9.611  21.717  1.00  0.00     0.108 C 
BRANCH  10  12
HETATM   12  N3  UNL     1      13.270 -12.051  21.864  1.00  0.00    -0.264 N 
ATOM     13  H3  UNL     1      12.285 -11.838  22.020  1.00  0.00     0.191 HD
BRANCH  12  14
HETATM   14  N4  UNL     1      13.745 -13.328  22.044  1.00  0.00    -0.247 N 
HETATM   15  N5  UNL     1      12.956 -14.315  22.022  1.00  0.00    -0.331 N 
ATOM     16  H52 UNL     1      11.961 -14.145  21.869  1.00  0.00     0.178 HD
ATOM     17  H51 UNL     1      13.308 -15.263  22.157  1.00  0.00     0.178 HD
ATOM     18  H4  UNL     1      14.742 -13.480  22.196  1.00  0.00     0.207 HD
ENDBRANCH  12  14
ENDBRANCH  10  12
ENDBRANCH   8  10
ENDBRANCH   1   7
BRANCH   3  19
HETATM   19  C7  UNL     1      20.053 -13.238  21.083  1.00  0.00     0.242 C 
HETATM   20  O2  UNL     1      21.020 -12.410  21.276  1.00  0.00    -0.269 OA
HETATM   21  N2  UNL     1      19.661 -14.132  22.083  1.00  0.00    -0.348 N 
ATOM     22  H2  UNL     1      18.883 -14.756  21.868  1.00  0.00     0.163 HD
BRANCH  21  23
HETATM   23  C8  UNL     1      20.263 -14.256  23.405  1.00  0.00     0.034 C 
HETATM   24  C9  UNL     1      19.768 -15.494  24.116  1.00  0.00     0.035 C 
HETATM   25  C10 UNL     1      20.415 -15.554  25.486  1.00  0.00    -0.012 C 
HETATM   26  C11 UNL     1      20.003 -14.366  26.296  1.00  0.00     0.009 C 
HETATM   27  C15 UNL     1      21.919 -15.655  25.341  1.00  0.00     0.009 C 
HETATM   28  C12 UNL     1      20.437 -13.113  25.602  1.00  0.00    -0.012 C 
HETATM   29  C13 UNL     1      21.964 -13.164  25.480  1.00  0.00     0.009 C 
HETATM   30  C17 UNL     1      19.903 -13.023  24.214  1.00  0.00     0.035 C 
HETATM   31  C14 UNL     1      22.387 -14.356  24.686  1.00  0.00    -0.012 C 
HETATM   32  C16 UNL     1      21.754 -14.353  23.288  1.00  0.00     0.035 C 
ENDBRANCH  21  23
ENDBRANCH   3  19
BRANCH   5  33
HETATM   33  S1  UNL     1      14.791 -13.039  18.122  1.00  0.00     0.150 S 
HETATM   34  C21 UNL     1      14.540 -13.992  16.608  1.00  0.00     0.162 C 
HETATM   35  O3  UNL     1      13.614 -13.364  19.020  1.00  0.00    -0.227 OA
HETATM   36  O4  UNL     1      14.730 -11.600  17.711  1.00  0.00    -0.227 OA
ENDBRANCH   5  33
TORSDOF 7
ENDMDL
MODEL 5
REMARK VINA RESULT: -8.430695712      0.982      1.835
REMARK  7 active torsions:
REMARK  status: ('A' for Active; 'I' for Inactive)
REMARK    1  A    between atoms: C2_2  and  N1_3 
REMARK    2  A    between atoms: C2_2  and  N3_30 
REMARK       I    between atoms: N1_3  and  C3_4 
REMARK    3  A    between atoms: C3_4  and  C4_6 
REMARK    4  A    between atoms: C6_8  and  C7_9 
REMARK       I    between atoms: C7_9  and  N2_11 
REMARK    5  A    between atoms: N2_11  and  C8_13 
REMARK    6  A    between atoms: C19_24  and  S1_26 
REMARK    7  A    between atoms: N3_30  and  N4_32 
ROOT
HETATM    1  C4  UNL     1      16.412 -12.828  19.885  1.00  0.00     0.145 C 
HETATM    2  C5  UNL     1      17.877 -12.940  19.687  1.00  0.00    -0.057 C 
HETATM    3  C6  UNL     1      19.002 -13.168  20.286  1.00  0.00     0.078 C 
HETATM    4  C18 UNL     1      17.605 -12.622  18.216  1.00  0.00     0.061 C 
HETATM    5  C19 UNL     1      16.259 -13.203  18.435  1.00  0.00     0.080 C 
HETATM    6  C20 UNL     1      16.295 -14.709  18.230  1.00  0.00     0.033 C 
ENDROOT
BRANCH   1   7
HETATM    7  C3  UNL     1      15.958 -11.467  20.267  1.00  0.00     0.303 C 
HETATM    8  N1  UNL     1      14.747 -11.198  20.714  1.00  0.00    -0.355 NA
HETATM    9  O1  UNL     1      16.827 -10.535  20.136  1.00  0.00    -0.256 OA
BRANCH   8  10
HETATM   10  C2  UNL     1      13.659 -10.955  21.112  1.00  0.00     0.171 C 
HETATM   11  C1  UNL     1      13.306  -9.766  21.969  1.00  0.00     0.108 C 
BRANCH  10  12
HETATM   12  N3  UNL     1      12.543 -11.814  20.790  1.00  0.00    -0.264 N 
ATOM     13  H3  UNL     1      11.680 -11.422  20.414  1.00  0.00     0.191 HD
BRANCH  12  14
HETATM   14  N4  UNL     1      12.662 -13.168  20.998  1.00  0.00    -0.247 N 
HETATM   15  N5  UNL     1      13.034 -13.613  22.121  1.00  0.00    -0.331 N 
ATOM     16  H52 UNL     1      13.243 -12.950  22.868  1.00  0.00     0.178 HD
ATOM     17  H51 UNL     1      13.123 -14.618  22.275  1.00  0.00     0.178 HD
ATOM     18  H4  UNL     1      12.450 -13.817  20.240  1.00  0.00     0.207 HD
ENDBRANCH  12  14
ENDBRANCH  10  12
ENDBRANCH   8  10
ENDBRANCH   1   7
BRANCH   3  19
HETATM   19  C7  UNL     1      19.256 -13.454  21.664  1.00  0.00     0.242 C 
HETATM   20  O2  UNL     1      18.218 -13.508  22.425  1.00  0.00    -0.269 OA
HETATM   21  N2  UNL     1      20.538 -13.668  22.179  1.00  0.00    -0.348 N 
ATOM     22  H2  UNL     1      21.316 -13.619  21.521  1.00  0.00     0.163 HD
BRANCH  21  23
HETATM   23  C8  UNL     1      20.864 -13.955  23.571  1.00  0.00     0.034 C 
HETATM   24  C9  UNL     1      20.045 -13.102  24.510  1.00  0.00     0.035 C 
HETATM   25  C10 UNL     1      20.443 -13.434  25.935  1.00  0.00    -0.012 C 
HETATM   26  C11 UNL     1      21.884 -13.099  26.152  1.00  0.00     0.009 C 
HETATM   27  C15 UNL     1      20.143 -14.890  26.227  1.00  0.00     0.009 C 
HETATM   28  C12 UNL     1      22.730 -13.893  25.207  1.00  0.00    -0.012 C 
HETATM   29  C13 UNL     1      22.482 -15.376  25.508  1.00  0.00     0.009 C 
HETATM   30  C17 UNL     1      22.341 -13.678  23.785  1.00  0.00     0.035 C 
HETATM   31  C14 UNL     1      21.043 -15.717  25.309  1.00  0.00    -0.012 C 
HETATM   32  C16 UNL     1      20.580 -15.393  23.882  1.00  0.00     0.035 C 
ENDBRANCH  21  23
ENDBRANCH   3  19
BRANCH   5  33
HETATM   33  S1  UNL     1      15.001 -12.484  17.487  1.00  0.00     0.150 S 
HETATM   34  C21 UNL     1      15.079 -13.270  15.863  1.00  0.00     0.162 C 
HETATM   35  O3  UNL     1      13.617 -12.783  18.030  1.00  0.00    -0.227 OA
HETATM   36  O4  UNL     1      15.136 -11.015  17.234  1.00  0.00    -0.227 OA
ENDBRANCH   5  33
TORSDOF 7
ENDMDL
