MODEL 1
REMARK VINA RESULT: -8.737645006      0.000      0.000
REMARK  8 active torsions:
REMARK  status: ('A' for Active; 'I' for Inactive)
REMARK    1  A    between atoms: C2_2  and  C3_3 
REMARK    2  A    between atoms: C2_2  and  N7_34 
REMARK       I    between atoms: C3_3  and  N1_5 
REMARK    3  A    between atoms: N1_5  and  C4_7 
REMARK    4  A    between atoms: C4_7  and  C6_9 
REMARK       I    between atoms: C6_9  and  N2_11 
REMARK    5  A    between atoms: N2_11  and  C7_13 
REMARK    6  A    between atoms: C9_15  and  C10_16 
REMARK    7  A    between atoms: C16_27  and  N6_28 
REMARK    8  A    between atoms: N6_28  and  C17_30 
ROOT
HETATM    1  C7  UNL     1      13.798 -13.095  19.218  1.00  0.00     0.082 A 
HETATM    2  C8  UNL     1      13.230 -12.670  20.418  1.00  0.00     0.065 A 
HETATM    3  C9  UNL     1      13.011 -11.343  20.703  1.00  0.00     0.062 A 
HETATM    4  N4  UNL     1      13.387 -10.479  19.736  1.00  0.00    -0.298 N 
ATOM      5  H4  UNL     1      13.247  -9.481  19.896  1.00  0.00     0.187 HD
HETATM    6  N5  UNL     1      13.933 -10.867  18.580  1.00  0.00    -0.283 N 
ATOM      7  H5  UNL     1      14.193 -10.157  17.896  1.00  0.00     0.188 HD
HETATM    8  C16 UNL     1      14.151 -12.155  18.288  1.00  0.00     0.143 A 
ENDROOT
BRANCH   1   9
HETATM    9  N2  UNL     1      13.990 -14.328  18.974  1.00  0.00    -0.322 N 
HETATM   10  C6  UNL     1      14.176 -15.331  19.965  1.00  0.00     0.244 C 
HETATM   11  O2  UNL     1      13.260 -15.658  20.766  1.00  0.00    -0.271 OA
ATOM     12  H2  UNL     1      14.012 -14.619  17.997  1.00  0.00     0.169 HD
BRANCH  10  13
HETATM   13  C4  UNL     1      15.520 -15.974  20.003  1.00  0.00     0.173 C 
HETATM   14  C5  UNL     1      15.876 -16.312  18.563  1.00  0.00     0.042 C 
BRANCH  13  15
HETATM   15  N1  UNL     1      16.526 -15.056  20.511  1.00  0.00    -0.343 N 
HETATM   16  C3  UNL     1      17.053 -15.277  21.801  1.00  0.00     0.268 C 
HETATM   17  O1  UNL     1      16.615 -16.269  22.442  1.00  0.00    -0.266 OA
ATOM     18  H1  UNL     1      16.843 -14.269  19.946  1.00  0.00     0.163 HD
BRANCH  16  19
HETATM   19  C2  UNL     1      18.062 -14.366  22.322  1.00  0.00     0.097 C 
HETATM   20  C1  UNL     1      18.259 -14.208  23.599  1.00  0.00     0.049 C 
BRANCH  19  21
HETATM   21  N7  UNL     1      18.833 -13.603  21.409  1.00  0.00    -0.329 N 
HETATM   22  C21 UNL     1      18.568 -12.267  21.324  1.00  0.00     0.097 A 
HETATM   23  C22 UNL     1      19.282 -11.437  20.493  1.00  0.00     0.018 A 
HETATM   24  C23 UNL     1      20.290 -11.960  19.723  1.00  0.00     0.003 A 
HETATM   25  C24 UNL     1      20.579 -13.303  19.789  1.00  0.00     0.018 A 
HETATM   26  C25 UNL     1      19.815 -14.082  20.652  1.00  0.00     0.097 A 
ENDBRANCH  19  21
ENDBRANCH  16  19
ENDBRANCH  13  15
ENDBRANCH  10  13
ENDBRANCH   1   9
BRANCH   8  27
HETATM   27  N6  UNL     1      14.665 -12.555  17.205  1.00  0.00    -0.365 N 
ATOM     28  H6  UNL     1      14.017 -13.024  16.572  1.00  0.00     0.162 HD
BRANCH  27  29
HETATM   29  C17 UNL     1      16.003 -12.457  16.727  1.00  0.00     0.021 C 
HETATM   30  C18 UNL     1      17.023 -12.639  17.831  1.00  0.00     0.037 C 
HETATM   31  C19 UNL     1      16.169 -13.596  15.701  1.00  0.00     0.037 C 
HETATM   32  C20 UNL     1      16.305 -11.178  16.012  1.00  0.00     0.037 C 
ENDBRANCH  27  29
ENDBRANCH   8  27
BRANCH   3  33
HETATM   33  C10 UNL     1      12.408 -10.891  21.980  1.00  0.00     0.008 A 
HETATM   34  C11 UNL     1      11.604 -11.736  22.708  1.00  0.00     0.016 A 
HETATM   35  C12 UNL     1      11.050 -11.305  23.893  1.00  0.00     0.018 A 
HETATM   36  C13 UNL     1      11.320 -10.028  24.314  1.00  0.00     0.090 A 
HETATM   37  N3  UNL     1      12.105  -9.208  23.597  1.00  0.00    -0.370 N 
HETATM   38  C14 UNL     1      12.377  -7.854  24.068  1.00  0.00     0.154 C 
HETATM   39  C15 UNL     1      12.653  -9.632  22.429  1.00  0.00     0.103 A 
ENDBRANCH   3  33
TORSDOF 8
ENDMDL
MODEL 2
REMARK VINA RESULT: -8.642335838      2.628      7.518
REMARK  8 active torsions:
REMARK  status: ('A' for Active; 'I' for Inactive)
REMARK    1  A    between atoms: C2_2  and  C3_3 
REMARK    2  A    between atoms: C2_2  and  N7_34 
REMARK       I    between atoms: C3_3  and  N1_5 
REMARK    3  A    between atoms: N1_5  and  C4_7 
REMARK    4  A    between atoms: C4_7  and  C6_9 
REMARK       I    between atoms: C6_9  and  N2_11 
REMARK    5  A    between atoms: N2_11  and  C7_13 
REMARK    6  A    between atoms: C9_15  and  C10_16 
REMARK    7  A    between atoms: C16_27  and  N6_28 
REMARK    8  A    between atoms: N6_28  and  C17_30 
ROOT
HETATM    1  C7  UNL     1      18.438 -13.851  20.803  1.00  0.00     0.082 A 
HETATM    2  C8  UNL     1      19.327 -13.471  21.807  1.00  0.00     0.065 A 
HETATM    3  C9  UNL     1      19.518 -14.218  22.946  1.00  0.00     0.062 A 
HETATM    4  N4  UNL     1      18.782 -15.347  23.022  1.00  0.00    -0.298 N 
ATOM      5  H4  UNL     1      18.885 -15.939  23.847  1.00  0.00     0.187 HD
HETATM    6  N5  UNL     1      17.925 -15.727  22.069  1.00  0.00    -0.283 N 
ATOM      7  H5  UNL     1      17.402 -16.593  22.196  1.00  0.00     0.188 HD
HETATM    8  C16 UNL     1      17.730 -15.010  20.956  1.00  0.00     0.143 A 
ENDROOT
BRANCH   1   9
HETATM    9  N2  UNL     1      18.278 -13.145  19.757  1.00  0.00    -0.322 N 
HETATM   10  C6  UNL     1      17.722 -11.836  19.739  1.00  0.00     0.244 C 
HETATM   11  O2  UNL     1      18.301 -10.856  20.280  1.00  0.00    -0.271 OA
ATOM     12  H2  UNL     1      18.569 -13.548  18.866  1.00  0.00     0.169 HD
BRANCH  10  13
HETATM   13  C4  UNL     1      16.413 -11.689  19.043  1.00  0.00     0.173 C 
HETATM   14  C5  UNL     1      16.477 -12.583  17.813  1.00  0.00     0.042 C 
BRANCH  13  15
HETATM   15  N1  UNL     1      15.320 -12.154  19.880  1.00  0.00    -0.343 N 
HETATM   16  C3  UNL     1      14.020 -11.667  19.626  1.00  0.00     0.268 C 
HETATM   17  O1  UNL     1      13.884 -10.848  18.678  1.00  0.00    -0.266 OA
ATOM     18  H1  UNL     1      15.489 -12.819  20.634  1.00  0.00     0.163 HD
BRANCH  16  19
HETATM   19  C2  UNL     1      12.914 -12.125  20.456  1.00  0.00     0.097 C 
HETATM   20  C1  UNL     1      12.271 -13.228  20.205  1.00  0.00     0.049 C 
BRANCH  19  21
HETATM   21  N7  UNL     1      12.506 -11.326  21.553  1.00  0.00    -0.329 N 
HETATM   22  C21 UNL     1      11.645 -11.885  22.453  1.00  0.00     0.097 A 
HETATM   23  C22 UNL     1      11.215 -11.203  23.567  1.00  0.00     0.018 A 
HETATM   24  C23 UNL     1      11.659  -9.924  23.786  1.00  0.00     0.003 A 
HETATM   25  C24 UNL     1      12.527  -9.336  22.895  1.00  0.00     0.018 A 
HETATM   26  C25 UNL     1      12.919 -10.085  21.791  1.00  0.00     0.097 A 
ENDBRANCH  19  21
ENDBRANCH  16  19
ENDBRANCH  13  15
ENDBRANCH  10  13
ENDBRANCH   1   9
BRANCH   8  27
HETATM   27  N6  UNL     1      16.928 -15.342  20.037  1.00  0.00    -0.365 N 
ATOM     28  H6  UNL     1      17.230 -15.093  19.095  1.00  0.00     0.162 HD
BRANCH  27  29
HETATM   29  C17 UNL     1      15.670 -16.007  20.105  1.00  0.00     0.021 C 
HETATM   30  C18 UNL     1      14.842 -15.551  21.289  1.00  0.00     0.037 C 
HETATM   31  C19 UNL     1      14.927 -15.638  18.805  1.00  0.00     0.037 C 
HETATM   32  C20 UNL     1      15.768 -17.499  20.144  1.00  0.00     0.037 C 
ENDBRANCH  27  29
ENDBRANCH   8  27
BRANCH   3  33
HETATM   33  C10 UNL     1      20.463 -13.813  24.015  1.00  0.00     0.008 A 
HETATM   34  C11 UNL     1      19.996 -13.448  25.255  1.00  0.00     0.016 A 
HETATM   35  C12 UNL     1      20.882 -13.074  26.241  1.00  0.00     0.018 A 
HETATM   36  C13 UNL     1      22.223 -13.076  25.948  1.00  0.00     0.090 A 
HETATM   37  N3  UNL     1      22.671 -13.433  24.734  1.00  0.00    -0.370 N 
HETATM   38  C14 UNL     1      24.102 -13.427  24.449  1.00  0.00     0.154 C 
HETATM   39  C15 UNL     1      21.798 -13.803  23.762  1.00  0.00     0.103 A 
ENDBRANCH   3  33
TORSDOF 8
ENDMDL
MODEL 3
REMARK VINA RESULT: -8.556720362      1.324      1.956
REMARK  8 active torsions:
REMARK  status: ('A' for Active; 'I' for Inactive)
REMARK    1  A    between atoms: C2_2  and  C3_3 
REMARK    2  A    between atoms: C2_2  and  N7_34 
REMARK       I    between atoms: C3_3  and  N1_5 
REMARK    3  A    between atoms: N1_5  and  C4_7 
REMARK    4  A    between atoms: C4_7  and  C6_9 
REMARK       I    between atoms: C6_9  and  N2_11 
REMARK    5  A    between atoms: N2_11  and  C7_13 
REMARK    6  A    between atoms: C9_15  and  C10_16 
REMARK    7  A    between atoms: C16_27  and  N6_28 
REMARK    8  A    between atoms: N6_28  and  C17_30 
ROOT
HETATM    1  C7  UNL     1      14.246 -12.863  19.281  1.00  0.00     0.082 A 
HETATM    2  C8  UNL     1      13.656 -12.475  20.482  1.00  0.00     0.065 A 
HETATM    3  C9  UNL     1      13.101 -11.230  20.665  1.00  0.00     0.062 A 
HETATM    4  N4  UNL     1      13.169 -10.409  19.595  1.00  0.00    -0.298 N 
ATOM      5  H4  UNL     1      12.772  -9.473  19.676  1.00  0.00     0.187 HD
HETATM    6  N5  UNL     1      13.731 -10.764  18.435  1.00  0.00    -0.283 N 
ATOM      7  H5  UNL     1      13.747 -10.090  17.670  1.00  0.00     0.188 HD
HETATM    8  C16 UNL     1      14.274 -11.973  18.244  1.00  0.00     0.143 A 
ENDROOT
BRANCH   1   9
HETATM    9  N2  UNL     1      14.752 -14.021  19.133  1.00  0.00    -0.322 N 
HETATM   10  C6  UNL     1      14.638 -15.081  20.074  1.00  0.00     0.244 C 
HETATM   11  O2  UNL     1      13.533 -15.626  20.338  1.00  0.00    -0.271 OA
ATOM     12  H2  UNL     1      15.277 -14.202  18.278  1.00  0.00     0.169 HD
BRANCH  10  13
HETATM   13  C4  UNL     1      15.903 -15.511  20.733  1.00  0.00     0.173 C 
HETATM   14  C5  UNL     1      16.542 -16.538  19.809  1.00  0.00     0.042 C 
BRANCH  13  15
HETATM   15  N1  UNL     1      16.826 -14.398  20.874  1.00  0.00    -0.343 N 
HETATM   16  C3  UNL     1      17.694 -14.375  21.986  1.00  0.00     0.268 C 
HETATM   17  O1  UNL     1      17.615 -15.334  22.801  1.00  0.00    -0.266 OA
ATOM     18  H1  UNL     1      16.847 -13.649  20.182  1.00  0.00     0.163 HD
BRANCH  16  19
HETATM   19  C2  UNL     1      18.624 -13.266  22.140  1.00  0.00     0.097 C 
HETATM   20  C1  UNL     1      18.523 -12.174  21.438  1.00  0.00     0.049 C 
BRANCH  19  21
HETATM   21  N7  UNL     1      19.694 -13.392  23.062  1.00  0.00    -0.329 N 
HETATM   22  C21 UNL     1      20.939 -13.622  22.553  1.00  0.00     0.097 A 
HETATM   23  C22 UNL     1      22.046 -13.728  23.362  1.00  0.00     0.018 A 
HETATM   24  C23 UNL     1      21.901 -13.601  24.721  1.00  0.00     0.003 A 
HETATM   25  C24 UNL     1      20.657 -13.369  25.260  1.00  0.00     0.018 A 
HETATM   26  C25 UNL     1      19.584 -13.273  24.381  1.00  0.00     0.097 A 
ENDBRANCH  19  21
ENDBRANCH  16  19
ENDBRANCH  13  15
ENDBRANCH  10  13
ENDBRANCH   1   9
BRANCH   8  27
HETATM   27  N6  UNL     1      14.812 -12.339  17.160  1.00  0.00    -0.365 N 
ATOM     28  H6  UNL     1      14.294 -13.049  16.644  1.00  0.00     0.162 HD
BRANCH  27  29
HETATM   29  C17 UNL     1      16.026 -11.919  16.545  1.00  0.00     0.021 C 
HETATM   30  C18 UNL     1      17.105 -11.601  17.559  1.00  0.00     0.037 C 
HETATM   31  C19 UNL     1      16.491 -13.105  15.676  1.00  0.00     0.037 C 
HETATM   32  C20 UNL     1      15.875 -10.742  15.633  1.00  0.00     0.037 C 
ENDBRANCH  27  29
ENDBRANCH   8  27
BRANCH   3  33
HETATM   33  C10 UNL     1      12.474 -10.816  21.943  1.00  0.00     0.008 A 
HETATM   34  C11 UNL     1      11.668 -11.687  22.637  1.00  0.00     0.016 A 
HETATM   35  C12 UNL     1      11.092 -11.291  23.824  1.00  0.00     0.018 A 
HETATM   36  C13 UNL     1      11.343 -10.022  24.281  1.00  0.00     0.090 A 
HETATM   37  N3  UNL     1      12.130  -9.177  23.597  1.00  0.00    -0.370 N 
HETATM   38  C14 UNL     1      12.381  -7.833  24.105  1.00  0.00     0.154 C 
HETATM   39  C15 UNL     1      12.699  -9.567  22.427  1.00  0.00     0.103 A 
ENDBRANCH   3  33
TORSDOF 8
ENDMDL
MODEL 4
REMARK VINA RESULT: -8.492672333      1.816      7.628
REMARK  8 active torsions:
REMARK  status: ('A' for Active; 'I' for Inactive)
REMARK    1  A    between atoms: C2_2  and  C3_3 
REMARK    2  A    between atoms: C2_2  and  N7_34 
REMARK       I    between atoms: C3_3  and  N1_5 
REMARK    3  A    between atoms: N1_5  and  C4_7 
REMARK    4  A    between atoms: C4_7  and  C6_9 
REMARK       I    between atoms: C6_9  and  N2_11 
REMARK    5  A    between atoms: N2_11  and  C7_13 
REMARK    6  A    between atoms: C9_15  and  C10_16 
REMARK    7  A    between atoms: C16_27  and  N6_28 
REMARK    8  A    between atoms: N6_28  and  C17_30 
ROOT
HETATM    1  C7  UNL     1      17.422 -14.041  21.996  1.00  0.00     0.082 A 
HETATM    2  C8  UNL     1      17.722 -13.598  20.709  1.00  0.00     0.065 A 
HETATM    3  C9  UNL     1      18.898 -12.955  20.403  1.00  0.00     0.062 A 
HETATM    4  N4  UNL     1      19.744 -12.782  21.441  1.00  0.00    -0.298 N 
ATOM      5  H4  UNL     1      20.632 -12.310  21.270  1.00  0.00     0.187 HD
HETATM    6  N5  UNL     1      19.474 -13.200  22.682  1.00  0.00    -0.283 N 
ATOM      7  H5  UNL     1      20.161 -13.034  23.417  1.00  0.00     0.188 HD
HETATM    8  C16 UNL     1      18.334 -13.828  22.993  1.00  0.00     0.143 A 
ENDROOT
BRANCH   1   9
HETATM    9  N2  UNL     1      16.329 -14.635  22.256  1.00  0.00    -0.322 N 
HETATM   10  C6  UNL     1      15.657 -15.522  21.370  1.00  0.00     0.244 C 
HETATM   11  O2  UNL     1      16.150 -16.631  21.033  1.00  0.00    -0.271 OA
ATOM     12  H2  UNL     1      15.902 -14.463  23.167  1.00  0.00     0.169 HD
BRANCH  10  13
HETATM   13  C4  UNL     1      14.334 -15.062  20.861  1.00  0.00     0.173 C 
HETATM   14  C5  UNL     1      13.281 -15.781  21.691  1.00  0.00     0.042 C 
BRANCH  13  15
HETATM   15  N1  UNL     1      14.164 -13.633  21.060  1.00  0.00    -0.343 N 
HETATM   16  C3  UNL     1      13.186 -12.957  20.300  1.00  0.00     0.268 C 
HETATM   17  O1  UNL     1      12.510 -13.642  19.486  1.00  0.00    -0.266 OA
ATOM     18  H1  UNL     1      14.739 -13.129  21.735  1.00  0.00     0.163 HD
BRANCH  16  19
HETATM   19  C2  UNL     1      13.003 -11.524  20.489  1.00  0.00     0.097 C 
HETATM   20  C1  UNL     1      13.338 -10.658  19.578  1.00  0.00     0.049 C 
BRANCH  19  21
HETATM   21  N7  UNL     1      12.472 -11.058  21.718  1.00  0.00    -0.329 N 
HETATM   22  C21 UNL     1      12.767  -9.777  22.085  1.00  0.00     0.097 A 
HETATM   23  C22 UNL     1      12.274  -9.222  23.242  1.00  0.00     0.018 A 
HETATM   24  C23 UNL     1      11.463  -9.972  24.056  1.00  0.00     0.003 A 
HETATM   25  C24 UNL     1      11.150 -11.265  23.710  1.00  0.00     0.018 A 
HETATM   26  C25 UNL     1      11.684 -11.761  22.526  1.00  0.00     0.097 A 
ENDBRANCH  19  21
ENDBRANCH  16  19
ENDBRANCH  13  15
ENDBRANCH  10  13
ENDBRANCH   1   9
BRANCH   8  27
HETATM   27  N6  UNL     1      18.048 -14.235  24.155  1.00  0.00    -0.365 N 
ATOM     28  H6  UNL     1      17.156 -13.901  24.518  1.00  0.00     0.162 HD
BRANCH  27  29
HETATM   29  C17 UNL     1      18.774 -15.084  25.040  1.00  0.00     0.021 C 
HETATM   30  C18 UNL     1      19.775 -14.318  25.880  1.00  0.00     0.037 C 
HETATM   31  C19 UNL     1      17.721 -15.718  25.972  1.00  0.00     0.037 C 
HETATM   32  C20 UNL     1      19.490 -16.208  24.360  1.00  0.00     0.037 C 
ENDBRANCH  27  29
ENDBRANCH   8  27
BRANCH   3  33
HETATM   33  C10 UNL     1      19.216 -12.483  19.034  1.00  0.00     0.008 A 
HETATM   34  C11 UNL     1      20.520 -12.270  18.656  1.00  0.00     0.016 A 
HETATM   35  C12 UNL     1      20.803 -11.831  17.382  1.00  0.00     0.018 A 
HETATM   36  C13 UNL     1      19.759 -11.616  16.518  1.00  0.00     0.090 A 
HETATM   37  N3  UNL     1      18.488 -11.825  16.895  1.00  0.00    -0.370 N 
HETATM   38  C14 UNL     1      17.395 -11.589  15.957  1.00  0.00     0.154 C 
HETATM   39  C15 UNL     1      18.208 -12.259  18.151  1.00  0.00     0.103 A 
ENDBRANCH   3  33
TORSDOF 8
ENDMDL
MODEL 5
REMARK VINA RESULT: -8.366037305      1.318      1.957
REMARK  8 active torsions:
REMARK  status: ('A' for Active; 'I' for Inactive)
REMARK    1  A    between atoms: C2_2  and  C3_3 
REMARK    2  A    between atoms: C2_2  and  N7_34 
REMARK       I    between atoms: C3_3  and  N1_5 
REMARK    3  A    between atoms: N1_5  and  C4_7 
REMARK    4  A    between atoms: C4_7  and  C6_9 
REMARK       I    between atoms: C6_9  and  N2_11 
REMARK    5  A    between atoms: N2_11  and  C7_13 
REMARK    6  A    between atoms: C9_15  and  C10_16 
REMARK    7  A    between atoms: C16_27  and  N6_28 
REMARK    8  A    between atoms: N6_28  and  C17_30 
ROOT
HETATM    1  C7  UNL     1      13.540 -13.103  18.936  1.00  0.00     0.082 A 
HETATM    2  C8  UNL     1      12.967 -12.710  20.145  1.00  0.00     0.065 A 
HETATM    3  C9  UNL     1      13.022 -11.414  20.603  1.00  0.00     0.062 A 
HETATM    4  N4  UNL     1      13.672 -10.548  19.797  1.00  0.00    -0.298 N 
ATOM      5  H4  UNL     1      13.742  -9.573  20.088  1.00  0.00     0.187 HD
HETATM    6  N5  UNL     1      14.227 -10.906  18.634  1.00  0.00    -0.283 N 
ATOM      7  H5  UNL     1      14.703 -10.197  18.078  1.00  0.00     0.188 HD
HETATM    8  C16 UNL     1      14.180 -12.163  18.176  1.00  0.00     0.143 A 
ENDROOT
BRANCH   1   9
HETATM    9  N2  UNL     1      13.475 -14.306  18.531  1.00  0.00    -0.322 N 
HETATM   10  C6  UNL     1      12.467 -15.236  18.908  1.00  0.00     0.244 C 
HETATM   11  O2  UNL     1      11.261 -15.087  18.576  1.00  0.00    -0.271 OA
ATOM     12  H2  UNL     1      14.199 -14.628  17.889  1.00  0.00     0.169 HD
BRANCH  10  13
HETATM   13  C4  UNL     1      12.919 -16.399  19.723  1.00  0.00     0.173 C 
HETATM   14  C5  UNL     1      12.758 -17.629  18.842  1.00  0.00     0.042 C 
BRANCH  13  15
HETATM   15  N1  UNL     1      14.325 -16.279  20.073  1.00  0.00    -0.343 N 
HETATM   16  C3  UNL     1      14.668 -16.050  21.422  1.00  0.00     0.268 C 
HETATM   17  O1  UNL     1      13.723 -15.963  22.252  1.00  0.00    -0.266 OA
ATOM     18  H1  UNL     1      15.047 -16.359  19.358  1.00  0.00     0.163 HD
BRANCH  16  19
HETATM   19  C2  UNL     1      16.072 -15.928  21.788  1.00  0.00     0.097 C 
HETATM   20  C1  UNL     1      16.747 -16.924  22.285  1.00  0.00     0.049 C 
BRANCH  19  21
HETATM   21  N7  UNL     1      16.715 -14.676  21.627  1.00  0.00    -0.329 N 
HETATM   22  C21 UNL     1      18.058 -14.685  21.382  1.00  0.00     0.097 A 
HETATM   23  C22 UNL     1      18.767 -13.524  21.179  1.00  0.00     0.018 A 
HETATM   24  C23 UNL     1      18.112 -12.319  21.224  1.00  0.00     0.003 A 
HETATM   25  C24 UNL     1      16.759 -12.281  21.469  1.00  0.00     0.018 A 
HETATM   26  C25 UNL     1      16.108 -13.494  21.664  1.00  0.00     0.097 A 
ENDBRANCH  19  21
ENDBRANCH  16  19
ENDBRANCH  13  15
ENDBRANCH  10  13
ENDBRANCH   1   9
BRANCH   8  27
HETATM   27  N6  UNL     1      14.694 -12.534  17.083  1.00  0.00    -0.365 N 
ATOM     28  H6  UNL     1      14.025 -12.846  16.380  1.00  0.00     0.162 HD
BRANCH  27  29
HETATM   29  C17 UNL     1      16.058 -12.585  16.675  1.00  0.00     0.021 C 
HETATM   30  C18 UNL     1      16.982 -12.982  17.807  1.00  0.00     0.037 C 
HETATM   31  C19 UNL     1      16.128 -13.660  15.572  1.00  0.00     0.037 C 
HETATM   32  C20 UNL     1      16.566 -11.311  16.076  1.00  0.00     0.037 C 
ENDBRANCH  27  29
ENDBRANCH   8  27
BRANCH   3  33
HETATM   33  C10 UNL     1      12.414 -10.997  21.889  1.00  0.00     0.008 A 
HETATM   34  C11 UNL     1      11.607 -11.861  22.591  1.00  0.00     0.016 A 
HETATM   35  C12 UNL     1      11.048 -11.462  23.785  1.00  0.00     0.018 A 
HETATM   36  C13 UNL     1      11.317 -10.197  24.242  1.00  0.00     0.090 A 
HETATM   37  N3  UNL     1      12.105  -9.359  23.550  1.00  0.00    -0.370 N 
HETATM   38  C14 UNL     1      12.376  -8.018  24.058  1.00  0.00     0.154 C 
HETATM   39  C15 UNL     1      12.658  -9.751  22.373  1.00  0.00     0.103 A 
ENDBRANCH   3  33
TORSDOF 8
ENDMDL
