MODEL 1
REMARK VINA RESULT: -7.475161872      0.000      0.000
REMARK  7 active torsions:
REMARK  status: ('A' for Active; 'I' for Inactive)
REMARK       I    between atoms: C2_2  and  N1_4 
REMARK    1  A    between atoms: C3_6  and  C4_7 
REMARK    2  A    between atoms: C6_11  and  C7_12 
REMARK    3  A    between atoms: C6_11  and  N4_18 
REMARK    4  A    between atoms: C8_13  and  N3_14 
REMARK    5  A    between atoms: C17_26  and  N6_27 
REMARK    6  A    between atoms: N6_27  and  N7_28 
REMARK    7  A    between atoms: C18_31  and  O2_33 
ROOT
HETATM    1  C4  UNL     1      18.707 -14.430  22.791  1.00  0.00     0.124 C 
HETATM    2  N2  UNL     1      17.366 -13.831  22.703  1.00  0.00    -0.354 N 
ATOM      3  H2  UNL     1      17.002 -13.086  23.297  1.00  0.00     0.162 HD
HETATM    4  C5  UNL     1      16.677 -14.468  21.654  1.00  0.00     0.134 C 
HETATM    5  C6  UNL     1      15.786 -14.031  20.778  1.00  0.00     0.179 C 
HETATM    6  N5  UNL     1      17.192 -15.824  21.644  1.00  0.00    -0.356 N 
ATOM      7  H5  UNL     1      16.834 -16.602  21.090  1.00  0.00     0.162 HD
HETATM    8  C15 UNL     1      18.308 -15.869  22.563  1.00  0.00     0.120 C 
HETATM    9  C16 UNL     1      19.397 -16.679  21.928  1.00  0.00     0.050 C 
HETATM   10  C17 UNL     1      17.831 -16.420  23.839  1.00  0.00     0.155 C 
HETATM   11  C18 UNL     1      18.729 -16.413  25.009  1.00  0.00     0.138 C 
HETATM   12  C19 UNL     1      19.735 -17.543  24.961  1.00  0.00     0.059 C 
HETATM   13  C20 UNL     1      19.377 -15.093  25.093  1.00  0.00    -0.008 A 
HETATM   14  C21 UNL     1      20.035 -14.765  26.289  1.00  0.00     0.011 A 
HETATM   15  C22 UNL     1      20.672 -13.560  26.480  1.00  0.00     0.001 A 
HETATM   16  C23 UNL     1      20.655 -12.648  25.446  1.00  0.00     0.001 A 
HETATM   17  C24 UNL     1      20.014 -12.952  24.266  1.00  0.00     0.011 A 
HETATM   18  C25 UNL     1      19.361 -14.193  24.080  1.00  0.00    -0.012 A 
ENDROOT
BRANCH   5  19
HETATM   19  C7  UNL     1      15.291 -15.057  19.825  1.00  0.00     0.066 C 
HETATM   20  C8  UNL     1      14.303 -15.842  19.912  1.00  0.00     0.203 C 
BRANCH  20  21
HETATM   21  N3  UNL     1      14.055 -16.752  18.813  1.00  0.00    -0.059 N 
HETATM   22  C9  UNL     1      13.146 -17.801  19.174  1.00  0.00     0.277 C 
HETATM   23  C10 UNL     1      13.469 -16.026  17.695  1.00  0.00     0.277 C 
HETATM   24  C11 UNL     1      15.301 -17.323  18.351  1.00  0.00     0.277 C 
ENDBRANCH  20  21
ENDBRANCH   5  19
BRANCH   5  25
HETATM   25  N4  UNL     1      15.290 -12.725  20.635  1.00  0.00    -0.045 N 
HETATM   26  C12 UNL     1      14.156 -12.478  21.545  1.00  0.00     0.278 C 
HETATM   27  C13 UNL     1      16.221 -11.646  20.960  1.00  0.00     0.278 C 
HETATM   28  C14 UNL     1      14.765 -12.471  19.280  1.00  0.00     0.278 C 
ENDBRANCH   5  25
BRANCH   1  29
HETATM   29  C3  UNL     1      19.581 -13.924  21.705  1.00  0.00     0.103 C 
HETATM   30  N1  UNL     1      19.041 -13.464  20.631  1.00  0.00    -0.338 N 
HETATM   31  C2  UNL     1      19.732 -12.955  19.527  1.00  0.00     0.217 C 
ATOM     32  H1  UNL     1      18.022 -13.472  20.581  1.00  0.00     0.167 HD
HETATM   33  C1  UNL     1      19.023 -12.199  18.472  1.00  0.00     0.117 C 
HETATM   34  O1  UNL     1      20.966 -13.138  19.423  1.00  0.00    -0.274 OA
ENDBRANCH   1  29
BRANCH  10  35
HETATM   35  N6  UNL     1      16.689 -16.890  23.945  1.00  0.00    -0.336 NA
BRANCH  35  36
HETATM   36  N7  UNL     1      15.552 -17.373  24.148  1.00  0.00    -0.280 N 
ATOM     37  H72 UNL     1      16.157 -18.175  24.329  1.00  0.00     0.191 HD
ATOM     38  H71 UNL     1      14.595 -17.694  24.295  1.00  0.00     0.191 HD
ENDBRANCH  35  36
ENDBRANCH  10  35
BRANCH  11  39
HETATM   39  O2  UNL     1      17.992 -16.606  26.205  1.00  0.00    -0.378 OA
ATOM     40  H2  UNL     1      18.490 -16.308  26.957  1.00  0.00     0.211 HD
ENDBRANCH  11  39
TORSDOF 7
ENDMDL
MODEL 2
REMARK VINA RESULT: -7.459976040      2.994      6.901
REMARK  7 active torsions:
REMARK  status: ('A' for Active; 'I' for Inactive)
REMARK       I    between atoms: C2_2  and  N1_4 
REMARK    1  A    between atoms: C3_6  and  C4_7 
REMARK    2  A    between atoms: C6_11  and  C7_12 
REMARK    3  A    between atoms: C6_11  and  N4_18 
REMARK    4  A    between atoms: C8_13  and  N3_14 
REMARK    5  A    between atoms: C17_26  and  N6_27 
REMARK    6  A    between atoms: N6_27  and  N7_28 
REMARK    7  A    between atoms: C18_31  and  O2_33 
ROOT
HETATM    1  C4  UNL     1      20.173 -14.645  22.352  1.00  0.00     0.124 C 
HETATM    2  N2  UNL     1      20.655 -16.007  22.080  1.00  0.00    -0.354 N 
ATOM      3  H2  UNL     1      21.122 -16.320  21.229  1.00  0.00     0.162 HD
HETATM    4  C5  UNL     1      20.358 -16.801  23.203  1.00  0.00     0.134 C 
HETATM    5  C6  UNL     1      20.992 -17.816  23.771  1.00  0.00     0.179 C 
HETATM    6  N5  UNL     1      19.133 -16.241  23.740  1.00  0.00    -0.356 N 
ATOM      7  H5  UNL     1      18.562 -16.637  24.486  1.00  0.00     0.162 HD
HETATM    8  C15 UNL     1      18.870 -15.013  23.019  1.00  0.00     0.120 C 
HETATM    9  C16 UNL     1      18.414 -13.986  24.010  1.00  0.00     0.050 C 
HETATM   10  C17 UNL     1      17.881 -15.299  21.970  1.00  0.00     0.155 C 
HETATM   11  C18 UNL     1      17.564 -14.258  20.975  1.00  0.00     0.138 C 
HETATM   12  C19 UNL     1      16.602 -13.223  21.521  1.00  0.00     0.059 C 
HETATM   13  C20 UNL     1      18.825 -13.656  20.510  1.00  0.00    -0.008 A 
HETATM   14  C21 UNL     1      18.779 -12.861  19.353  1.00  0.00     0.011 A 
HETATM   15  C22 UNL     1      19.896 -12.251  18.827  1.00  0.00     0.001 A 
HETATM   16  C23 UNL     1      21.100 -12.438  19.472  1.00  0.00     0.001 A 
HETATM   17  C24 UNL     1      21.164 -13.215  20.608  1.00  0.00     0.011 A 
HETATM   18  C25 UNL     1      20.010 -13.838  21.140  1.00  0.00    -0.012 A 
ENDROOT
BRANCH   5  19
HETATM   19  C7  UNL     1      20.314 -18.390  24.961  1.00  0.00     0.066 C 
HETATM   20  C8  UNL     1      20.406 -18.074  26.183  1.00  0.00     0.203 C 
BRANCH  20  21
HETATM   21  N3  UNL     1      19.615 -18.819  27.141  1.00  0.00    -0.059 N 
HETATM   22  C9  UNL     1      20.416 -19.350  28.206  1.00  0.00     0.277 C 
HETATM   23  C10 UNL     1      18.613 -17.946  27.737  1.00  0.00     0.277 C 
HETATM   24  C11 UNL     1      18.912 -19.894  26.476  1.00  0.00     0.277 C 
ENDBRANCH  20  21
ENDBRANCH   5  19
BRANCH   5  25
HETATM   25  N4  UNL     1      22.224 -18.376  23.398  1.00  0.00    -0.045 N 
HETATM   26  C12 UNL     1      22.392 -19.730  23.959  1.00  0.00     0.278 C 
HETATM   27  C13 UNL     1      22.429 -18.580  21.965  1.00  0.00     0.278 C 
HETATM   28  C14 UNL     1      23.370 -17.599  23.908  1.00  0.00     0.278 C 
ENDBRANCH   5  25
BRANCH   1  29
HETATM   29  C3  UNL     1      21.087 -13.939  23.283  1.00  0.00     0.103 C 
HETATM   30  N1  UNL     1      22.324 -14.289  23.328  1.00  0.00    -0.338 N 
HETATM   31  C2  UNL     1      23.301 -13.719  24.151  1.00  0.00     0.217 C 
ATOM     32  H1  UNL     1      22.618 -15.046  22.710  1.00  0.00     0.167 HD
HETATM   33  C1  UNL     1      24.737 -13.995  23.928  1.00  0.00     0.117 C 
HETATM   34  O1  UNL     1      22.964 -12.965  25.092  1.00  0.00    -0.274 OA
ENDBRANCH   1  29
BRANCH  10  35
HETATM   35  N6  UNL     1      17.312 -16.398  21.911  1.00  0.00    -0.336 NA
BRANCH  35  36
HETATM   36  N7  UNL     1      16.689 -17.476  21.771  1.00  0.00    -0.280 N 
ATOM     37  H72 UNL     1      17.417 -17.559  21.061  1.00  0.00     0.191 HD
ATOM     38  H71 UNL     1      16.134 -18.329  21.717  1.00  0.00     0.191 HD
ENDBRANCH  35  36
ENDBRANCH  10  35
BRANCH  11  39
HETATM   39  O2  UNL     1      16.917 -14.825  19.848  1.00  0.00    -0.378 OA
ATOM     40  H2  UNL     1      16.827 -14.182  19.155  1.00  0.00     0.211 HD
ENDBRANCH  11  39
TORSDOF 7
ENDMDL
MODEL 3
REMARK VINA RESULT: -7.418721395      0.272      1.024
REMARK  7 active torsions:
REMARK  status: ('A' for Active; 'I' for Inactive)
REMARK       I    between atoms: C2_2  and  N1_4 
REMARK    1  A    between atoms: C3_6  and  C4_7 
REMARK    2  A    between atoms: C6_11  and  C7_12 
REMARK    3  A    between atoms: C6_11  and  N4_18 
REMARK    4  A    between atoms: C8_13  and  N3_14 
REMARK    5  A    between atoms: C17_26  and  N6_27 
REMARK    6  A    between atoms: N6_27  and  N7_28 
REMARK    7  A    between atoms: C18_31  and  O2_33 
ROOT
HETATM    1  C4  UNL     1      18.845 -14.239  22.817  1.00  0.00     0.124 C 
HETATM    2  N2  UNL     1      17.510 -13.625  22.735  1.00  0.00    -0.354 N 
ATOM      3  H2  UNL     1      17.148 -12.892  23.345  1.00  0.00     0.162 HD
HETATM    4  C5  UNL     1      16.823 -14.229  21.666  1.00  0.00     0.134 C 
HETATM    5  C6  UNL     1      15.942 -13.762  20.795  1.00  0.00     0.179 C 
HETATM    6  N5  UNL     1      17.326 -15.589  21.624  1.00  0.00    -0.356 N 
ATOM      7  H5  UNL     1      16.964 -16.349  21.048  1.00  0.00     0.162 HD
HETATM    8  C15 UNL     1      18.435 -15.667  22.550  1.00  0.00     0.120 C 
HETATM    9  C16 UNL     1      19.521 -16.471  21.902  1.00  0.00     0.050 C 
HETATM   10  C17 UNL     1      17.944 -16.247  23.808  1.00  0.00     0.155 C 
HETATM   11  C18 UNL     1      18.833 -16.278  24.984  1.00  0.00     0.138 C 
HETATM   12  C19 UNL     1      19.828 -17.416  24.914  1.00  0.00     0.059 C 
HETATM   13  C20 UNL     1      19.492 -14.966  25.106  1.00  0.00    -0.008 A 
HETATM   14  C21 UNL     1      20.144 -14.675  26.315  1.00  0.00     0.011 A 
HETATM   15  C22 UNL     1      20.791 -13.482  26.541  1.00  0.00     0.001 A 
HETATM   16  C23 UNL     1      20.790 -12.543  25.530  1.00  0.00     0.001 A 
HETATM   17  C24 UNL     1      20.154 -12.811  24.338  1.00  0.00     0.011 A 
HETATM   18  C25 UNL     1      19.492 -14.041  24.116  1.00  0.00    -0.012 A 
ENDROOT
BRANCH   5  19
HETATM   19  C7  UNL     1      15.445 -14.759  19.812  1.00  0.00     0.066 C 
HETATM   20  C8  UNL     1      14.429 -15.511  19.856  1.00  0.00     0.203 C 
BRANCH  20  21
HETATM   21  N3  UNL     1      14.187 -16.398  18.738  1.00  0.00    -0.059 N 
HETATM   22  C9  UNL     1      13.665 -15.701  17.597  1.00  0.00     0.277 C 
HETATM   23  C10 UNL     1      15.434 -17.033  18.333  1.00  0.00     0.277 C 
HETATM   24  C11 UNL     1      13.274 -17.450  19.127  1.00  0.00     0.277 C 
ENDBRANCH  20  21
ENDBRANCH   5  19
BRANCH   5  25
HETATM   25  N4  UNL     1      15.459 -12.448  20.682  1.00  0.00    -0.045 N 
HETATM   26  C12 UNL     1      14.976 -12.169  19.317  1.00  0.00     0.278 C 
HETATM   27  C13 UNL     1      14.310 -12.112  21.519  1.00  0.00     0.278 C 
HETATM   28  C14 UNL     1      16.508 -11.443  20.936  1.00  0.00     0.278 C 
ENDBRANCH   5  25
BRANCH   1  29
HETATM   29  C3  UNL     1      19.731 -13.713  21.751  1.00  0.00     0.103 C 
HETATM   30  N1  UNL     1      19.212 -13.340  20.634  1.00  0.00    -0.338 N 
HETATM   31  C2  UNL     1      19.916 -12.826  19.541  1.00  0.00     0.217 C 
ATOM     32  H1  UNL     1      18.200 -13.425  20.539  1.00  0.00     0.167 HD
HETATM   33  C1  UNL     1      19.207 -12.168  18.422  1.00  0.00     0.117 C 
HETATM   34  O1  UNL     1      21.165 -12.919  19.501  1.00  0.00    -0.274 OA
ENDBRANCH   1  29
BRANCH  10  35
HETATM   35  N6  UNL     1      16.797 -16.709  23.893  1.00  0.00    -0.336 NA
BRANCH  35  36
HETATM   36  N7  UNL     1      15.648 -17.173  24.077  1.00  0.00    -0.280 N 
ATOM     37  H72 UNL     1      15.578 -16.808  23.127  1.00  0.00     0.191 HD
ATOM     38  H71 UNL     1      14.737 -17.574  24.301  1.00  0.00     0.191 HD
ENDBRANCH  35  36
ENDBRANCH  10  35
BRANCH  11  39
HETATM   39  O2  UNL     1      18.085 -16.495  26.169  1.00  0.00    -0.378 OA
ATOM     40  H2  UNL     1      17.293 -15.971  26.166  1.00  0.00     0.211 HD
ENDBRANCH  11  39
TORSDOF 7
ENDMDL
MODEL 4
REMARK VINA RESULT: -7.203122292      2.923      6.596
REMARK  7 active torsions:
REMARK  status: ('A' for Active; 'I' for Inactive)
REMARK       I    between atoms: C2_2  and  N1_4 
REMARK    1  A    between atoms: C3_6  and  C4_7 
REMARK    2  A    between atoms: C6_11  and  C7_12 
REMARK    3  A    between atoms: C6_11  and  N4_18 
REMARK    4  A    between atoms: C8_13  and  N3_14 
REMARK    5  A    between atoms: C17_26  and  N6_27 
REMARK    6  A    between atoms: N6_27  and  N7_28 
REMARK    7  A    between atoms: C18_31  and  O2_33 
ROOT
HETATM    1  C4  UNL     1      19.921 -14.521  22.472  1.00  0.00     0.124 C 
HETATM    2  N2  UNL     1      20.329 -15.919  22.266  1.00  0.00    -0.354 N 
ATOM      3  H2  UNL     1      20.804 -16.290  21.443  1.00  0.00     0.162 HD
HETATM    4  C5  UNL     1      19.949 -16.652  23.405  1.00  0.00     0.134 C 
HETATM    5  C6  UNL     1      20.502 -17.680  24.030  1.00  0.00     0.179 C 
HETATM    6  N5  UNL     1      18.743 -16.000  23.879  1.00  0.00    -0.356 N 
ATOM      7  H5  UNL     1      18.126 -16.334  24.619  1.00  0.00     0.162 HD
HETATM    8  C15 UNL     1      18.577 -14.787  23.107  1.00  0.00     0.120 C 
HETATM    9  C16 UNL     1      18.153 -13.698  24.045  1.00  0.00     0.050 C 
HETATM   10  C17 UNL     1      17.607 -15.053  22.036  1.00  0.00     0.155 C 
HETATM   11  C18 UNL     1      17.385 -14.033  20.994  1.00  0.00     0.138 C 
HETATM   12  C19 UNL     1      16.471 -12.924  21.470  1.00  0.00     0.059 C 
HETATM   13  C20 UNL     1      18.695 -13.524  20.551  1.00  0.00    -0.008 A 
HETATM   14  C21 UNL     1      18.734 -12.772  19.366  1.00  0.00     0.011 A 
HETATM   15  C22 UNL     1      19.901 -12.249  18.857  1.00  0.00     0.001 A 
HETATM   16  C23 UNL     1      21.071 -12.482  19.549  1.00  0.00     0.001 A 
HETATM   17  C24 UNL     1      21.051 -13.219  20.713  1.00  0.00     0.011 A 
HETATM   18  C25 UNL     1      19.846 -13.752  21.227  1.00  0.00    -0.012 A 
ENDROOT
BRANCH   5  19
HETATM   19  C7  UNL     1      19.754 -18.168  25.216  1.00  0.00     0.066 C 
HETATM   20  C8  UNL     1      18.714 -18.885  25.285  1.00  0.00     0.203 C 
BRANCH  20  21
HETATM   21  N3  UNL     1      18.195 -19.210  26.597  1.00  0.00    -0.059 N 
HETATM   22  C9  UNL     1      18.793 -20.397  27.137  1.00  0.00     0.277 C 
HETATM   23  C10 UNL     1      18.470 -18.118  27.521  1.00  0.00     0.277 C 
HETATM   24  C11 UNL     1      16.758 -19.373  26.536  1.00  0.00     0.277 C 
ENDBRANCH  20  21
ENDBRANCH   5  19
BRANCH   5  25
HETATM   25  N4  UNL     1      21.710 -18.325  23.719  1.00  0.00    -0.045 N 
HETATM   26  C12 UNL     1      22.858 -17.409  23.850  1.00  0.00     0.278 C 
HETATM   27  C13 UNL     1      22.078 -19.448  24.579  1.00  0.00     0.278 C 
HETATM   28  C14 UNL     1      21.748 -18.799  22.323  1.00  0.00     0.278 C 
ENDBRANCH   5  25
BRANCH   1  29
HETATM   29  C3  UNL     1      20.845 -13.836  23.408  1.00  0.00     0.103 C 
HETATM   30  N1  UNL     1      22.081 -14.193  23.438  1.00  0.00    -0.338 N 
HETATM   31  C2  UNL     1      23.067 -13.643  24.264  1.00  0.00     0.217 C 
ATOM     32  H1  UNL     1      22.367 -14.941  22.806  1.00  0.00     0.167 HD
HETATM   33  C1  UNL     1      24.500 -13.922  24.025  1.00  0.00     0.117 C 
HETATM   34  O1  UNL     1      22.740 -12.902  25.220  1.00  0.00    -0.274 OA
ENDBRANCH   1  29
BRANCH  10  35
HETATM   35  N6  UNL     1      16.976 -16.118  21.996  1.00  0.00    -0.336 NA
BRANCH  35  36
HETATM   36  N7  UNL     1      16.327 -17.180  21.859  1.00  0.00    -0.280 N 
ATOM     37  H72 UNL     1      15.725 -16.504  21.389  1.00  0.00     0.191 HD
ATOM     38  H71 UNL     1      15.857 -18.083  21.787  1.00  0.00     0.191 HD
ENDBRANCH  35  36
ENDBRANCH  10  35
BRANCH  11  39
HETATM   39  O2  UNL     1      16.742 -14.603  19.866  1.00  0.00    -0.378 OA
ATOM     40  H2  UNL     1      15.943 -14.131  19.663  1.00  0.00     0.211 HD
ENDBRANCH  11  39
TORSDOF 7
ENDMDL
MODEL 5
REMARK VINA RESULT: -7.034645732      2.068      5.278
REMARK  7 active torsions:
REMARK  status: ('A' for Active; 'I' for Inactive)
REMARK       I    between atoms: C2_2  and  N1_4 
REMARK    1  A    between atoms: C3_6  and  C4_7 
REMARK    2  A    between atoms: C6_11  and  C7_12 
REMARK    3  A    between atoms: C6_11  and  N4_18 
REMARK    4  A    between atoms: C8_13  and  N3_14 
REMARK    5  A    between atoms: C17_26  and  N6_27 
REMARK    6  A    between atoms: N6_27  and  N7_28 
REMARK    7  A    between atoms: C18_31  and  O2_33 
ROOT
HETATM    1  C4  UNL     1      17.602 -15.341  22.007  1.00  0.00     0.124 C 
HETATM    2  N2  UNL     1      16.979 -14.978  20.725  1.00  0.00    -0.354 N 
ATOM      3  H2  UNL     1      17.224 -15.356  19.810  1.00  0.00     0.162 HD
HETATM    4  C5  UNL     1      15.983 -14.019  20.986  1.00  0.00     0.134 C 
HETATM    5  C6  UNL     1      14.805 -13.781  20.429  1.00  0.00     0.179 C 
HETATM    6  N5  UNL     1      16.478 -13.273  22.127  1.00  0.00    -0.356 N 
ATOM      7  H5  UNL     1      16.070 -12.424  22.517  1.00  0.00     0.162 HD
HETATM    8  C15 UNL     1      17.657 -13.959  22.611  1.00  0.00     0.120 C 
HETATM    9  C16 UNL     1      17.598 -13.977  24.108  1.00  0.00     0.050 C 
HETATM   10  C17 UNL     1      18.840 -13.271  22.077  1.00  0.00     0.155 C 
HETATM   11  C18 UNL     1      20.173 -13.869  22.275  1.00  0.00     0.138 C 
HETATM   12  C19 UNL     1      20.716 -13.604  23.663  1.00  0.00     0.059 C 
HETATM   13  C20 UNL     1      20.089 -15.308  21.975  1.00  0.00    -0.008 A 
HETATM   14  C21 UNL     1      21.293 -16.011  21.808  1.00  0.00     0.011 A 
HETATM   15  C22 UNL     1      21.334 -17.357  21.523  1.00  0.00     0.001 A 
HETATM   16  C23 UNL     1      20.137 -18.030  21.399  1.00  0.00     0.001 A 
HETATM   17  C24 UNL     1      18.946 -17.357  21.560  1.00  0.00     0.011 A 
HETATM   18  C25 UNL     1      18.915 -15.973  21.852  1.00  0.00    -0.012 A 
ENDROOT
BRANCH   5  19
HETATM   19  C7  UNL     1      14.056 -12.641  21.014  1.00  0.00     0.066 C 
HETATM   20  C8  UNL     1      13.999 -11.430  20.651  1.00  0.00     0.203 C 
BRANCH  20  21
HETATM   21  N3  UNL     1      13.174 -10.524  21.421  1.00  0.00    -0.059 N 
HETATM   22  C9  UNL     1      13.951  -9.517  22.085  1.00  0.00     0.277 C 
HETATM   23  C10 UNL     1      12.233  -9.845  20.542  1.00  0.00     0.277 C 
HETATM   24  C11 UNL     1      12.400 -11.263  22.395  1.00  0.00     0.277 C 
ENDBRANCH  20  21
ENDBRANCH   5  19
BRANCH   5  25
HETATM   25  N4  UNL     1      14.187 -14.495  19.389  1.00  0.00    -0.045 N 
HETATM   26  C12 UNL     1      14.598 -13.984  18.068  1.00  0.00     0.278 C 
HETATM   27  C13 UNL     1      14.504 -15.919  19.311  1.00  0.00     0.278 C 
HETATM   28  C14 UNL     1      12.718 -14.364  19.417  1.00  0.00     0.278 C 
ENDBRANCH   5  25
BRANCH   1  29
HETATM   29  C3  UNL     1      16.719 -16.246  22.783  1.00  0.00     0.103 C 
HETATM   30  N1  UNL     1      15.801 -16.903  22.166  1.00  0.00    -0.338 N 
HETATM   31  C2  UNL     1      14.897 -17.789  22.760  1.00  0.00     0.217 C 
ATOM     32  H1  UNL     1      15.726 -16.766  21.158  1.00  0.00     0.167 HD
HETATM   33  C1  UNL     1      14.074 -18.701  21.935  1.00  0.00     0.117 C 
HETATM   34  O1  UNL     1      14.777 -17.818  24.007  1.00  0.00    -0.274 OA
ENDBRANCH   1  29
BRANCH  10  35
HETATM   35  N6  UNL     1      18.734 -12.198  21.465  1.00  0.00    -0.336 NA
BRANCH  35  36
HETATM   36  N7  UNL     1      18.678 -11.073  20.918  1.00  0.00    -0.280 N 
ATOM     37  H72 UNL     1      19.673 -11.156  21.129  1.00  0.00     0.191 HD
ATOM     38  H71 UNL     1      18.554 -10.168  20.465  1.00  0.00     0.191 HD
ENDBRANCH  35  36
ENDBRANCH  10  35
BRANCH  11  39
HETATM   39  O2  UNL     1      21.114 -13.299  21.380  1.00  0.00    -0.378 OA
ATOM     40  H2  UNL     1      21.689 -12.697  21.838  1.00  0.00     0.211 HD
ENDBRANCH  11  39
TORSDOF 7
ENDMDL
