MODEL 1
REMARK VINA RESULT: -7.685522096      0.000      0.000
REMARK  8 active torsions:
REMARK  status: ('A' for Active; 'I' for Inactive)
REMARK    1  A    between atoms: C2_2  and  C3_3 
REMARK    2  A    between atoms: C3_3  and  N2_7 
REMARK    3  A    between atoms: N2_7  and  C4_9 
REMARK    4  A    between atoms: C4_9  and  C5_10 
REMARK    5  A    between atoms: C4_9  and  C11_18 
REMARK       I    between atoms: C5_10  and  N3_12 
REMARK       I    between atoms: C11_18  and  N4_20 
REMARK    6  A    between atoms: C18_28  and  C19_29 
REMARK    7  A    between atoms: C18_28  and  C21_33 
REMARK    8  A    between atoms: C19_29  and  C20_30 
ROOT
HETATM    1  C4  UNL     1      19.454 -13.754  21.655  1.00  0.00     0.268 C 
ENDROOT
BRANCH   1   2
HETATM    2  N2  UNL     1      19.541 -12.958  20.401  1.00  0.00    -0.355 N 
ATOM      3  H2  UNL     1      20.324 -13.047  19.754  1.00  0.00     0.162 HD
BRANCH   2   4
HETATM    4  C3  UNL     1      18.435 -12.042  20.158  1.00  0.00     0.102 C 
HETATM    5  N1  UNL     1      18.537 -10.976  20.825  1.00  0.00    -0.385 N 
ATOM      6  H12 UNL     1      17.762 -10.335  20.655  1.00  0.00     0.157 HD
ATOM      7  H11 UNL     1      19.277 -10.726  21.481  1.00  0.00     0.157 HD
BRANCH   4   8
HETATM    8  C2  UNL     1      17.364 -12.404  19.208  1.00  0.00    -0.015 C 
HETATM    9  C1  UNL     1      17.803 -12.742  17.822  1.00  0.00     0.052 C 
HETATM   10  C18 UNL     1      16.133 -12.509  19.586  1.00  0.00    -0.053 C 
BRANCH  10  11
HETATM   11  C19 UNL     1      15.713 -12.149  20.985  1.00  0.00     0.148 C 
BRANCH  11  12
HETATM   12  C20 UNL     1      15.033 -10.848  21.081  1.00  0.00     0.176 C 
HETATM   13  O3  UNL     1      15.537  -9.889  20.450  1.00  0.00    -0.648 OA
HETATM   14  O4  UNL     1      13.881 -10.593  21.815  1.00  0.00    -0.648 OA
ENDBRANCH  11  12
ENDBRANCH  10  11
BRANCH  10  15
HETATM   15  C21 UNL     1      15.059 -12.924  18.644  1.00  0.00    -0.027 C 
HETATM   16  C22 UNL     1      13.728 -13.194  19.361  1.00  0.00     0.019 C 
HETATM   17  C23 UNL     1      14.773 -11.867  17.624  1.00  0.00     0.019 C 
HETATM   18  C24 UNL     1      15.386 -14.222  17.965  1.00  0.00     0.019 C 
ENDBRANCH  10  15
ENDBRANCH   4   8
ENDBRANCH   2   4
ENDBRANCH   1   2
BRANCH   1  19
HETATM   19  C5  UNL     1      20.728 -13.534  22.342  1.00  0.00     0.252 C 
HETATM   20  O1  UNL     1      21.666 -13.113  21.563  1.00  0.00    -0.270 OA
HETATM   21  N3  UNL     1      21.071 -13.702  23.687  1.00  0.00    -0.350 N 
HETATM   22  C6  UNL     1      20.112 -14.077  24.671  1.00  0.00     0.126 C 
HETATM   23  C10 UNL     1      22.490 -13.483  24.030  1.00  0.00     0.126 C 
HETATM   24  C7  UNL     1      20.339 -13.447  26.021  1.00  0.00     0.020 C 
HETATM   25  C8  UNL     1      21.620 -12.663  26.128  1.00  0.00     0.003 C 
HETATM   26  C9  UNL     1      22.716 -13.531  25.501  1.00  0.00     0.020 C 
ENDBRANCH   1  19
BRANCH   1  27
HETATM   27  C11 UNL     1      19.215 -15.149  21.218  1.00  0.00     0.252 C 
HETATM   28  O2  UNL     1      20.228 -15.791  20.760  1.00  0.00    -0.270 OA
HETATM   29  N4  UNL     1      18.000 -15.826  21.252  1.00  0.00    -0.347 N 
HETATM   30  C12 UNL     1      17.993 -17.225  20.753  1.00  0.00     0.154 C 
HETATM   31  C17 UNL     1      16.729 -15.364  21.705  1.00  0.00     0.154 C 
HETATM   32  C13 UNL     1      17.139 -18.056  21.665  1.00  0.00     0.256 C 
HETATM   33  N5  UNL     1      15.778 -17.642  21.511  1.00  0.00    -0.072 N 
HETATM   34  C14 UNL     1      15.053 -18.143  22.681  1.00  0.00     0.272 C 
HETATM   35  C15 UNL     1      15.234 -18.356  20.357  1.00  0.00     0.272 C 
HETATM   36  C16 UNL     1      15.582 -16.234  21.325  1.00  0.00     0.256 C 
ENDBRANCH   1  27
TORSDOF 8
ENDMDL
MODEL 2
REMARK VINA RESULT: -7.669983474      3.098      6.054
REMARK  8 active torsions:
REMARK  status: ('A' for Active; 'I' for Inactive)
REMARK    1  A    between atoms: C2_2  and  C3_3 
REMARK    2  A    between atoms: C3_3  and  N2_7 
REMARK    3  A    between atoms: N2_7  and  C4_9 
REMARK    4  A    between atoms: C4_9  and  C5_10 
REMARK    5  A    between atoms: C4_9  and  C11_18 
REMARK       I    between atoms: C5_10  and  N3_12 
REMARK       I    between atoms: C11_18  and  N4_20 
REMARK    6  A    between atoms: C18_28  and  C19_29 
REMARK    7  A    between atoms: C18_28  and  C21_33 
REMARK    8  A    between atoms: C19_29  and  C20_30 
ROOT
HETATM    1  C4  UNL     1      14.661 -13.447  20.033  1.00  0.00     0.268 C 
ENDROOT
BRANCH   1   2
HETATM    2  N2  UNL     1      15.970 -12.793  20.305  1.00  0.00    -0.355 N 
ATOM      3  H2  UNL     1      16.397 -12.796  21.231  1.00  0.00     0.162 HD
BRANCH   2   4
HETATM    4  C3  UNL     1      16.602 -12.148  19.162  1.00  0.00     0.102 C 
HETATM    5  N1  UNL     1      15.870 -11.261  18.644  1.00  0.00    -0.385 N 
ATOM      6  H12 UNL     1      16.313 -10.809  17.844  1.00  0.00     0.157 HD
ATOM      7  H11 UNL     1      14.933 -10.984  18.938  1.00  0.00     0.157 HD
BRANCH   4   8
HETATM    8  C2  UNL     1      17.959 -12.548  18.738  1.00  0.00    -0.015 C 
HETATM    9  C1  UNL     1      18.073 -13.131  17.369  1.00  0.00     0.052 C 
HETATM   10  C18 UNL     1      18.993 -12.319  19.477  1.00  0.00    -0.053 C 
BRANCH  10  11
HETATM   11  C19 UNL     1      18.851 -11.743  20.860  1.00  0.00     0.148 C 
BRANCH  11  12
HETATM   12  C20 UNL     1      18.951 -12.746  21.931  1.00  0.00     0.176 C 
HETATM   13  O3  UNL     1      17.898 -13.340  22.261  1.00  0.00    -0.648 OA
HETATM   14  O4  UNL     1      20.115 -13.088  22.607  1.00  0.00    -0.648 OA
ENDBRANCH  11  12
ENDBRANCH  10  11
BRANCH  10  15
HETATM   15  C21 UNL     1      20.367 -12.672  19.031  1.00  0.00    -0.027 C 
HETATM   16  C22 UNL     1      21.441 -11.818  19.721  1.00  0.00     0.019 C 
HETATM   17  C23 UNL     1      20.706 -14.095  19.343  1.00  0.00     0.019 C 
HETATM   18  C24 UNL     1      20.562 -12.403  17.567  1.00  0.00     0.019 C 
ENDBRANCH  10  15
ENDBRANCH   4   8
ENDBRANCH   2   4
ENDBRANCH   1   2
BRANCH   1  19
HETATM   19  C5  UNL     1      13.815 -13.107  21.178  1.00  0.00     0.252 C 
HETATM   20  O1  UNL     1      13.781 -14.026  22.083  1.00  0.00    -0.270 OA
HETATM   21  N3  UNL     1      13.058 -11.959  21.435  1.00  0.00    -0.350 N 
HETATM   22  C6  UNL     1      13.074 -10.833  20.562  1.00  0.00     0.126 C 
HETATM   23  C10 UNL     1      12.228 -11.984  22.655  1.00  0.00     0.126 C 
HETATM   24  C7  UNL     1      12.962  -9.507  21.270  1.00  0.00     0.020 C 
HETATM   25  C8  UNL     1      12.699  -9.618  22.749  1.00  0.00     0.003 C 
HETATM   26  C9  UNL     1      11.593 -10.664  22.917  1.00  0.00     0.020 C 
ENDBRANCH   1  19
BRANCH   1  27
HETATM   27  C11 UNL     1      14.965 -14.889  19.889  1.00  0.00     0.252 C 
HETATM   28  O2  UNL     1      16.154 -15.262  20.199  1.00  0.00    -0.270 OA
HETATM   29  N4  UNL     1      14.089 -15.875  19.446  1.00  0.00    -0.347 N 
HETATM   30  C12 UNL     1      14.615 -17.262  19.373  1.00  0.00     0.154 C 
HETATM   31  C17 UNL     1      12.728 -15.748  19.041  1.00  0.00     0.154 C 
HETATM   32  C13 UNL     1      13.559 -18.203  19.875  1.00  0.00     0.256 C 
HETATM   33  N5  UNL     1      12.478 -18.209  18.938  1.00  0.00    -0.072 N 
HETATM   34  C14 UNL     1      11.321 -18.772  19.637  1.00  0.00     0.272 C 
HETATM   35  C15 UNL     1      12.821 -19.162  17.884  1.00  0.00     0.272 C 
HETATM   36  C16 UNL     1      12.175 -16.941  18.342  1.00  0.00     0.256 C 
ENDBRANCH   1  27
TORSDOF 8
ENDMDL
MODEL 3
REMARK VINA RESULT: -7.605929388      3.178      5.953
REMARK  8 active torsions:
REMARK  status: ('A' for Active; 'I' for Inactive)
REMARK    1  A    between atoms: C2_2  and  C3_3 
REMARK    2  A    between atoms: C3_3  and  N2_7 
REMARK    3  A    between atoms: N2_7  and  C4_9 
REMARK    4  A    between atoms: C4_9  and  C5_10 
REMARK    5  A    between atoms: C4_9  and  C11_18 
REMARK       I    between atoms: C5_10  and  N3_12 
REMARK       I    between atoms: C11_18  and  N4_20 
REMARK    6  A    between atoms: C18_28  and  C19_29 
REMARK    7  A    between atoms: C18_28  and  C21_33 
REMARK    8  A    between atoms: C19_29  and  C20_30 
ROOT
HETATM    1  C4  UNL     1      14.850 -13.003  20.967  1.00  0.00     0.268 C 
ENDROOT
BRANCH   1   2
HETATM    2  N2  UNL     1      16.077 -12.433  21.588  1.00  0.00    -0.355 N 
ATOM      3  H2  UNL     1      16.302 -12.571  22.573  1.00  0.00     0.162 HD
BRANCH   2   4
HETATM    4  C3  UNL     1      16.935 -11.664  20.697  1.00  0.00     0.102 C 
HETATM    5  N1  UNL     1      16.342 -10.668  20.199  1.00  0.00    -0.385 N 
ATOM      6  H12 UNL     1      16.944 -10.130  19.574  1.00  0.00     0.157 HD
ATOM      7  H11 UNL     1      15.375 -10.383  20.354  1.00  0.00     0.157 HD
BRANCH   4   8
HETATM    8  C2  UNL     1      18.335 -12.076  20.473  1.00  0.00    -0.015 C 
HETATM    9  C1  UNL     1      19.155 -12.307  21.699  1.00  0.00     0.052 C 
HETATM   10  C18 UNL     1      18.789 -12.310  19.286  1.00  0.00    -0.053 C 
BRANCH  10  11
HETATM   11  C19 UNL     1      17.947 -12.057  18.066  1.00  0.00     0.148 C 
BRANCH  11  12
HETATM   12  C20 UNL     1      16.901 -13.069  17.849  1.00  0.00     0.176 C 
HETATM   13  O3  UNL     1      15.755 -12.655  17.555  1.00  0.00    -0.648 OA
HETATM   14  O4  UNL     1      17.078 -14.443  17.945  1.00  0.00    -0.648 OA
ENDBRANCH  11  12
ENDBRANCH  10  11
BRANCH  10  15
HETATM   15  C21 UNL     1      20.183 -12.775  19.061  1.00  0.00    -0.027 C 
HETATM   16  C22 UNL     1      21.216 -11.879  19.759  1.00  0.00     0.019 C 
HETATM   17  C23 UNL     1      20.404 -14.155  19.594  1.00  0.00     0.019 C 
HETATM   18  C24 UNL     1      20.561 -12.716  17.609  1.00  0.00     0.019 C 
ENDBRANCH  10  15
ENDBRANCH   4   8
ENDBRANCH   2   4
ENDBRANCH   1   2
BRANCH   1  19
HETATM   19  C5  UNL     1      13.762 -12.673  21.889  1.00  0.00     0.252 C 
HETATM   20  O1  UNL     1      13.384 -13.670  22.616  1.00  0.00    -0.270 OA
HETATM   21  N3  UNL     1      13.089 -11.465  22.099  1.00  0.00    -0.350 N 
HETATM   22  C6  UNL     1      13.462 -10.265  21.428  1.00  0.00     0.126 C 
HETATM   23  C10 UNL     1      11.958 -11.505  23.047  1.00  0.00     0.126 C 
HETATM   24  C7  UNL     1      13.300  -9.021  22.262  1.00  0.00     0.020 C 
HETATM   25  C8  UNL     1      12.630  -9.251  23.590  1.00  0.00     0.003 C 
HETATM   26  C9  UNL     1      11.417 -10.145  23.317  1.00  0.00     0.020 C 
ENDBRANCH   1  19
BRANCH   1  27
HETATM   27  C11 UNL     1      15.123 -14.451  20.818  1.00  0.00     0.252 C 
HETATM   28  O2  UNL     1      16.206 -14.892  21.347  1.00  0.00    -0.270 OA
HETATM   29  N4  UNL     1      14.321 -15.376  20.155  1.00  0.00    -0.347 N 
HETATM   30  C12 UNL     1      14.798 -16.782  20.124  1.00  0.00     0.154 C 
HETATM   31  C17 UNL     1      13.080 -15.168  19.485  1.00  0.00     0.154 C 
HETATM   32  C13 UNL     1      13.626 -17.692  20.350  1.00  0.00     0.256 C 
HETATM   33  N5  UNL     1      12.764 -17.609  19.212  1.00  0.00    -0.072 N 
HETATM   34  C14 UNL     1      11.466 -18.145  19.629  1.00  0.00     0.272 C 
HETATM   35  C15 UNL     1      13.283 -18.533  18.205  1.00  0.00     0.272 C 
HETATM   36  C16 UNL     1      12.639 -16.305  18.629  1.00  0.00     0.256 C 
ENDBRANCH   1  27
TORSDOF 8
ENDMDL
MODEL 4
REMARK VINA RESULT: -7.562071542      3.906      6.446
REMARK  8 active torsions:
REMARK  status: ('A' for Active; 'I' for Inactive)
REMARK    1  A    between atoms: C2_2  and  C3_3 
REMARK    2  A    between atoms: C3_3  and  N2_7 
REMARK    3  A    between atoms: N2_7  and  C4_9 
REMARK    4  A    between atoms: C4_9  and  C5_10 
REMARK    5  A    between atoms: C4_9  and  C11_18 
REMARK       I    between atoms: C5_10  and  N3_12 
REMARK       I    between atoms: C11_18  and  N4_20 
REMARK    6  A    between atoms: C18_28  and  C19_29 
REMARK    7  A    between atoms: C18_28  and  C21_33 
REMARK    8  A    between atoms: C19_29  and  C20_30 
ROOT
HETATM    1  C4  UNL     1      17.199 -12.272  18.362  1.00  0.00     0.268 C 
ENDROOT
BRANCH   1   2
HETATM    2  N2  UNL     1      17.459 -13.032  17.109  1.00  0.00    -0.355 N 
ATOM      3  H2  UNL     1      17.135 -13.989  16.977  1.00  0.00     0.162 HD
BRANCH   2   4
HETATM    4  C3  UNL     1      18.207 -12.319  16.083  1.00  0.00     0.102 C 
HETATM    5  N1  UNL     1      19.445 -12.285  16.325  1.00  0.00    -0.385 N 
ATOM      6  H12 UNL     1      19.969 -11.785  15.606  1.00  0.00     0.157 HD
ATOM      7  H11 UNL     1      19.928 -12.684  17.130  1.00  0.00     0.157 HD
BRANCH   4   8
HETATM    8  C2  UNL     1      17.508 -11.742  14.917  1.00  0.00    -0.015 C 
HETATM    9  C1  UNL     1      17.004 -10.347  15.078  1.00  0.00     0.052 C 
HETATM   10  C18 UNL     1      17.423 -12.381  13.797  1.00  0.00    -0.053 C 
BRANCH  10  11
HETATM   11  C19 UNL     1      17.926 -13.792  13.664  1.00  0.00     0.148 C 
BRANCH  11  12
HETATM   12  C20 UNL     1      19.260 -13.888  13.049  1.00  0.00     0.176 C 
HETATM   13  O3  UNL     1      19.373 -14.619  12.037  1.00  0.00    -0.648 OA
HETATM   14  O4  UNL     1      20.402 -13.239  13.499  1.00  0.00    -0.648 OA
ENDBRANCH  11  12
ENDBRANCH  10  11
BRANCH  10  15
HETATM   15  C21 UNL     1      16.766 -11.782  12.604  1.00  0.00    -0.027 C 
HETATM   16  C22 UNL     1      16.247 -12.850  11.629  1.00  0.00     0.019 C 
HETATM   17  C23 UNL     1      15.579 -10.952  12.979  1.00  0.00     0.019 C 
HETATM   18  C24 UNL     1      17.729 -10.969  11.788  1.00  0.00     0.019 C 
ENDBRANCH  10  15
ENDBRANCH   4   8
ENDBRANCH   2   4
ENDBRANCH   1   2
BRANCH   1  19
HETATM   19  C5  UNL     1      17.684 -13.132  19.442  1.00  0.00     0.252 C 
HETATM   20  O1  UNL     1      16.967 -14.190  19.619  1.00  0.00    -0.270 OA
HETATM   21  N3  UNL     1      18.787 -12.986  20.290  1.00  0.00    -0.350 N 
HETATM   22  C6  UNL     1      19.712 -11.911  20.148  1.00  0.00     0.126 C 
HETATM   23  C10 UNL     1      18.933 -14.000  21.352  1.00  0.00     0.126 C 
HETATM   24  C7  UNL     1      21.137 -12.282  20.467  1.00  0.00     0.020 C 
HETATM   25  C8  UNL     1      21.302 -13.671  21.025  1.00  0.00     0.003 C 
HETATM   26  C9  UNL     1      20.216 -13.844  22.091  1.00  0.00     0.020 C 
ENDBRANCH   1  19
BRANCH   1  27
HETATM   27  C11 UNL     1      15.740 -12.021  18.373  1.00  0.00     0.252 C 
HETATM   28  O2  UNL     1      15.092 -12.340  17.312  1.00  0.00    -0.270 OA
HETATM   29  N4  UNL     1      15.008 -11.469  19.419  1.00  0.00    -0.347 N 
HETATM   30  C12 UNL     1      13.548 -11.300  19.205  1.00  0.00     0.154 C 
HETATM   31  C17 UNL     1      15.462 -11.029  20.697  1.00  0.00     0.154 C 
HETATM   32  C13 UNL     1      12.830 -11.686  20.466  1.00  0.00     0.256 C 
HETATM   33  N5  UNL     1      13.132 -10.716  21.473  1.00  0.00    -0.072 N 
HETATM   34  C14 UNL     1      12.789 -11.326  22.759  1.00  0.00     0.272 C 
HETATM   35  C15 UNL     1      12.206  -9.599  21.291  1.00  0.00     0.272 C 
HETATM   36  C16 UNL     1      14.475 -10.216  21.460  1.00  0.00     0.256 C 
ENDBRANCH   1  27
TORSDOF 8
ENDMDL
MODEL 5
REMARK VINA RESULT: -7.522472184      2.383      7.192
REMARK  8 active torsions:
REMARK  status: ('A' for Active; 'I' for Inactive)
REMARK    1  A    between atoms: C2_2  and  C3_3 
REMARK    2  A    between atoms: C3_3  and  N2_7 
REMARK    3  A    between atoms: N2_7  and  C4_9 
REMARK    4  A    between atoms: C4_9  and  C5_10 
REMARK    5  A    between atoms: C4_9  and  C11_18 
REMARK       I    between atoms: C5_10  and  N3_12 
REMARK       I    between atoms: C11_18  and  N4_20 
REMARK    6  A    between atoms: C18_28  and  C19_29 
REMARK    7  A    between atoms: C18_28  and  C21_33 
REMARK    8  A    between atoms: C19_29  and  C20_30 
ROOT
HETATM    1  C4  UNL     1      15.892 -13.750  21.046  1.00  0.00     0.268 C 
ENDROOT
BRANCH   1   2
HETATM    2  N2  UNL     1      16.115 -15.023  21.784  1.00  0.00    -0.355 N 
ATOM      3  H2  UNL     1      15.349 -15.553  22.198  1.00  0.00     0.162 HD
BRANCH   2   4
HETATM    4  C3  UNL     1      17.500 -15.462  21.877  1.00  0.00     0.102 C 
HETATM    5  N1  UNL     1      17.953 -15.863  20.769  1.00  0.00    -0.385 N 
ATOM      6  H12 UNL     1      18.924 -16.171  20.834  1.00  0.00     0.157 HD
ATOM      7  H11 UNL     1      17.458 -15.908  19.879  1.00  0.00     0.157 HD
BRANCH   4   8
HETATM    8  C2  UNL     1      18.218 -15.397  23.165  1.00  0.00    -0.015 C 
HETATM    9  C1  UNL     1      17.949 -16.510  24.123  1.00  0.00     0.052 C 
HETATM   10  C18 UNL     1      19.094 -14.479  23.405  1.00  0.00    -0.053 C 
BRANCH  10  11
HETATM   11  C19 UNL     1      19.337 -13.359  22.429  1.00  0.00     0.148 C 
BRANCH  11  12
HETATM   12  C20 UNL     1      20.466 -13.605  21.518  1.00  0.00     0.176 C 
HETATM   13  O3  UNL     1      20.192 -13.973  20.352  1.00  0.00    -0.648 OA
HETATM   14  O4  UNL     1      21.809 -13.465  21.843  1.00  0.00    -0.648 OA
ENDBRANCH  11  12
ENDBRANCH  10  11
BRANCH  10  15
HETATM   15  C21 UNL     1      19.857 -14.440  24.681  1.00  0.00    -0.027 C 
HETATM   16  C22 UNL     1      20.496 -13.066  24.936  1.00  0.00     0.019 C 
HETATM   17  C23 UNL     1      18.983 -14.716  25.863  1.00  0.00     0.019 C 
HETATM   18  C24 UNL     1      21.018 -15.392  24.664  1.00  0.00     0.019 C 
ENDBRANCH  10  15
ENDBRANCH   4   8
ENDBRANCH   2   4
ENDBRANCH   1   2
BRANCH   1  19
HETATM   19  C5  UNL     1      14.575 -13.280  21.479  1.00  0.00     0.252 C 
HETATM   20  O1  UNL     1      13.880 -14.181  22.088  1.00  0.00    -0.270 OA
HETATM   21  N3  UNL     1      13.971 -12.026  21.339  1.00  0.00    -0.350 N 
HETATM   22  C6  UNL     1      14.656 -10.917  20.765  1.00  0.00     0.126 C 
HETATM   23  C10 UNL     1      12.575 -11.918  21.806  1.00  0.00     0.126 C 
HETATM   24  C7  UNL     1      14.306  -9.590  21.387  1.00  0.00     0.020 C 
HETATM   25  C8  UNL     1      13.186  -9.657  22.391  1.00  0.00     0.003 C 
HETATM   26  C9  UNL     1      12.085 -10.514  21.759  1.00  0.00     0.020 C 
ENDBRANCH   1  19
BRANCH   1  27
HETATM   27  C11 UNL     1      15.985 -14.107  19.612  1.00  0.00     0.252 C 
HETATM   28  O2  UNL     1      15.332 -15.144  19.232  1.00  0.00    -0.270 OA
HETATM   29  N4  UNL     1      16.716 -13.429  18.641  1.00  0.00    -0.347 N 
HETATM   30  C12 UNL     1      16.671 -13.974  17.260  1.00  0.00     0.154 C 
HETATM   31  C17 UNL     1      17.523 -12.262  18.779  1.00  0.00     0.154 C 
HETATM   32  C13 UNL     1      16.560 -12.829  16.295  1.00  0.00     0.256 C 
HETATM   33  N5  UNL     1      17.788 -12.096  16.322  1.00  0.00    -0.072 N 
HETATM   34  C14 UNL     1      17.508 -10.787  15.727  1.00  0.00     0.272 C 
HETATM   35  C15 UNL     1      18.716 -12.768  15.414  1.00  0.00     0.272 C 
HETATM   36  C16 UNL     1      18.403 -11.975  17.612  1.00  0.00     0.256 C 
ENDBRANCH   1  27
TORSDOF 8
ENDMDL
