MODEL 1
REMARK VINA RESULT: -8.209335367      0.000      0.000
REMARK  9 active torsions:
REMARK  status: ('A' for Active; 'I' for Inactive)
REMARK    1  A    between atoms: C2_2  and  C4_4 
REMARK    2  A    between atoms: C4_4  and  O2_6 
REMARK    3  A    between atoms: O2_6  and  N1_7 
REMARK    4  A    between atoms: N1_7  and  C5_9 
REMARK    5  A    between atoms: C5_9  and  C6_15 
REMARK    6  A    between atoms: N2_10  and  N3_12 
REMARK    7  A    between atoms: C7_16  and  N4_17 
REMARK    8  A    between atoms: N4_17  and  O3_19 
REMARK    9  A    between atoms: C9_23  and  N6_24 
ROOT
HETATM    1  C6  UNL     1      16.745  35.346  -8.856  1.00  0.00     0.126 A 
HETATM    2  C7  UNL     1      17.678  35.456  -9.853  1.00  0.00     0.160 A 
HETATM    3  N5  UNL     1      18.486  36.533  -9.867  1.00  0.00    -0.174 N 
ATOM      4  H5  UNL     1      19.184  36.624 -10.606  1.00  0.00     0.186 HD
HETATM    5  C9  UNL     1      18.395  37.487  -8.932  1.00  0.00     0.680 A 
HETATM    6  N7  UNL     1      17.484  37.381  -7.956  1.00  0.00    -0.155 N 
ATOM      7  H7  UNL     1      17.427  38.115  -7.250  1.00  0.00     0.187 HD
HETATM    8  C10 UNL     1      16.662  36.356  -7.881  1.00  0.00     0.277 A 
HETATM    9  O4  UNL     1      15.785  36.201  -6.986  1.00  0.00    -0.266 OA
ENDROOT
BRANCH   1  10
HETATM   10  C5  UNL     1      15.810  34.223  -8.786  1.00  0.00     0.159 C 
HETATM   11  N2  UNL     1      14.677  34.388  -9.384  1.00  0.00    -0.290 N 
ATOM     12  H2  UNL     1      14.482  35.277  -9.844  1.00  0.00     0.188 HD
BRANCH  10  13
HETATM   13  N1  UNL     1      16.071  32.987  -8.150  1.00  0.00    -0.239 N 
ATOM     14  H1  UNL     1      16.055  32.960  -7.131  1.00  0.00     0.196 HD
BRANCH  13  15
HETATM   15  O2  UNL     1      16.343  31.825  -8.820  1.00  0.00    -0.193 OA
BRANCH  15  16
HETATM   16  C4  UNL     1      15.531  30.710  -8.825  1.00  0.00     0.309 C 
HETATM   17  O1  UNL     1      14.788  30.519  -9.808  1.00  0.00    -0.258 OA
BRANCH  16  18
HETATM   18  C2  UNL     1      15.515  29.752  -7.715  1.00  0.00     0.006 C 
HETATM   19  C1  UNL     1      15.245  28.476  -7.924  1.00  0.00     0.025 C 
HETATM   20  C3  UNL     1      15.802  30.191  -6.332  1.00  0.00     0.054 C 
ENDBRANCH  16  18
ENDBRANCH  15  16
ENDBRANCH  13  15
ENDBRANCH  10  13
BRANCH  11  21
HETATM   21  N3  UNL     1      13.718  33.383  -9.414  1.00  0.00    -0.344 N 
ATOM     22  H32 UNL     1      13.162  33.274 -10.262  1.00  0.00     0.176 HD
ATOM     23  H31 UNL     1      13.566  32.765  -8.617  1.00  0.00     0.176 HD
ENDBRANCH  11  21
ENDBRANCH   1  10
BRANCH   2  24
HETATM   24  N4  UNL     1      17.844  34.460 -10.860  1.00  0.00    -0.249 N 
ATOM     25  H4  UNL     1      17.978  33.479 -10.613  1.00  0.00     0.196 HD
BRANCH  24  26
HETATM   26  O3  UNL     1      17.817  34.858 -12.165  1.00  0.00    -0.284 OA
HETATM   27  C8  UNL     1      19.057  34.808 -12.773  1.00  0.00     0.237 C 
ENDBRANCH  24  26
ENDBRANCH   2  24
BRANCH   5  28
HETATM   28  N6  UNL     1      19.177  38.531  -8.943  1.00  0.00    -0.234 N 
ATOM     29  H62 UNL     1      18.759  39.451  -9.081  1.00  0.00     0.174 HD
ATOM     30  H61 UNL     1      20.185  38.445  -8.819  1.00  0.00     0.174 HD
ENDBRANCH   5  28
TORSDOF 9
ENDMDL
MODEL 2
REMARK VINA RESULT: -8.140236581      1.141      3.031
REMARK  9 active torsions:
REMARK  status: ('A' for Active; 'I' for Inactive)
REMARK    1  A    between atoms: C2_2  and  C4_4 
REMARK    2  A    between atoms: C4_4  and  O2_6 
REMARK    3  A    between atoms: O2_6  and  N1_7 
REMARK    4  A    between atoms: N1_7  and  C5_9 
REMARK    5  A    between atoms: C5_9  and  C6_15 
REMARK    6  A    between atoms: N2_10  and  N3_12 
REMARK    7  A    between atoms: C7_16  and  N4_17 
REMARK    8  A    between atoms: N4_17  and  O3_19 
REMARK    9  A    between atoms: C9_23  and  N6_24 
ROOT
HETATM    1  C6  UNL     1      17.177  35.048  -9.202  1.00  0.00     0.126 A 
HETATM    2  C7  UNL     1      17.417  36.149  -8.424  1.00  0.00     0.160 A 
HETATM    3  N5  UNL     1      18.497  36.908  -8.691  1.00  0.00    -0.174 N 
ATOM      4  H5  UNL     1      18.683  37.730  -8.116  1.00  0.00     0.186 HD
HETATM    5  C9  UNL     1      19.330  36.608  -9.694  1.00  0.00     0.680 A 
HETATM    6  N7  UNL     1      19.097  35.533 -10.458  1.00  0.00    -0.155 N 
ATOM      7  H7  UNL     1      19.740  35.317 -11.219  1.00  0.00     0.187 HD
HETATM    8  C10 UNL     1      18.061  34.746 -10.253  1.00  0.00     0.277 A 
HETATM    9  O4  UNL     1      17.790  33.721 -10.938  1.00  0.00    -0.266 OA
ENDROOT
BRANCH   1  10
HETATM   10  C5  UNL     1      16.044  34.156  -8.960  1.00  0.00     0.159 C 
HETATM   11  N2  UNL     1      14.935  34.474  -9.541  1.00  0.00    -0.290 N 
ATOM     12  H2  UNL     1      14.895  35.321 -10.108  1.00  0.00     0.188 HD
BRANCH  10  13
HETATM   13  N1  UNL     1      16.088  32.980  -8.175  1.00  0.00    -0.239 N 
ATOM     14  H1  UNL     1      16.001  33.076  -7.163  1.00  0.00     0.196 HD
BRANCH  13  15
HETATM   15  O2  UNL     1      16.241  31.722  -8.691  1.00  0.00    -0.193 OA
BRANCH  15  16
HETATM   16  C4  UNL     1      15.335  30.693  -8.540  1.00  0.00     0.309 C 
HETATM   17  O1  UNL     1      14.389  30.609  -9.347  1.00  0.00    -0.258 OA
BRANCH  16  18
HETATM   18  C2  UNL     1      15.451  29.704  -7.463  1.00  0.00     0.006 C 
HETATM   19  C1  UNL     1      15.754  30.074  -6.232  1.00  0.00     0.025 C 
HETATM   20  C3  UNL     1      15.229  28.266  -7.730  1.00  0.00     0.054 C 
ENDBRANCH  16  18
ENDBRANCH  15  16
ENDBRANCH  13  15
ENDBRANCH  10  13
BRANCH  11  21
HETATM   21  N3  UNL     1      13.795  33.689  -9.412  1.00  0.00    -0.344 N 
ATOM     22  H32 UNL     1      13.272  33.458 -10.256  1.00  0.00     0.176 HD
ATOM     23  H31 UNL     1      13.481  33.347  -8.503  1.00  0.00     0.176 HD
ENDBRANCH  11  21
ENDBRANCH   1  10
BRANCH   2  24
HETATM   24  N4  UNL     1      16.550  36.538  -7.358  1.00  0.00    -0.249 N 
ATOM     25  H4  UNL     1      15.599  36.854  -7.544  1.00  0.00     0.196 HD
BRANCH  24  26
HETATM   26  O3  UNL     1      17.034  36.472  -6.085  1.00  0.00    -0.284 OA
HETATM   27  C8  UNL     1      17.378  37.708  -5.571  1.00  0.00     0.237 C 
ENDBRANCH  24  26
ENDBRANCH   2  24
BRANCH   5  28
HETATM   28  N6  UNL     1      20.377  37.342  -9.955  1.00  0.00    -0.234 N 
ATOM     29  H62 UNL     1      21.192  37.260  -9.349  1.00  0.00     0.174 HD
ATOM     30  H61 UNL     1      20.393  37.987 -10.745  1.00  0.00     0.174 HD
ENDBRANCH   5  28
TORSDOF 9
ENDMDL
MODEL 3
REMARK VINA RESULT: -7.954995087      3.379      5.670
REMARK  9 active torsions:
REMARK  status: ('A' for Active; 'I' for Inactive)
REMARK    1  A    between atoms: C2_2  and  C4_4 
REMARK    2  A    between atoms: C4_4  and  O2_6 
REMARK    3  A    between atoms: O2_6  and  N1_7 
REMARK    4  A    between atoms: N1_7  and  C5_9 
REMARK    5  A    between atoms: C5_9  and  C6_15 
REMARK    6  A    between atoms: N2_10  and  N3_12 
REMARK    7  A    between atoms: C7_16  and  N4_17 
REMARK    8  A    between atoms: N4_17  and  O3_19 
REMARK    9  A    between atoms: C9_23  and  N6_24 
ROOT
HETATM    1  C6  UNL     1      18.354  37.707  -7.453  1.00  0.00     0.126 A 
HETATM    2  C7  UNL     1      17.540  36.880  -6.724  1.00  0.00     0.160 A 
HETATM    3  N5  UNL     1      17.187  37.252  -5.479  1.00  0.00    -0.174 N 
ATOM      4  H5  UNL     1      16.582  36.642  -4.929  1.00  0.00     0.186 HD
HETATM    5  C9  UNL     1      17.612  38.404  -4.948  1.00  0.00     0.680 A 
HETATM    6  N7  UNL     1      18.407  39.215  -5.659  1.00  0.00    -0.155 N 
ATOM      7  H7  UNL     1      18.722  40.091  -5.241  1.00  0.00     0.187 HD
HETATM    8  C10 UNL     1      18.792  38.915  -6.881  1.00  0.00     0.277 A 
HETATM    9  O4  UNL     1      19.538  39.637  -7.599  1.00  0.00    -0.266 OA
ENDROOT
BRANCH   1  10
HETATM   10  C5  UNL     1      18.807  37.362  -8.800  1.00  0.00     0.159 C 
HETATM   11  N2  UNL     1      20.082  37.223  -8.954  1.00  0.00    -0.290 N 
ATOM     12  H2  UNL     1      20.699  37.379  -8.157  1.00  0.00     0.188 HD
BRANCH  10  13
HETATM   13  N1  UNL     1      17.960  37.145  -9.912  1.00  0.00    -0.239 N 
ATOM     14  H1  UNL     1      17.636  37.960 -10.433  1.00  0.00     0.196 HD
BRANCH  13  15
HETATM   15  O2  UNL     1      17.548  35.909 -10.330  1.00  0.00    -0.193 OA
BRANCH  15  16
HETATM   16  C4  UNL     1      17.422  35.525 -11.649  1.00  0.00     0.309 C 
HETATM   17  O1  UNL     1      16.305  35.622 -12.193  1.00  0.00    -0.258 OA
BRANCH  16  18
HETATM   18  C2  UNL     1      18.556  35.008 -12.423  1.00  0.00     0.006 C 
HETATM   19  C1  UNL     1      19.494  34.279 -11.846  1.00  0.00     0.025 C 
HETATM   20  C3  UNL     1      18.676  35.291 -13.869  1.00  0.00     0.054 C 
ENDBRANCH  16  18
ENDBRANCH  15  16
ENDBRANCH  13  15
ENDBRANCH  10  13
BRANCH  11  21
HETATM   21  N3  UNL     1      20.632  36.867 -10.179  1.00  0.00    -0.344 N 
ATOM     22  H32 UNL     1      20.023  36.433 -10.873  1.00  0.00     0.176 HD
ATOM     23  H31 UNL     1      21.617  37.031 -10.391  1.00  0.00     0.176 HD
ENDBRANCH  11  21
ENDBRANCH   1  10
BRANCH   2  24
HETATM   24  N4  UNL     1      17.031  35.653  -7.245  1.00  0.00    -0.249 N 
ATOM     25  H4  UNL     1      17.578  35.092  -7.899  1.00  0.00     0.196 HD
BRANCH  24  26
HETATM   26  O3  UNL     1      15.792  35.252  -6.842  1.00  0.00    -0.284 OA
HETATM   27  C8  UNL     1      14.919  35.045  -7.894  1.00  0.00     0.237 C 
ENDBRANCH  24  26
ENDBRANCH   2  24
BRANCH   5  28
HETATM   28  N6  UNL     1      17.271  38.767  -3.742  1.00  0.00    -0.234 N 
ATOM     29  H62 UNL     1      17.073  38.042  -3.053  1.00  0.00     0.174 HD
ATOM     30  H61 UNL     1      17.201  39.750  -3.480  1.00  0.00     0.174 HD
ENDBRANCH   5  28
TORSDOF 9
ENDMDL
MODEL 4
REMARK VINA RESULT: -7.924632621      2.017      3.607
REMARK  9 active torsions:
REMARK  status: ('A' for Active; 'I' for Inactive)
REMARK    1  A    between atoms: C2_2  and  C4_4 
REMARK    2  A    between atoms: C4_4  and  O2_6 
REMARK    3  A    between atoms: O2_6  and  N1_7 
REMARK    4  A    between atoms: N1_7  and  C5_9 
REMARK    5  A    between atoms: C5_9  and  C6_15 
REMARK    6  A    between atoms: N2_10  and  N3_12 
REMARK    7  A    between atoms: C7_16  and  N4_17 
REMARK    8  A    between atoms: N4_17  and  O3_19 
REMARK    9  A    between atoms: C9_23  and  N6_24 
ROOT
HETATM    1  C6  UNL     1      17.984  36.540  -8.927  1.00  0.00     0.126 A 
HETATM    2  C7  UNL     1      16.896  36.675  -8.106  1.00  0.00     0.160 A 
HETATM    3  N5  UNL     1      16.983  37.500  -7.045  1.00  0.00    -0.174 N 
ATOM      4  H5  UNL     1      16.178  37.606  -6.428  1.00  0.00     0.186 HD
HETATM    5  C9  UNL     1      18.104  38.184  -6.783  1.00  0.00     0.680 A 
HETATM    6  N7  UNL     1      19.169  38.055  -7.585  1.00  0.00    -0.155 N 
ATOM      7  H7  UNL     1      20.015  38.583  -7.374  1.00  0.00     0.187 HD
HETATM    8  C10 UNL     1      19.154  37.266  -8.639  1.00  0.00     0.277 A 
HETATM    9  O4  UNL     1      20.124  37.104  -9.430  1.00  0.00    -0.266 OA
ENDROOT
BRANCH   1  10
HETATM   10  C5  UNL     1      17.980  35.643 -10.082  1.00  0.00     0.159 C 
HETATM   11  N2  UNL     1      17.957  36.209 -11.243  1.00  0.00    -0.290 N 
ATOM     12  H2  UNL     1      17.919  37.227 -11.299  1.00  0.00     0.188 HD
BRANCH  10  13
HETATM   13  N1  UNL     1      18.031  34.231 -10.014  1.00  0.00    -0.239 N 
ATOM     14  H1  UNL     1      18.687  33.746 -10.627  1.00  0.00     0.196 HD
BRANCH  13  15
HETATM   15  O2  UNL     1      17.254  33.477  -9.177  1.00  0.00    -0.193 OA
BRANCH  15  16
HETATM   16  C4  UNL     1      16.087  32.840  -9.546  1.00  0.00     0.309 C 
HETATM   17  O1  UNL     1      15.388  33.350 -10.444  1.00  0.00    -0.258 OA
BRANCH  16  18
HETATM   18  C2  UNL     1      15.648  31.591  -8.915  1.00  0.00     0.006 C 
HETATM   19  C1  UNL     1      15.387  30.519  -9.643  1.00  0.00     0.025 C 
HETATM   20  C3  UNL     1      15.486  31.500  -7.448  1.00  0.00     0.054 C 
ENDBRANCH  16  18
ENDBRANCH  15  16
ENDBRANCH  13  15
ENDBRANCH  10  13
BRANCH  11  21
HETATM   21  N3  UNL     1      17.981  35.465 -12.416  1.00  0.00    -0.344 N 
ATOM     22  H32 UNL     1      17.155  34.917 -12.655  1.00  0.00     0.176 HD
ATOM     23  H31 UNL     1      18.797  35.459 -13.029  1.00  0.00     0.176 HD
ENDBRANCH  11  21
ENDBRANCH   1  10
BRANCH   2  24
HETATM   24  N4  UNL     1      15.665  35.995  -8.348  1.00  0.00    -0.249 N 
ATOM     25  H4  UNL     1      15.418  35.673  -9.284  1.00  0.00     0.196 HD
BRANCH  24  26
HETATM   26  O3  UNL     1      14.829  35.791  -7.290  1.00  0.00    -0.284 OA
HETATM   27  C8  UNL     1      13.808  34.902  -7.570  1.00  0.00     0.237 C 
ENDBRANCH  24  26
ENDBRANCH   2  24
BRANCH   5  28
HETATM   28  N6  UNL     1      18.191  38.984  -5.756  1.00  0.00    -0.234 N 
ATOM     29  H62 UNL     1      17.814  39.927  -5.840  1.00  0.00     0.174 HD
ATOM     30  H61 UNL     1      18.625  38.686  -4.882  1.00  0.00     0.174 HD
ENDBRANCH   5  28
TORSDOF 9
ENDMDL
MODEL 5
REMARK VINA RESULT: -7.786057185      2.747      6.680
REMARK  9 active torsions:
REMARK  status: ('A' for Active; 'I' for Inactive)
REMARK    1  A    between atoms: C2_2  and  C4_4 
REMARK    2  A    between atoms: C4_4  and  O2_6 
REMARK    3  A    between atoms: O2_6  and  N1_7 
REMARK    4  A    between atoms: N1_7  and  C5_9 
REMARK    5  A    between atoms: C5_9  and  C6_15 
REMARK    6  A    between atoms: N2_10  and  N3_12 
REMARK    7  A    between atoms: C7_16  and  N4_17 
REMARK    8  A    between atoms: N4_17  and  O3_19 
REMARK    9  A    between atoms: C9_23  and  N6_24 
ROOT
HETATM    1  C6  UNL     1      14.172  33.225  -8.757  1.00  0.00     0.126 A 
HETATM    2  C7  UNL     1      13.066  33.912  -8.330  1.00  0.00     0.160 A 
HETATM    3  N5  UNL     1      11.876  33.282  -8.318  1.00  0.00    -0.174 N 
ATOM      4  H5  UNL     1      11.048  33.786  -8.002  1.00  0.00     0.186 HD
HETATM    5  C9  UNL     1      11.757  32.008  -8.711  1.00  0.00     0.680 A 
HETATM    6  N7  UNL     1      12.837  31.333  -9.128  1.00  0.00    -0.155 N 
ATOM      7  H7  UNL     1      12.731  30.363  -9.423  1.00  0.00     0.187 HD
HETATM    8  C10 UNL     1      14.031  31.886  -9.166  1.00  0.00     0.277 A 
HETATM    9  O4  UNL     1      15.083  31.303  -9.547  1.00  0.00    -0.266 OA
ENDROOT
BRANCH   1  10
HETATM   10  C5  UNL     1      15.494  33.846  -8.828  1.00  0.00     0.159 C 
HETATM   11  N2  UNL     1      15.883  34.225  -9.999  1.00  0.00    -0.290 N 
ATOM     12  H2  UNL     1      15.277  34.057 -10.803  1.00  0.00     0.188 HD
BRANCH  10  13
HETATM   13  N1  UNL     1      16.342  34.081  -7.720  1.00  0.00    -0.239 N 
ATOM     14  H1  UNL     1      17.054  33.384  -7.505  1.00  0.00     0.196 HD
BRANCH  13  15
HETATM   15  O2  UNL     1      16.264  35.188  -6.919  1.00  0.00    -0.193 OA
BRANCH  15  16
HETATM   16  C4  UNL     1      16.476  36.484  -7.343  1.00  0.00     0.309 C 
HETATM   17  O1  UNL     1      15.723  36.955  -8.217  1.00  0.00    -0.258 OA
BRANCH  16  18
HETATM   18  C2  UNL     1      17.556  37.315  -6.800  1.00  0.00     0.006 C 
HETATM   19  C1  UNL     1      17.536  37.714  -5.541  1.00  0.00     0.025 C 
HETATM   20  C3  UNL     1      18.694  37.726  -7.650  1.00  0.00     0.054 C 
ENDBRANCH  16  18
ENDBRANCH  15  16
ENDBRANCH  13  15
ENDBRANCH  10  13
BRANCH  11  21
HETATM   21  N3  UNL     1      17.106  34.855 -10.192  1.00  0.00    -0.344 N 
ATOM     22  H32 UNL     1      17.781  34.840  -9.427  1.00  0.00     0.176 HD
ATOM     23  H31 UNL     1      17.335  35.322 -11.069  1.00  0.00     0.176 HD
ENDBRANCH  11  21
ENDBRANCH   1  10
BRANCH   2  24
HETATM   24  N4  UNL     1      13.133  35.262  -7.872  1.00  0.00    -0.249 N 
ATOM     25  H4  UNL     1      13.334  36.026  -8.517  1.00  0.00     0.196 HD
BRANCH  24  26
HETATM   26  O3  UNL     1      12.920  35.498  -6.545  1.00  0.00    -0.284 OA
HETATM   27  C8  UNL     1      11.644  35.952  -6.274  1.00  0.00     0.237 C 
ENDBRANCH  24  26
ENDBRANCH   2  24
BRANCH   5  28
HETATM   28  N6  UNL     1      10.606  31.395  -8.700  1.00  0.00    -0.234 N 
ATOM     29  H62 UNL     1       9.762  31.939  -8.877  1.00  0.00     0.174 HD
ATOM     30  H61 UNL     1      10.536  30.393  -8.521  1.00  0.00     0.174 HD
ENDBRANCH   5  28
TORSDOF 9
ENDMDL
