MODEL 1
REMARK VINA RESULT: -7.031344775      0.000      0.000
REMARK  6 active torsions:
REMARK  status: ('A' for Active; 'I' for Inactive)
REMARK    1  A    between atoms: C4_4  and  C6_6 
REMARK    2  A    between atoms: C8_10  and  C9_11 
REMARK    3  A    between atoms: C16_18  and  C17_19 
REMARK    4  A    between atoms: C17_19  and  C19_21 
REMARK    5  A    between atoms: C17_19  and  C23_28 
REMARK    6  A    between atoms: C19_21  and  N1_22 
ROOT
HETATM    1  C9  UNL     1      26.773  61.906   7.774  1.00  0.00    -0.014 C 
HETATM    2  C10 UNL     1      26.928  61.963   9.339  1.00  0.00     0.020 C 
HETATM    3  C11 UNL     1      25.557  62.853   7.724  1.00  0.00     0.014 C 
HETATM    4  C12 UNL     1      25.942  64.309   7.739  1.00  0.00     0.005 C 
HETATM    5  C13 UNL     1      26.549  64.382   6.346  1.00  0.00     0.034 C 
HETATM    6  C14 UNL     1      27.863  63.738   6.659  1.00  0.00    -0.079 C 
HETATM    7  C15 UNL     1      28.954  64.669   6.229  1.00  0.00     0.043 C 
HETATM    8  C16 UNL     1      27.994  62.557   7.328  1.00  0.00    -0.049 C 
ENDROOT
BRANCH   1   9
HETATM    9  C8  UNL     1      26.196  60.576   7.500  1.00  0.00     0.016 C 
HETATM   10  C4  UNL     1      25.914  59.921   6.229  1.00  0.00     0.044 C 
HETATM   11  C3  UNL     1      25.372  58.547   6.485  1.00  0.00    -0.009 C 
HETATM   12  C5  UNL     1      24.600  60.492   5.520  1.00  0.00     0.026 C 
HETATM   13  C2  UNL     1      25.682  57.721   7.449  1.00  0.00    -0.087 C 
HETATM   14  C1  UNL     1      25.104  56.367   7.641  1.00  0.00     0.043 C 
HETATM   15  C25 UNL     1      26.661  58.210   8.404  1.00  0.00     0.034 C 
HETATM   16  C24 UNL     1      26.244  59.637   8.723  1.00  0.00     0.011 C 
BRANCH  10  17
HETATM   17  C6  UNL     1      26.782  59.725   5.063  1.00  0.00     0.251 C 
HETATM   18  C7  UNL     1      27.132  60.783   4.123  1.00  0.00     0.091 C 
HETATM   19  F1  UNL     1      28.076  59.288   5.520  1.00  0.00    -0.206 F 
HETATM   20  F2  UNL     1      26.461  58.602   4.308  1.00  0.00    -0.206 F 
ENDBRANCH  10  17
ENDBRANCH   1   9
BRANCH   8  21
HETATM   21  C17 UNL     1      29.437  62.249   7.471  1.00  0.00     0.085 C 
HETATM   22  C18 UNL     1      29.783  60.800   7.425  1.00  0.00     0.033 C 
BRANCH  21  23
HETATM   23  C19 UNL     1      30.314  62.820   6.344  1.00  0.00     0.154 C 
BRANCH  23  24
HETATM   24  N1  UNL     1      30.929  61.878   5.471  1.00  0.00    -0.350 N 
HETATM   25  C20 UNL     1      30.486  61.290   4.344  1.00  0.00     0.108 A 
HETATM   26  C21 UNL     1      31.453  60.464   3.793  1.00  0.00     0.106 A 
HETATM   27  N2  UNL     1      32.497  60.568   4.619  1.00  0.00    -0.361 N 
HETATM   28  C22 UNL     1      32.180  61.408   5.612  1.00  0.00     0.182 A 
ATOM     29  H2  UNL     1      33.389  60.086   4.512  1.00  0.00     0.166 HD
ENDBRANCH  23  24
ENDBRANCH  21  23
BRANCH  21  30
HETATM   30  C23 UNL     1      30.171  62.904   8.556  1.00  0.00     0.187 C 
HETATM   31  O1  UNL     1      31.410  62.621   8.718  1.00  0.00    -0.647 OA
HETATM   32  O2  UNL     1      29.680  63.821   9.470  1.00  0.00    -0.647 OA
ENDBRANCH  21  30
ENDBRANCH   8  21
TORSDOF 6
ENDMDL
MODEL 2
REMARK VINA RESULT: -6.814245269      2.040      3.073
REMARK  6 active torsions:
REMARK  status: ('A' for Active; 'I' for Inactive)
REMARK    1  A    between atoms: C4_4  and  C6_6 
REMARK    2  A    between atoms: C8_10  and  C9_11 
REMARK    3  A    between atoms: C16_18  and  C17_19 
REMARK    4  A    between atoms: C17_19  and  C19_21 
REMARK    5  A    between atoms: C17_19  and  C23_28 
REMARK    6  A    between atoms: C19_21  and  N1_22 
ROOT
HETATM    1  C9  UNL     1      26.704  62.215   8.021  1.00  0.00    -0.014 C 
HETATM    2  C10 UNL     1      27.137  62.106   9.531  1.00  0.00     0.020 C 
HETATM    3  C11 UNL     1      25.459  63.081   8.299  1.00  0.00     0.014 C 
HETATM    4  C12 UNL     1      25.775  64.547   8.424  1.00  0.00     0.005 C 
HETATM    5  C13 UNL     1      26.117  64.815   6.966  1.00  0.00     0.034 C 
HETATM    6  C14 UNL     1      27.493  64.227   6.964  1.00  0.00    -0.079 C 
HETATM    7  C15 UNL     1      28.445  65.269   6.467  1.00  0.00     0.043 C 
HETATM    8  C16 UNL     1      27.794  62.989   7.452  1.00  0.00    -0.049 C 
ENDROOT
BRANCH   1   9
HETATM    9  C8  UNL     1      26.146  60.889   7.693  1.00  0.00     0.016 C 
HETATM   10  C4  UNL     1      25.783  60.319   6.401  1.00  0.00     0.044 C 
HETATM   11  C3  UNL     1      25.304  58.912   6.593  1.00  0.00    -0.009 C 
HETATM   12  C5  UNL     1      24.402  60.895   5.840  1.00  0.00     0.026 C 
HETATM   13  C2  UNL     1      25.713  58.029   7.466  1.00  0.00    -0.087 C 
HETATM   14  C1  UNL     1      25.192  56.645   7.598  1.00  0.00     0.043 C 
HETATM   15  C25 UNL     1      26.750  58.481   8.377  1.00  0.00     0.034 C 
HETATM   16  C24 UNL     1      26.318  59.865   8.834  1.00  0.00     0.011 C 
BRANCH  10  17
HETATM   17  C6  UNL     1      26.562  60.240   5.160  1.00  0.00     0.251 C 
HETATM   18  C7  UNL     1      27.563  59.216   4.892  1.00  0.00     0.091 C 
HETATM   19  F1  UNL     1      25.653  60.070   4.056  1.00  0.00    -0.206 F 
HETATM   20  F2  UNL     1      27.110  61.456   4.765  1.00  0.00    -0.206 F 
ENDBRANCH  10  17
ENDBRANCH   1   9
BRANCH   8  21
HETATM   21  C17 UNL     1      29.251  62.762   7.303  1.00  0.00     0.085 C 
HETATM   22  C18 UNL     1      29.981  63.814   6.539  1.00  0.00     0.033 C 
BRANCH  21  23
HETATM   23  C19 UNL     1      30.023  62.746   8.633  1.00  0.00     0.154 C 
BRANCH  23  24
HETATM   24  N1  UNL     1      30.308  64.008   9.224  1.00  0.00    -0.350 N 
HETATM   25  C20 UNL     1      29.544  64.840   9.957  1.00  0.00     0.108 A 
HETATM   26  C21 UNL     1      30.260  65.953  10.367  1.00  0.00     0.106 A 
HETATM   27  N2  UNL     1      31.482  65.774   9.861  1.00  0.00    -0.361 N 
HETATM   28  C22 UNL     1      31.505  64.619   9.184  1.00  0.00     0.182 A 
ATOM     29  H2  UNL     1      32.270  66.413   9.970  1.00  0.00     0.166 HD
ENDBRANCH  23  24
ENDBRANCH  21  23
BRANCH  21  30
HETATM   30  C23 UNL     1      29.696  61.434   6.874  1.00  0.00     0.187 C 
HETATM   31  O1  UNL     1      30.174  61.298   5.694  1.00  0.00    -0.647 OA
HETATM   32  O2  UNL     1      29.658  60.259   7.604  1.00  0.00    -0.647 OA
ENDBRANCH  21  30
ENDBRANCH   8  21
TORSDOF 6
ENDMDL
MODEL 3
REMARK VINA RESULT: -6.446937550      2.610      5.029
REMARK  6 active torsions:
REMARK  status: ('A' for Active; 'I' for Inactive)
REMARK    1  A    between atoms: C4_4  and  C6_6 
REMARK    2  A    between atoms: C8_10  and  C9_11 
REMARK    3  A    between atoms: C16_18  and  C17_19 
REMARK    4  A    between atoms: C17_19  and  C19_21 
REMARK    5  A    between atoms: C17_19  and  C23_28 
REMARK    6  A    between atoms: C19_21  and  N1_22 
ROOT
HETATM    1  C9  UNL     1      28.399  62.484   5.080  1.00  0.00    -0.014 C 
HETATM    2  C10 UNL     1      27.748  63.564   4.137  1.00  0.00     0.020 C 
HETATM    3  C11 UNL     1      29.772  63.182   5.157  1.00  0.00     0.014 C 
HETATM    4  C12 UNL     1      29.823  64.272   6.194  1.00  0.00     0.005 C 
HETATM    5  C13 UNL     1      29.765  63.391   7.432  1.00  0.00     0.034 C 
HETATM    6  C14 UNL     1      28.299  63.091   7.406  1.00  0.00    -0.079 C 
HETATM    7  C15 UNL     1      27.719  63.481   8.730  1.00  0.00     0.043 C 
HETATM    8  C16 UNL     1      27.630  62.651   6.302  1.00  0.00    -0.049 C 
ENDROOT
BRANCH   1   9
HETATM    9  C8  UNL     1      28.644  61.320   4.208  1.00  0.00     0.016 C 
HETATM   10  C4  UNL     1      29.488  60.150   4.421  1.00  0.00     0.044 C 
HETATM   11  C3  UNL     1      29.357  59.220   3.253  1.00  0.00    -0.009 C 
HETATM   12  C5  UNL     1      31.041  60.466   4.215  1.00  0.00     0.026 C 
HETATM   13  C2  UNL     1      28.301  58.985   2.519  1.00  0.00    -0.087 C 
HETATM   14  C1  UNL     1      28.243  58.044   1.372  1.00  0.00     0.043 C 
HETATM   15  C25 UNL     1      27.111  59.739   2.872  1.00  0.00     0.034 C 
HETATM   16  C24 UNL     1      27.583  61.167   3.098  1.00  0.00     0.011 C 
BRANCH  10  17
HETATM   17  C6  UNL     1      29.551  59.238   5.568  1.00  0.00     0.251 C 
HETATM   18  C7  UNL     1      29.965  59.641   6.906  1.00  0.00     0.091 C 
HETATM   19  F1  UNL     1      28.234  58.705   5.808  1.00  0.00    -0.206 F 
HETATM   20  F2  UNL     1      30.192  58.035   5.292  1.00  0.00    -0.206 F 
ENDBRANCH  10  17
ENDBRANCH   1   9
BRANCH   8  21
HETATM   21  C17 UNL     1      26.198  62.489   6.648  1.00  0.00     0.085 C 
HETATM   22  C18 UNL     1      25.433  61.564   5.764  1.00  0.00     0.033 C 
BRANCH  21  23
HETATM   23  C19 UNL     1      25.955  61.873   8.036  1.00  0.00     0.154 C 
BRANCH  23  24
HETATM   24  N1  UNL     1      26.066  60.457   8.138  1.00  0.00    -0.350 N 
HETATM   25  C20 UNL     1      25.392  59.466   7.524  1.00  0.00     0.108 A 
HETATM   26  C21 UNL     1      25.873  58.222   7.900  1.00  0.00     0.106 A 
HETATM   27  N2  UNL     1      26.858  58.486   8.761  1.00  0.00    -0.361 N 
HETATM   28  C22 UNL     1      26.968  59.814   8.898  1.00  0.00     0.182 A 
ATOM     29  H2  UNL     1      27.433  57.791   9.237  1.00  0.00     0.166 HD
ENDBRANCH  23  24
ENDBRANCH  21  23
BRANCH  21  30
HETATM   30  C23 UNL     1      25.414  63.700   6.901  1.00  0.00     0.187 C 
HETATM   31  O1  UNL     1      24.542  63.683   7.838  1.00  0.00    -0.647 OA
HETATM   32  O2  UNL     1      25.491  64.907   6.227  1.00  0.00    -0.647 OA
ENDBRANCH  21  30
ENDBRANCH   8  21
TORSDOF 6
ENDMDL
MODEL 4
REMARK VINA RESULT: -6.376144457      1.991      3.923
REMARK  6 active torsions:
REMARK  status: ('A' for Active; 'I' for Inactive)
REMARK    1  A    between atoms: C4_4  and  C6_6 
REMARK    2  A    between atoms: C8_10  and  C9_11 
REMARK    3  A    between atoms: C16_18  and  C17_19 
REMARK    4  A    between atoms: C17_19  and  C19_21 
REMARK    5  A    between atoms: C17_19  and  C23_28 
REMARK    6  A    between atoms: C19_21  and  N1_22 
ROOT
HETATM    1  C9  UNL     1      27.746  61.239   4.993  1.00  0.00    -0.014 C 
HETATM    2  C10 UNL     1      28.085  62.774   4.898  1.00  0.00     0.020 C 
HETATM    3  C11 UNL     1      26.641  61.279   3.917  1.00  0.00     0.014 C 
HETATM    4  C12 UNL     1      27.179  61.181   2.515  1.00  0.00     0.005 C 
HETATM    5  C13 UNL     1      27.627  59.729   2.559  1.00  0.00     0.034 C 
HETATM    6  C14 UNL     1      28.892  59.925   3.336  1.00  0.00    -0.079 C 
HETATM    7  C15 UNL     1      30.019  59.333   2.549  1.00  0.00     0.043 C 
HETATM    8  C16 UNL     1      28.971  60.631   4.500  1.00  0.00    -0.049 C 
ENDROOT
BRANCH   1   9
HETATM    9  C8  UNL     1      27.001  61.095   6.258  1.00  0.00     0.016 C 
HETATM   10  C4  UNL     1      26.139  60.013   6.719  1.00  0.00     0.044 C 
HETATM   11  C3  UNL     1      25.654  60.318   8.105  1.00  0.00    -0.009 C 
HETATM   12  C5  UNL     1      24.698  60.037   6.026  1.00  0.00     0.026 C 
HETATM   13  C2  UNL     1      26.287  60.937   9.066  1.00  0.00    -0.087 C 
HETATM   14  C1  UNL     1      25.743  61.203  10.422  1.00  0.00     0.043 C 
HETATM   15  C25 UNL     1      27.621  61.407   8.738  1.00  0.00     0.034 C 
HETATM   16  C24 UNL     1      27.504  62.047   7.363  1.00  0.00     0.011 C 
BRANCH  10  17
HETATM   17  C6  UNL     1      26.389  58.569   6.763  1.00  0.00     0.251 C 
HETATM   18  C7  UNL     1      25.372  57.576   7.083  1.00  0.00     0.091 C 
HETATM   19  F1  UNL     1      26.832  58.138   5.461  1.00  0.00    -0.206 F 
HETATM   20  F2  UNL     1      27.533  58.221   7.474  1.00  0.00    -0.206 F 
ENDBRANCH  10  17
ENDBRANCH   1   9
BRANCH   8  21
HETATM   21  C17 UNL     1      30.379  60.629   4.962  1.00  0.00     0.085 C 
HETATM   22  C18 UNL     1      31.385  61.005   3.929  1.00  0.00     0.033 C 
BRANCH  21  23
HETATM   23  C19 UNL     1      30.674  61.645   6.077  1.00  0.00     0.154 C 
BRANCH  23  24
HETATM   24  N1  UNL     1      31.786  62.512   5.876  1.00  0.00    -0.350 N 
HETATM   25  C20 UNL     1      31.886  63.696   5.244  1.00  0.00     0.108 A 
HETATM   26  C21 UNL     1      33.170  64.210   5.338  1.00  0.00     0.106 A 
HETATM   27  N2  UNL     1      33.847  63.302   6.045  1.00  0.00    -0.361 N 
HETATM   28  C22 UNL     1      33.021  62.297   6.362  1.00  0.00     0.182 A 
ATOM     29  H2  UNL     1      34.832  63.363   6.301  1.00  0.00     0.166 HD
ENDBRANCH  23  24
ENDBRANCH  21  23
BRANCH  21  30
HETATM   30  C23 UNL     1      30.848  59.464   5.715  1.00  0.00     0.187 C 
HETATM   31  O1  UNL     1      30.323  59.218   6.857  1.00  0.00    -0.647 OA
HETATM   32  O2  UNL     1      31.830  58.561   5.342  1.00  0.00    -0.647 OA
ENDBRANCH  21  30
ENDBRANCH   8  21
TORSDOF 6
ENDMDL
MODEL 5
REMARK VINA RESULT: -6.330906811      1.742      3.637
REMARK  6 active torsions:
REMARK  status: ('A' for Active; 'I' for Inactive)
REMARK    1  A    between atoms: C4_4  and  C6_6 
REMARK    2  A    between atoms: C8_10  and  C9_11 
REMARK    3  A    between atoms: C16_18  and  C17_19 
REMARK    4  A    between atoms: C17_19  and  C19_21 
REMARK    5  A    between atoms: C17_19  and  C23_28 
REMARK    6  A    between atoms: C19_21  and  N1_22 
ROOT
HETATM    1  C9  UNL     1      27.466  61.311   5.280  1.00  0.00    -0.014 C 
HETATM    2  C10 UNL     1      28.032  62.773   5.417  1.00  0.00     0.020 C 
HETATM    3  C11 UNL     1      26.276  61.710   4.384  1.00  0.00     0.014 C 
HETATM    4  C12 UNL     1      26.644  61.817   2.928  1.00  0.00     0.005 C 
HETATM    5  C13 UNL     1      26.859  60.337   2.653  1.00  0.00     0.034 C 
HETATM    6  C14 UNL     1      28.212  60.203   3.279  1.00  0.00    -0.079 C 
HETATM    7  C15 UNL     1      29.144  59.630   2.258  1.00  0.00     0.043 C 
HETATM    8  C16 UNL     1      28.521  60.650   4.530  1.00  0.00    -0.049 C 
ENDROOT
BRANCH   1   9
HETATM    9  C8  UNL     1      26.843  61.024   6.586  1.00  0.00     0.016 C 
HETATM   10  C4  UNL     1      26.342  59.767   7.129  1.00  0.00     0.044 C 
HETATM   11  C3  UNL     1      25.845  59.989   8.526  1.00  0.00    -0.009 C 
HETATM   12  C5  UNL     1      24.929  59.348   6.511  1.00  0.00     0.026 C 
HETATM   13  C2  UNL     1      26.313  60.808   9.431  1.00  0.00    -0.087 C 
HETATM   14  C1  UNL     1      25.769  60.976  10.802  1.00  0.00     0.043 C 
HETATM   15  C25 UNL     1      27.444  61.620   9.018  1.00  0.00     0.034 C 
HETATM   16  C24 UNL     1      27.097  62.132   7.629  1.00  0.00     0.011 C 
BRANCH  10  17
HETATM   17  C6  UNL     1      26.995  58.456   7.212  1.00  0.00     0.251 C 
HETATM   18  C7  UNL     1      26.284  57.207   7.453  1.00  0.00     0.091 C 
HETATM   19  F1  UNL     1      27.655  58.190   5.960  1.00  0.00    -0.206 F 
HETATM   20  F2  UNL     1      28.123  58.443   8.025  1.00  0.00    -0.206 F 
ENDBRANCH  10  17
ENDBRANCH   1   9
BRANCH   8  21
HETATM   21  C17 UNL     1      29.951  60.366   4.795  1.00  0.00     0.085 C 
HETATM   22  C18 UNL     1      30.546  59.282   3.962  1.00  0.00     0.033 C 
BRANCH  21  23
HETATM   23  C19 UNL     1      30.891  61.546   4.497  1.00  0.00     0.154 C 
BRANCH  23  24
HETATM   24  N1  UNL     1      32.223  61.223   4.113  1.00  0.00    -0.350 N 
HETATM   25  C20 UNL     1      33.279  60.801   4.835  1.00  0.00     0.108 A 
HETATM   26  C21 UNL     1      34.380  60.565   4.026  1.00  0.00     0.106 A 
HETATM   27  N2  UNL     1      33.963  60.857   2.792  1.00  0.00    -0.361 N 
HETATM   28  C22 UNL     1      32.683  61.247   2.850  1.00  0.00     0.182 A 
ATOM     29  H2  UNL     1      34.526  60.795   1.945  1.00  0.00     0.166 HD
ENDBRANCH  23  24
ENDBRANCH  21  23
BRANCH  21  30
HETATM   30  C23 UNL     1      30.370  60.211   6.189  1.00  0.00     0.187 C 
HETATM   31  O1  UNL     1      30.694  59.044   6.607  1.00  0.00    -0.647 OA
HETATM   32  O2  UNL     1      30.459  61.198   7.155  1.00  0.00    -0.647 OA
ENDBRANCH  21  30
ENDBRANCH   8  21
TORSDOF 6
ENDMDL
