MODEL 1
REMARK VINA RESULT: -9.835414197      0.000      0.000
REMARK  14 active torsions:
REMARK  status: ('A' for Active; 'I' for Inactive)
REMARK    1  A    between atoms: C2_2  and  C4_4 
REMARK    2  A    between atoms: C4_4  and  C5_5 
REMARK    3  A    between atoms: C5_5  and  N1_6 
REMARK    4  A    between atoms: C5_5  and  C6_10 
REMARK    5  A    between atoms: C6_10  and  C7_12 
REMARK    6  A    between atoms: C7_12  and  C8_13 
REMARK    7  A    between atoms: C7_12  and  C26_35 
REMARK    8  A    between atoms: C8_13  and  N2_14 
REMARK    9  A    between atoms: C11_17  and  C12_18 
REMARK   10  A    between atoms: C20_26  and  C21_27 
REMARK       I    between atoms: C21_27  and  N3_29 
REMARK   11  A    between atoms: N3_29  and  C22_31 
REMARK   12  A    between atoms: C26_35  and  O3_36 
REMARK   13  A    between atoms: C26_35  and  N4_38 
REMARK   14  A    between atoms: N5_41  and  N6_42 
ROOT
HETATM    1  C7  UNL     1       5.504  -3.238  15.352  1.00  0.00     0.078 C 
ENDROOT
BRANCH   1   2
HETATM    2  C6  UNL     1       4.739  -2.698  16.478  1.00  0.00     0.195 C 
HETATM    3  O1  UNL     1       5.064  -1.629  16.961  1.00  0.00    -0.290 OA
BRANCH   2   4
HETATM    4  C5  UNL     1       3.568  -3.350  17.104  1.00  0.00     0.258 C 
BRANCH   4   5
HETATM    5  C4  UNL     1       2.748  -4.171  16.201  1.00  0.00     0.045 C 
BRANCH   5   6
HETATM    6  C2  UNL     1       2.764  -5.617  16.607  1.00  0.00    -0.020 C 
HETATM    7  C1  UNL     1       3.427  -6.552  15.658  1.00  0.00     0.009 C 
HETATM    8  C3  UNL     1       3.424  -5.789  17.986  1.00  0.00     0.009 C 
ENDBRANCH   5   6
ENDBRANCH   4   5
BRANCH   4   9
HETATM    9  N1  UNL     1       2.749  -2.383  17.803  1.00  0.00    -0.068 N 
ATOM     10  H13 UNL     1       3.202  -1.470  17.852  1.00  0.00     0.275 HD
ATOM     11  H12 UNL     1       1.929  -2.119  17.258  1.00  0.00     0.275 HD
ATOM     12  H11 UNL     1       2.493  -2.728  18.729  1.00  0.00     0.275 HD
ENDBRANCH   4   9
ENDBRANCH   2   4
ENDBRANCH   1   2
BRANCH   1  13
HETATM   13  C8  UNL     1       5.224  -2.565  14.008  1.00  0.00     0.106 C 
BRANCH  13  14
HETATM   14  N2  UNL     1       4.379  -1.464  14.037  1.00  0.00    -0.376 N 
HETATM   15  C9  UNL     1       3.021  -1.694  13.667  1.00  0.00     0.123 C 
HETATM   16  C10 UNL     1       2.519  -0.993  12.448  1.00  0.00     0.025 C 
HETATM   17  C11 UNL     1       3.368   0.186  12.142  1.00  0.00    -0.006 C 
HETATM   18  C19 UNL     1       3.761   0.809  13.452  1.00  0.00     0.040 C 
HETATM   19  C20 UNL     1       4.776  -0.145  14.164  1.00  0.00     0.176 C 
BRANCH  17  20
HETATM   20  C12 UNL     1       2.738   1.235  11.274  1.00  0.00    -0.010 C 
HETATM   21  C13 UNL     1       1.369   0.785  10.836  1.00  0.00     0.005 C 
HETATM   22  C14 UNL     1       0.247   1.548  11.466  1.00  0.00     0.000 C 
HETATM   23  C15 UNL     1       0.139   2.974  11.033  1.00  0.00     0.000 C 
HETATM   24  C16 UNL     1       1.209   3.402  10.054  1.00  0.00     0.000 C 
HETATM   25  C17 UNL     1       2.555   3.573  10.682  1.00  0.00     0.000 C 
HETATM   26  C18 UNL     1       2.732   2.607  11.864  1.00  0.00     0.005 C 
ENDBRANCH  17  20
BRANCH  19  27
HETATM   27  C21 UNL     1       6.049   0.317  13.635  1.00  0.00     0.241 C 
HETATM   28  O2  UNL     1       7.079  -0.351  13.648  1.00  0.00    -0.271 OA
HETATM   29  N3  UNL     1       6.113   1.617  13.067  1.00  0.00    -0.351 N 
ATOM     30  H3  UNL     1       5.264   2.181  13.048  1.00  0.00     0.163 HD
BRANCH  29  31
HETATM   31  C22 UNL     1       7.320   2.179  12.515  1.00  0.00     0.022 C 
HETATM   32  C23 UNL     1       7.049   3.605  12.018  1.00  0.00     0.037 C 
HETATM   33  C24 UNL     1       8.346   2.306  13.611  1.00  0.00     0.037 C 
HETATM   34  C25 UNL     1       7.839   1.376  11.345  1.00  0.00     0.037 C 
ENDBRANCH  29  31
ENDBRANCH  19  27
ENDBRANCH  13  14
ENDBRANCH   1  13
BRANCH   1  35
HETATM   35  C26 UNL     1       6.922  -3.517  15.586  1.00  0.00     0.153 C 
BRANCH  35  36
HETATM   36  O3  UNL     1       7.751  -2.579  15.209  1.00  0.00    -0.345 OA
ATOM     37  H3  UNL     1       8.529  -2.879  14.754  1.00  0.00     0.219 HD
ENDBRANCH  35  36
BRANCH  35  38
HETATM   38  N4  UNL     1       7.520  -4.656  16.164  1.00  0.00    -0.358 N 
HETATM   39  C27 UNL     1       6.776  -5.660  16.828  1.00  0.00     0.141 C 
HETATM   40  C28 UNL     1       7.384  -6.089  18.141  1.00  0.00     0.134 C 
HETATM   41  N5  UNL     1       8.796  -5.822  18.205  1.00  0.00    -0.226 NA
HETATM   42  C29 UNL     1       9.453  -5.883  16.942  1.00  0.00     0.041 C 
HETATM   43  C30 UNL     1       9.277  -7.245  16.322  1.00  0.00     0.035 C 
HETATM   44  C31 UNL     1      10.949  -5.721  17.226  1.00  0.00     0.035 C 
HETATM   45  C32 UNL     1       8.991  -4.778  16.066  1.00  0.00     0.151 C 
BRANCH  41  46
HETATM   46  N6  UNL     1       9.409  -6.619  19.174  1.00  0.00    -0.362 NA
ATOM     47  H62 UNL     1       8.741  -7.161  19.722  1.00  0.00     0.171 HD
ATOM     48  H61 UNL     1      10.057  -6.070  19.738  1.00  0.00     0.171 HD
ENDBRANCH  41  46
ENDBRANCH  35  38
ENDBRANCH   1  35
TORSDOF 14
ENDMDL
MODEL 2
REMARK VINA RESULT: -9.767891141      1.103      1.271
REMARK  14 active torsions:
REMARK  status: ('A' for Active; 'I' for Inactive)
REMARK    1  A    between atoms: C2_2  and  C4_4 
REMARK    2  A    between atoms: C4_4  and  C5_5 
REMARK    3  A    between atoms: C5_5  and  N1_6 
REMARK    4  A    between atoms: C5_5  and  C6_10 
REMARK    5  A    between atoms: C6_10  and  C7_12 
REMARK    6  A    between atoms: C7_12  and  C8_13 
REMARK    7  A    between atoms: C7_12  and  C26_35 
REMARK    8  A    between atoms: C8_13  and  N2_14 
REMARK    9  A    between atoms: C11_17  and  C12_18 
REMARK   10  A    between atoms: C20_26  and  C21_27 
REMARK       I    between atoms: C21_27  and  N3_29 
REMARK   11  A    between atoms: N3_29  and  C22_31 
REMARK   12  A    between atoms: C26_35  and  O3_36 
REMARK   13  A    between atoms: C26_35  and  N4_38 
REMARK   14  A    between atoms: N5_41  and  N6_42 
ROOT
HETATM    1  C7  UNL     1       4.781  -3.770  15.329  1.00  0.00     0.078 C 
ENDROOT
BRANCH   1   2
HETATM    2  C6  UNL     1       3.464  -3.858  15.964  1.00  0.00     0.195 C 
HETATM    3  O1  UNL     1       3.067  -2.931  16.646  1.00  0.00    -0.290 OA
BRANCH   2   4
HETATM    4  C5  UNL     1       2.537  -5.006  15.849  1.00  0.00     0.258 C 
BRANCH   4   5
HETATM    5  C4  UNL     1       3.151  -6.330  16.029  1.00  0.00     0.045 C 
BRANCH   5   6
HETATM    6  C2  UNL     1       2.777  -6.932  17.353  1.00  0.00    -0.020 C 
HETATM    7  C1  UNL     1       3.094  -8.377  17.524  1.00  0.00     0.009 C 
HETATM    8  C3  UNL     1       3.433  -6.160  18.510  1.00  0.00     0.009 C 
ENDBRANCH   5   6
ENDBRANCH   4   5
BRANCH   4   9
HETATM    9  N1  UNL     1       1.794  -4.950  14.609  1.00  0.00    -0.068 N 
ATOM     10  H13 UNL     1       2.396  -4.726  13.817  1.00  0.00     0.275 HD
ATOM     11  H12 UNL     1       1.487  -5.876  14.310  1.00  0.00     0.275 HD
ATOM     12  H11 UNL     1       1.012  -4.300  14.685  1.00  0.00     0.275 HD
ENDBRANCH   4   9
ENDBRANCH   2   4
ENDBRANCH   1   2
BRANCH   1  13
HETATM   13  C8  UNL     1       4.832  -2.882  14.086  1.00  0.00     0.106 C 
BRANCH  13  14
HETATM   14  N2  UNL     1       4.045  -1.740  14.113  1.00  0.00    -0.376 N 
HETATM   15  C9  UNL     1       2.738  -1.853  13.551  1.00  0.00     0.123 C 
HETATM   16  C10 UNL     1       2.438  -1.016  12.352  1.00  0.00     0.025 C 
HETATM   17  C11 UNL     1       3.376   0.133  12.275  1.00  0.00    -0.006 C 
HETATM   18  C19 UNL     1       3.619   0.610  13.678  1.00  0.00     0.040 C 
HETATM   19  C20 UNL     1       4.484  -0.464  14.418  1.00  0.00     0.176 C 
BRANCH  17  20
HETATM   20  C12 UNL     1       2.917   1.293  11.439  1.00  0.00    -0.010 C 
HETATM   21  C13 UNL     1       1.544   1.016  10.886  1.00  0.00     0.005 C 
HETATM   22  C14 UNL     1       0.464   1.855  11.493  1.00  0.00     0.000 C 
HETATM   23  C15 UNL     1       0.532   3.307  11.149  1.00  0.00     0.000 C 
HETATM   24  C16 UNL     1       1.706   3.677  10.271  1.00  0.00     0.000 C 
HETATM   25  C17 UNL     1       3.015   3.667  10.993  1.00  0.00     0.000 C 
HETATM   26  C18 UNL     1       3.010   2.620  12.117  1.00  0.00     0.005 C 
ENDBRANCH  17  20
BRANCH  19  27
HETATM   27  C21 UNL     1       5.836  -0.033  14.105  1.00  0.00     0.241 C 
HETATM   28  O2  UNL     1       6.847  -0.599  14.513  1.00  0.00    -0.271 OA
HETATM   29  N3  UNL     1       6.008   1.108  13.276  1.00  0.00    -0.351 N 
ATOM     30  H3  UNL     1       5.176   1.585  12.928  1.00  0.00     0.163 HD
BRANCH  29  31
HETATM   31  C22 UNL     1       7.300   1.625  12.903  1.00  0.00     0.022 C 
HETATM   32  C23 UNL     1       7.128   2.929  12.112  1.00  0.00     0.037 C 
HETATM   33  C24 UNL     1       8.061   1.989  14.151  1.00  0.00     0.037 C 
HETATM   34  C25 UNL     1       8.070   0.659  12.033  1.00  0.00     0.037 C 
ENDBRANCH  29  31
ENDBRANCH  19  27
ENDBRANCH  13  14
ENDBRANCH   1  13
BRANCH   1  35
HETATM   35  C26 UNL     1       5.934  -3.609  16.216  1.00  0.00     0.153 C 
BRANCH  35  36
HETATM   36  O3  UNL     1       6.035  -2.446  16.805  1.00  0.00    -0.345 OA
ATOM     37  H3  UNL     1       6.528  -1.788  16.329  1.00  0.00     0.219 HD
ENDBRANCH  35  36
BRANCH  35  38
HETATM   38  N4  UNL     1       6.953  -4.533  16.526  1.00  0.00    -0.358 N 
HETATM   39  C27 UNL     1       6.684  -5.855  16.955  1.00  0.00     0.141 C 
HETATM   40  C28 UNL     1       7.517  -6.283  18.139  1.00  0.00     0.134 C 
HETATM   41  N5  UNL     1       8.735  -5.527  18.256  1.00  0.00    -0.226 NA
HETATM   42  C29 UNL     1       9.259  -5.079  17.008  1.00  0.00     0.041 C 
HETATM   43  C30 UNL     1       9.538  -6.252  16.104  1.00  0.00     0.035 C 
HETATM   44  C31 UNL     1      10.612  -4.432  17.317  1.00  0.00     0.035 C 
HETATM   45  C32 UNL     1       8.353  -4.074  16.400  1.00  0.00     0.151 C 
BRANCH  41  46
HETATM   46  N6  UNL     1       9.676  -6.216  19.023  1.00  0.00    -0.362 NA
ATOM     47  H62 UNL     1       9.364  -6.379  19.980  1.00  0.00     0.171 HD
ATOM     48  H61 UNL     1      10.592  -5.773  18.958  1.00  0.00     0.171 HD
ENDBRANCH  41  46
ENDBRANCH  35  38
ENDBRANCH   1  35
TORSDOF 14
ENDMDL
MODEL 3
REMARK VINA RESULT: -9.750930630      0.974      1.409
REMARK  14 active torsions:
REMARK  status: ('A' for Active; 'I' for Inactive)
REMARK    1  A    between atoms: C2_2  and  C4_4 
REMARK    2  A    between atoms: C4_4  and  C5_5 
REMARK    3  A    between atoms: C5_5  and  N1_6 
REMARK    4  A    between atoms: C5_5  and  C6_10 
REMARK    5  A    between atoms: C6_10  and  C7_12 
REMARK    6  A    between atoms: C7_12  and  C8_13 
REMARK    7  A    between atoms: C7_12  and  C26_35 
REMARK    8  A    between atoms: C8_13  and  N2_14 
REMARK    9  A    between atoms: C11_17  and  C12_18 
REMARK   10  A    between atoms: C20_26  and  C21_27 
REMARK       I    between atoms: C21_27  and  N3_29 
REMARK   11  A    between atoms: N3_29  and  C22_31 
REMARK   12  A    between atoms: C26_35  and  O3_36 
REMARK   13  A    between atoms: C26_35  and  N4_38 
REMARK   14  A    between atoms: N5_41  and  N6_42 
ROOT
HETATM    1  C7  UNL     1       5.842  -2.837  15.426  1.00  0.00     0.078 C 
ENDROOT
BRANCH   1   2
HETATM    2  C6  UNL     1       4.949  -2.432  16.513  1.00  0.00     0.195 C 
HETATM    3  O1  UNL     1       5.103  -1.345  17.039  1.00  0.00    -0.290 OA
BRANCH   2   4
HETATM    4  C5  UNL     1       3.836  -3.247  17.051  1.00  0.00     0.258 C 
BRANCH   4   5
HETATM    5  C4  UNL     1       3.202  -4.159  16.087  1.00  0.00     0.045 C 
BRANCH   5   6
HETATM    6  C2  UNL     1       3.147  -5.563  16.616  1.00  0.00    -0.020 C 
HETATM    7  C1  UNL     1       3.310  -6.646  15.607  1.00  0.00     0.009 C 
HETATM    8  C3  UNL     1       4.202  -5.775  17.715  1.00  0.00     0.009 C 
ENDBRANCH   5   6
ENDBRANCH   4   5
BRANCH   4   9
HETATM    9  N1  UNL     1       2.845  -2.410  17.694  1.00  0.00    -0.068 N 
ATOM     10  H13 UNL     1       1.959  -2.418  17.188  1.00  0.00     0.275 HD
ATOM     11  H12 UNL     1       2.524  -2.813  18.573  1.00  0.00     0.275 HD
ATOM     12  H11 UNL     1       3.199  -1.462  17.819  1.00  0.00     0.275 HD
ENDBRANCH   4   9
ENDBRANCH   2   4
ENDBRANCH   1   2
BRANCH   1  13
HETATM   13  C8  UNL     1       5.498  -2.241  14.061  1.00  0.00     0.106 C 
BRANCH  13  14
HETATM   14  N2  UNL     1       4.586  -1.195  14.060  1.00  0.00    -0.376 N 
HETATM   15  C9  UNL     1       3.233  -1.529  13.753  1.00  0.00     0.123 C 
HETATM   16  C10 UNL     1       2.648  -0.932  12.517  1.00  0.00     0.025 C 
HETATM   17  C11 UNL     1       3.409   0.278  12.115  1.00  0.00    -0.006 C 
HETATM   18  C19 UNL     1       3.804   0.998  13.373  1.00  0.00     0.040 C 
HETATM   19  C20 UNL     1       4.901   0.152  14.099  1.00  0.00     0.176 C 
BRANCH  17  20
HETATM   20  C12 UNL     1       2.684   1.234  11.214  1.00  0.00    -0.010 C 
HETATM   21  C13 UNL     1       1.296   0.722  10.932  1.00  0.00     0.005 C 
HETATM   22  C14 UNL     1       0.210   1.519  11.585  1.00  0.00     0.000 C 
HETATM   23  C15 UNL     1       0.031   2.898  11.039  1.00  0.00     0.000 C 
HETATM   24  C16 UNL     1       1.007   3.256   9.941  1.00  0.00     0.000 C 
HETATM   25  C17 UNL     1       2.395   3.506  10.437  1.00  0.00     0.000 C 
HETATM   26  C18 UNL     1       2.692   2.653  11.680  1.00  0.00     0.005 C 
ENDBRANCH  17  20
BRANCH  19  27
HETATM   27  C21 UNL     1       6.123   0.660  13.499  1.00  0.00     0.241 C 
HETATM   28  O2  UNL     1       7.143   0.918  14.134  1.00  0.00    -0.271 OA
HETATM   29  N3  UNL     1       6.150   0.874  12.095  1.00  0.00    -0.351 N 
ATOM     30  H3  UNL     1       5.311   0.661  11.556  1.00  0.00     0.163 HD
BRANCH  29  31
HETATM   31  C22 UNL     1       7.304   1.377  11.394  1.00  0.00     0.022 C 
HETATM   32  C23 UNL     1       6.976   1.540   9.904  1.00  0.00     0.037 C 
HETATM   33  C24 UNL     1       7.625   2.756  11.906  1.00  0.00     0.037 C 
HETATM   34  C25 UNL     1       8.488   0.444  11.504  1.00  0.00     0.037 C 
ENDBRANCH  29  31
ENDBRANCH  19  27
ENDBRANCH  13  14
ENDBRANCH   1  13
BRANCH   1  35
HETATM   35  C26 UNL     1       7.277  -2.851  15.718  1.00  0.00     0.153 C 
BRANCH  35  36
HETATM   36  O3  UNL     1       7.869  -1.686  15.695  1.00  0.00    -0.345 OA
ATOM     37  H3  UNL     1       8.127  -1.341  16.541  1.00  0.00     0.219 HD
ENDBRANCH  35  36
BRANCH  35  38
HETATM   38  N4  UNL     1       8.111  -3.946  16.021  1.00  0.00    -0.358 N 
HETATM   39  C27 UNL     1       9.099  -4.428  15.131  1.00  0.00     0.141 C 
HETATM   40  C28 UNL     1       9.106  -5.932  14.997  1.00  0.00     0.134 C 
HETATM   41  N5  UNL     1       8.522  -6.587  16.137  1.00  0.00    -0.226 NA
HETATM   42  C29 UNL     1       8.690  -5.875  17.360  1.00  0.00     0.041 C 
HETATM   43  C30 UNL     1      10.155  -5.671  17.654  1.00  0.00     0.035 C 
HETATM   44  C31 UNL     1       8.144  -6.784  18.465  1.00  0.00     0.035 C 
HETATM   45  C32 UNL     1       7.919  -4.608  17.330  1.00  0.00     0.151 C 
BRANCH  41  46
HETATM   46  N6  UNL     1       8.948  -7.914  16.219  1.00  0.00    -0.362 NA
ATOM     47  H62 UNL     1       8.275  -8.518  16.691  1.00  0.00     0.171 HD
ATOM     48  H61 UNL     1       9.892  -7.969  16.602  1.00  0.00     0.171 HD
ENDBRANCH  41  46
ENDBRANCH  35  38
ENDBRANCH   1  35
TORSDOF 14
ENDMDL
MODEL 4
REMARK VINA RESULT: -9.595901976      1.742      3.771
REMARK  14 active torsions:
REMARK  status: ('A' for Active; 'I' for Inactive)
REMARK    1  A    between atoms: C2_2  and  C4_4 
REMARK    2  A    between atoms: C4_4  and  C5_5 
REMARK    3  A    between atoms: C5_5  and  N1_6 
REMARK    4  A    between atoms: C5_5  and  C6_10 
REMARK    5  A    between atoms: C6_10  and  C7_12 
REMARK    6  A    between atoms: C7_12  and  C8_13 
REMARK    7  A    between atoms: C7_12  and  C26_35 
REMARK    8  A    between atoms: C8_13  and  N2_14 
REMARK    9  A    between atoms: C11_17  and  C12_18 
REMARK   10  A    between atoms: C20_26  and  C21_27 
REMARK       I    between atoms: C21_27  and  N3_29 
REMARK   11  A    between atoms: N3_29  and  C22_31 
REMARK   12  A    between atoms: C26_35  and  O3_36 
REMARK   13  A    between atoms: C26_35  and  N4_38 
REMARK   14  A    between atoms: N5_41  and  N6_42 
ROOT
HETATM    1  C7  UNL     1       5.398  -2.118  15.430  1.00  0.00     0.078 C 
ENDROOT
BRANCH   1   2
HETATM    2  C6  UNL     1       3.995  -2.448  15.686  1.00  0.00     0.195 C 
HETATM    3  O1  UNL     1       3.141  -2.071  14.903  1.00  0.00    -0.290 OA
BRANCH   2   4
HETATM    4  C5  UNL     1       3.497  -3.225  16.843  1.00  0.00     0.258 C 
BRANCH   4   5
HETATM    5  C4  UNL     1       2.487  -4.245  16.527  1.00  0.00     0.045 C 
BRANCH   5   6
HETATM    6  C2  UNL     1       3.039  -5.297  15.609  1.00  0.00    -0.020 C 
HETATM    7  C1  UNL     1       3.137  -6.670  16.176  1.00  0.00     0.009 C 
HETATM    8  C3  UNL     1       2.218  -5.375  14.311  1.00  0.00     0.009 C 
ENDBRANCH   5   6
ENDBRANCH   4   5
BRANCH   4   9
HETATM    9  N1  UNL     1       3.028  -2.346  17.893  1.00  0.00    -0.068 N 
ATOM     10  H13 UNL     1       3.060  -1.367  17.609  1.00  0.00     0.275 HD
ATOM     11  H12 UNL     1       2.021  -2.431  18.035  1.00  0.00     0.275 HD
ATOM     12  H11 UNL     1       3.546  -2.506  18.757  1.00  0.00     0.275 HD
ENDBRANCH   4   9
ENDBRANCH   2   4
ENDBRANCH   1   2
BRANCH   1  13
HETATM   13  C8  UNL     1       5.629  -0.731  14.829  1.00  0.00     0.106 C 
BRANCH  13  14
HETATM   14  N2  UNL     1       6.057  -0.697  13.509  1.00  0.00    -0.376 N 
HETATM   15  C9  UNL     1       7.467  -0.715  13.296  1.00  0.00     0.123 C 
HETATM   16  C10 UNL     1       8.073   0.483  12.645  1.00  0.00     0.025 C 
HETATM   17  C11 UNL     1       7.040   1.244  11.897  1.00  0.00    -0.006 C 
HETATM   18  C19 UNL     1       6.110   0.243  11.272  1.00  0.00     0.040 C 
HETATM   19  C20 UNL     1       5.264  -0.417  12.411  1.00  0.00     0.176 C 
BRANCH  17  20
HETATM   20  C12 UNL     1       7.556   2.162  10.827  1.00  0.00    -0.010 C 
HETATM   21  C13 UNL     1       6.983   1.768   9.492  1.00  0.00     0.005 C 
HETATM   22  C14 UNL     1       5.985   2.740   8.946  1.00  0.00     0.000 C 
HETATM   23  C15 UNL     1       6.554   4.060   8.541  1.00  0.00     0.000 C 
HETATM   24  C16 UNL     1       8.041   4.190   8.785  1.00  0.00     0.000 C 
HETATM   25  C17 UNL     1       8.394   4.350  10.229  1.00  0.00     0.000 C 
HETATM   26  C18 UNL     1       7.383   3.616  11.123  1.00  0.00     0.005 C 
ENDBRANCH  17  20
BRANCH  19  27
HETATM   27  C21 UNL     1       4.128   0.485  12.507  1.00  0.00     0.241 C 
HETATM   28  O2  UNL     1       3.959   1.278  13.430  1.00  0.00    -0.271 OA
HETATM   29  N3  UNL     1       3.151   0.455  11.476  1.00  0.00    -0.351 N 
ATOM     30  H3  UNL     1       3.281  -0.198  10.703  1.00  0.00     0.163 HD
BRANCH  29  31
HETATM   31  C22 UNL     1       1.984   1.301  11.469  1.00  0.00     0.022 C 
HETATM   32  C23 UNL     1       1.170   1.051  10.192  1.00  0.00     0.037 C 
HETATM   33  C24 UNL     1       1.091   0.913  12.618  1.00  0.00     0.037 C 
HETATM   34  C25 UNL     1       2.345   2.768  11.503  1.00  0.00     0.037 C 
ENDBRANCH  29  31
ENDBRANCH  19  27
ENDBRANCH  13  14
ENDBRANCH   1  13
BRANCH   1  35
HETATM   35  C26 UNL     1       6.364  -2.477  16.470  1.00  0.00     0.153 C 
BRANCH  35  36
HETATM   36  O3  UNL     1       6.602  -1.552  17.363  1.00  0.00    -0.345 OA
ATOM     37  H3  UNL     1       7.405  -1.061  17.239  1.00  0.00     0.219 HD
ENDBRANCH  35  36
BRANCH  35  38
HETATM   38  N4  UNL     1       7.073  -3.683  16.646  1.00  0.00    -0.358 N 
HETATM   39  C27 UNL     1       6.452  -4.886  17.058  1.00  0.00     0.141 C 
HETATM   40  C28 UNL     1       7.214  -5.617  18.136  1.00  0.00     0.134 C 
HETATM   41  N5  UNL     1       8.610  -5.271  18.152  1.00  0.00    -0.226 NA
HETATM   42  C29 UNL     1       9.134  -4.928  16.872  1.00  0.00     0.041 C 
HETATM   43  C30 UNL     1       8.960  -6.073  15.907  1.00  0.00     0.035 C 
HETATM   44  C31 UNL     1      10.642  -4.739  17.060  1.00  0.00     0.035 C 
HETATM   45  C32 UNL     1       8.529  -3.661  16.390  1.00  0.00     0.151 C 
BRANCH  41  46
HETATM   46  N6  UNL     1       9.359  -6.258  18.797  1.00  0.00    -0.362 NA
ATOM     47  H62 UNL     1       8.826  -6.758  19.508  1.00  0.00     0.171 HD
ATOM     48  H61 UNL     1      10.243  -5.880  19.134  1.00  0.00     0.171 HD
ENDBRANCH  41  46
ENDBRANCH  35  38
ENDBRANCH   1  35
TORSDOF 14
ENDMDL
MODEL 5
REMARK VINA RESULT: -9.555867461      1.498      3.688
REMARK  14 active torsions:
REMARK  status: ('A' for Active; 'I' for Inactive)
REMARK    1  A    between atoms: C2_2  and  C4_4 
REMARK    2  A    between atoms: C4_4  and  C5_5 
REMARK    3  A    between atoms: C5_5  and  N1_6 
REMARK    4  A    between atoms: C5_5  and  C6_10 
REMARK    5  A    between atoms: C6_10  and  C7_12 
REMARK    6  A    between atoms: C7_12  and  C8_13 
REMARK    7  A    between atoms: C7_12  and  C26_35 
REMARK    8  A    between atoms: C8_13  and  N2_14 
REMARK    9  A    between atoms: C11_17  and  C12_18 
REMARK   10  A    between atoms: C20_26  and  C21_27 
REMARK       I    between atoms: C21_27  and  N3_29 
REMARK   11  A    between atoms: N3_29  and  C22_31 
REMARK   12  A    between atoms: C26_35  and  O3_36 
REMARK   13  A    between atoms: C26_35  and  N4_38 
REMARK   14  A    between atoms: N5_41  and  N6_42 
ROOT
HETATM    1  C7  UNL     1       6.645  -2.890  14.891  1.00  0.00     0.078 C 
ENDROOT
BRANCH   1   2
HETATM    2  C6  UNL     1       7.765  -3.795  14.627  1.00  0.00     0.195 C 
HETATM    3  O1  UNL     1       7.574  -4.804  13.973  1.00  0.00    -0.290 OA
BRANCH   2   4
HETATM    4  C5  UNL     1       9.155  -3.592  15.092  1.00  0.00     0.258 C 
BRANCH   4   5
HETATM    5  C4  UNL     1       9.927  -4.822  15.321  1.00  0.00     0.045 C 
BRANCH   5   6
HETATM    6  C2  UNL     1       9.517  -5.496  16.598  1.00  0.00    -0.020 C 
HETATM    7  C1  UNL     1       8.965  -6.872  16.460  1.00  0.00     0.009 C 
HETATM    8  C3  UNL     1      10.693  -5.552  17.588  1.00  0.00     0.009 C 
ENDBRANCH   5   6
ENDBRANCH   4   5
BRANCH   4   9
HETATM    9  N1  UNL     1       9.191  -2.739  16.261  1.00  0.00    -0.068 N 
ATOM     10  H13 UNL     1       9.270  -1.754  16.007  1.00  0.00     0.275 HD
ATOM     11  H12 UNL     1       8.286  -2.704  16.730  1.00  0.00     0.275 HD
ATOM     12  H11 UNL     1       9.935  -3.027  16.896  1.00  0.00     0.275 HD
ENDBRANCH   4   9
ENDBRANCH   2   4
ENDBRANCH   1   2
BRANCH   1  13
HETATM   13  C8  UNL     1       5.787  -2.560  13.669  1.00  0.00     0.106 C 
BRANCH  13  14
HETATM   14  N2  UNL     1       4.856  -1.544  13.828  1.00  0.00    -0.376 N 
HETATM   15  C9  UNL     1       3.495  -1.877  13.557  1.00  0.00     0.123 C 
HETATM   16  C10 UNL     1       2.833  -1.166  12.424  1.00  0.00     0.025 C 
HETATM   17  C11 UNL     1       3.547   0.099  12.118  1.00  0.00    -0.006 C 
HETATM   18  C19 UNL     1       3.995   0.689  13.425  1.00  0.00     0.040 C 
HETATM   19  C20 UNL     1       5.146  -0.202  13.998  1.00  0.00     0.176 C 
BRANCH  17  20
HETATM   20  C12 UNL     1       2.756   1.128  11.365  1.00  0.00    -0.010 C 
HETATM   21  C13 UNL     1       1.326   0.678  11.229  1.00  0.00     0.005 C 
HETATM   22  C14 UNL     1       0.358   1.471  12.051  1.00  0.00     0.000 C 
HETATM   23  C15 UNL     1       0.169   2.884  11.605  1.00  0.00     0.000 C 
HETATM   24  C16 UNL     1       1.018   3.272  10.415  1.00  0.00     0.000 C 
HETATM   25  C17 UNL     1       2.465   3.448  10.749  1.00  0.00     0.000 C 
HETATM   26  C18 UNL     1       2.876   2.516  11.900  1.00  0.00     0.005 C 
ENDBRANCH  17  20
BRANCH  19  27
HETATM   27  C21 UNL     1       6.324   0.400  13.395  1.00  0.00     0.241 C 
HETATM   28  O2  UNL     1       7.321   0.737  14.028  1.00  0.00    -0.271 OA
HETATM   29  N3  UNL     1       6.332   0.613  11.991  1.00  0.00    -0.351 N 
ATOM     30  H3  UNL     1       5.510   0.335  11.453  1.00  0.00     0.163 HD
BRANCH  29  31
HETATM   31  C22 UNL     1       7.442   1.203  11.287  1.00  0.00     0.022 C 
HETATM   32  C23 UNL     1       7.074   1.404   9.811  1.00  0.00     0.037 C 
HETATM   33  C24 UNL     1       7.701   2.577  11.846  1.00  0.00     0.037 C 
HETATM   34  C25 UNL     1       8.676   0.331  11.338  1.00  0.00     0.037 C 
ENDBRANCH  29  31
ENDBRANCH  19  27
ENDBRANCH  13  14
ENDBRANCH   1  13
BRANCH   1  35
HETATM   35  C26 UNL     1       5.868  -3.135  16.108  1.00  0.00     0.153 C 
BRANCH  35  36
HETATM   36  O3  UNL     1       6.069  -2.289  17.085  1.00  0.00    -0.345 OA
ATOM     37  H3  UNL     1       5.286  -1.913  17.469  1.00  0.00     0.219 HD
ENDBRANCH  35  36
BRANCH  35  38
HETATM   38  N4  UNL     1       4.931  -4.154  16.374  1.00  0.00    -0.358 N 
HETATM   39  C27 UNL     1       3.564  -3.892  16.626  1.00  0.00     0.141 C 
HETATM   40  C28 UNL     1       3.013  -4.659  17.804  1.00  0.00     0.134 C 
HETATM   41  N5  UNL     1       3.771  -5.848  18.088  1.00  0.00    -0.226 NA
HETATM   42  C29 UNL     1       4.372  -6.438  16.939  1.00  0.00     0.041 C 
HETATM   43  C30 UNL     1       3.320  -6.803  15.924  1.00  0.00     0.035 C 
HETATM   44  C31 UNL     1       5.002  -7.752  17.409  1.00  0.00     0.035 C 
HETATM   45  C32 UNL     1       5.426  -5.547  16.394  1.00  0.00     0.151 C 
BRANCH  41  46
HETATM   46  N6  UNL     1       3.012  -6.756  18.830  1.00  0.00    -0.362 NA
ATOM     47  H62 UNL     1       2.337  -6.300  19.443  1.00  0.00     0.171 HD
ATOM     48  H61 UNL     1       3.614  -7.427  19.307  1.00  0.00     0.171 HD
ENDBRANCH  41  46
ENDBRANCH  35  38
ENDBRANCH   1  35
TORSDOF 14
ENDMDL
