MODEL 1
REMARK VINA RESULT: -7.739773875      0.000      0.000
REMARK  2 active torsions:
REMARK  status: ('A' for Active; 'I' for Inactive)
REMARK    1  A    between atoms: C3_5  and  C4_6 
REMARK    2  A    between atoms: N4_10  and  C5_11 
ROOT
HETATM    1  C4  UNL     1     -18.470 -41.833 -11.780  1.00  0.00     0.132 A 
HETATM    2  N2  UNL     1     -18.562 -43.146 -11.929  1.00  0.00    -0.277 N 
ATOM      3  H2  UNL     1     -19.084 -43.611 -12.673  1.00  0.00     0.184 HD
HETATM    4  N3  UNL     1     -17.886 -43.772 -10.980  1.00  0.00    -0.012 NA
HETATM    5  N4  UNL     1     -17.335 -42.843 -10.187  1.00  0.00    -0.205 N 
HETATM    6  C7  UNL     1     -17.685 -41.620 -10.667  1.00  0.00     0.157 A 
HETATM    7 CL1  UNL     1     -17.217 -40.079  -9.983  1.00  0.00    -0.060 Cl
ENDROOT
BRANCH   5   8
HETATM    8  C5  UNL     1     -16.528 -43.038  -9.045  1.00  0.00     0.194 A 
HETATM    9  N5  UNL     1     -15.882 -42.128  -8.309  1.00  0.00    -0.221 N 
HETATM   10  O1  UNL     1     -15.258 -42.764  -7.347  1.00  0.00    -0.153 OA
ATOM     11  H5  UNL     1     -15.876 -41.121  -8.468  1.00  0.00     0.198 HD
HETATM   12  N6  UNL     1     -15.447 -44.031  -7.397  1.00  0.00    -0.222 N 
HETATM   13  C6  UNL     1     -16.258 -44.256  -8.473  1.00  0.00     0.169 A 
ATOM     14  H6  UNL     1     -15.067 -44.732  -6.761  1.00  0.00     0.198 HD
HETATM   15  N7  UNL     1     -16.660 -45.424  -8.833  1.00  0.00    -0.381 N 
ATOM     16  H72 UNL     1     -17.266 -45.593  -9.637  1.00  0.00     0.157 HD
ATOM     17  H71 UNL     1     -16.460 -46.330  -8.408  1.00  0.00     0.157 HD
ENDBRANCH   5   8
BRANCH   1  18
HETATM   18  C3  UNL     1     -19.065 -40.775 -12.611  1.00  0.00     0.159 A 
HETATM   19  N1  UNL     1     -18.945 -40.623 -13.889  1.00  0.00    -0.319 N 
HETATM   20  C2  UNL     1     -19.667 -39.480 -14.330  1.00  0.00     0.162 A 
ATOM     21  H1  UNL     1     -18.406 -41.239 -14.497  1.00  0.00     0.169 HD
HETATM   22  C1  UNL     1     -19.784 -39.004 -15.559  1.00  0.00     0.074 C 
HETATM   23  O2  UNL     1     -20.243 -38.946 -13.186  1.00  0.00    -0.219 OA
HETATM   24  N8  UNL     1     -19.895 -39.718 -12.103  1.00  0.00    -0.241 N 
ATOM     25  H8  UNL     1     -20.171 -39.570 -11.132  1.00  0.00     0.196 HD
ENDBRANCH   1  18
TORSDOF 2
ENDMDL
MODEL 2
REMARK VINA RESULT: -7.706858210      3.676      5.528
REMARK  2 active torsions:
REMARK  status: ('A' for Active; 'I' for Inactive)
REMARK    1  A    between atoms: C3_5  and  C4_6 
REMARK    2  A    between atoms: N4_10  and  C5_11 
ROOT
HETATM    1  C4  UNL     1     -16.748 -44.265  -7.346  1.00  0.00     0.132 A 
HETATM    2  N2  UNL     1     -17.119 -44.929  -6.261  1.00  0.00    -0.277 N 
ATOM      3  H2  UNL     1     -17.823 -45.667  -6.246  1.00  0.00     0.184 HD
HETATM    4  N3  UNL     1     -16.451 -44.504  -5.202  1.00  0.00    -0.012 NA
HETATM    5  N4  UNL     1     -15.619 -43.533  -5.604  1.00  0.00    -0.205 N 
HETATM    6  C7  UNL     1     -15.785 -43.364  -6.942  1.00  0.00     0.157 A 
HETATM    7 CL1  UNL     1     -14.928 -42.214  -7.944  1.00  0.00    -0.060 Cl
ENDROOT
BRANCH   5   8
HETATM    8  C5  UNL     1     -14.711 -42.784  -4.823  1.00  0.00     0.194 A 
HETATM    9  N5  UNL     1     -13.573 -43.185  -4.246  1.00  0.00    -0.221 N 
HETATM   10  O1  UNL     1     -13.059 -42.153  -3.621  1.00  0.00    -0.153 OA
ATOM     11  H5  UNL     1     -13.177 -44.124  -4.285  1.00  0.00     0.198 HD
HETATM   12  N6  UNL     1     -13.779 -41.099  -3.746  1.00  0.00    -0.222 N 
HETATM   13  C6  UNL     1     -14.853 -41.456  -4.511  1.00  0.00     0.169 A 
ATOM     14  H6  UNL     1     -13.589 -40.178  -3.352  1.00  0.00     0.198 HD
HETATM   15  N7  UNL     1     -15.795 -40.644  -4.844  1.00  0.00    -0.381 N 
ATOM     16  H72 UNL     1     -16.597 -40.910  -5.416  1.00  0.00     0.157 HD
ATOM     17  H71 UNL     1     -15.900 -39.656  -4.613  1.00  0.00     0.157 HD
ENDBRANCH   5   8
BRANCH   1  18
HETATM   18  C3  UNL     1     -17.235 -44.421  -8.725  1.00  0.00     0.159 A 
HETATM   19  N1  UNL     1     -17.846 -43.537  -9.443  1.00  0.00    -0.319 N 
HETATM   20  C2  UNL     1     -18.161 -44.063 -10.727  1.00  0.00     0.162 A 
ATOM     21  H1  UNL     1     -18.072 -42.593  -9.132  1.00  0.00     0.169 HD
HETATM   22  C1  UNL     1     -18.780 -43.465 -11.732  1.00  0.00     0.074 C 
HETATM   23  O2  UNL     1     -17.678 -45.363 -10.720  1.00  0.00    -0.219 OA
HETATM   24  N8  UNL     1     -17.098 -45.623  -9.500  1.00  0.00    -0.241 N 
ATOM     25  H8  UNL     1     -16.659 -46.495  -9.205  1.00  0.00     0.196 HD
ENDBRANCH   1  18
TORSDOF 2
ENDMDL
MODEL 3
REMARK VINA RESULT: -7.624677599      1.144      1.290
REMARK  2 active torsions:
REMARK  status: ('A' for Active; 'I' for Inactive)
REMARK    1  A    between atoms: C3_5  and  C4_6 
REMARK    2  A    between atoms: N4_10  and  C5_11 
ROOT
HETATM    1  C4  UNL     1     -19.014 -41.966 -12.233  1.00  0.00     0.132 A 
HETATM    2  N2  UNL     1     -19.524 -43.160 -12.500  1.00  0.00    -0.277 N 
ATOM      3  H2  UNL     1     -20.211 -43.347 -13.230  1.00  0.00     0.184 HD
HETATM    4  N3  UNL     1     -19.018 -44.074 -11.690  1.00  0.00    -0.012 NA
HETATM    5  N4  UNL     1     -18.154 -43.463 -10.868  1.00  0.00    -0.205 N 
HETATM    6  C7  UNL     1     -18.133 -42.142 -11.189  1.00  0.00     0.157 A 
HETATM    7 CL1  UNL     1     -17.161 -40.914 -10.407  1.00  0.00    -0.060 Cl
ENDROOT
BRANCH   5   8
HETATM    8  C5  UNL     1     -17.376 -44.035  -9.837  1.00  0.00     0.194 A 
HETATM    9  N5  UNL     1     -16.274 -43.554  -9.254  1.00  0.00    -0.221 N 
HETATM   10  O1  UNL     1     -15.891 -44.423  -8.349  1.00  0.00    -0.153 OA
ATOM     11  H5  UNL     1     -15.813 -42.671  -9.474  1.00  0.00     0.198 HD
HETATM   12  N6  UNL     1     -16.665 -45.444  -8.295  1.00  0.00    -0.222 N 
HETATM   13  C6  UNL     1     -17.636 -45.240  -9.234  1.00  0.00     0.169 A 
ATOM     14  H6  UNL     1     -16.575 -46.249  -7.675  1.00  0.00     0.198 HD
HETATM   15  N7  UNL     1     -18.594 -46.068  -9.464  1.00  0.00    -0.381 N 
ATOM     16  H72 UNL     1     -19.319 -45.916 -10.165  1.00  0.00     0.157 HD
ATOM     17  H71 UNL     1     -18.788 -46.964  -9.015  1.00  0.00     0.157 HD
ENDBRANCH   5   8
BRANCH   1  18
HETATM   18  C3  UNL     1     -19.300 -40.682 -12.892  1.00  0.00     0.159 A 
HETATM   19  N1  UNL     1     -19.111 -40.382 -14.135  1.00  0.00    -0.319 N 
HETATM   20  C2  UNL     1     -19.509 -39.041 -14.395  1.00  0.00     0.162 A 
ATOM     21  H1  UNL     1     -18.728 -41.019 -14.833  1.00  0.00     0.169 HD
HETATM   22  C1  UNL     1     -19.468 -38.378 -15.539  1.00  0.00     0.074 C 
HETATM   23  O2  UNL     1     -19.962 -38.551 -13.179  1.00  0.00    -0.219 OA
HETATM   24  N8  UNL     1     -19.850 -39.535 -12.225  1.00  0.00    -0.241 N 
ATOM     25  H8  UNL     1     -20.106 -39.464 -11.240  1.00  0.00     0.196 HD
ENDBRANCH   1  18
TORSDOF 2
ENDMDL
MODEL 4
REMARK VINA RESULT: -7.622990744      3.712      8.424
REMARK  2 active torsions:
REMARK  status: ('A' for Active; 'I' for Inactive)
REMARK    1  A    between atoms: C3_5  and  C4_6 
REMARK    2  A    between atoms: N4_10  and  C5_11 
ROOT
HETATM    1  C4  UNL     1     -20.535 -40.154 -14.184  1.00  0.00     0.132 A 
HETATM    2  N2  UNL     1     -21.536 -40.851 -14.702  1.00  0.00    -0.277 N 
ATOM      3  H2  UNL     1     -21.886 -41.732 -14.323  1.00  0.00     0.184 HD
HETATM    4  N3  UNL     1     -22.018 -40.249 -15.776  1.00  0.00    -0.012 NA
HETATM    5  N4  UNL     1     -21.313 -39.126 -15.968  1.00  0.00    -0.205 N 
HETATM    6  C7  UNL     1     -20.379 -39.042 -14.984  1.00  0.00     0.157 A 
HETATM    7 CL1  UNL     1     -19.207 -37.757 -14.791  1.00  0.00    -0.060 Cl
ENDROOT
BRANCH   5   8
HETATM    8  C5  UNL     1     -21.468 -38.163 -16.990  1.00  0.00     0.194 A 
HETATM    9  N5  UNL     1     -20.537 -37.399 -17.569  1.00  0.00    -0.221 N 
HETATM   10  O1  UNL     1     -21.136 -36.653 -18.466  1.00  0.00    -0.153 OA
ATOM     11  H5  UNL     1     -19.541 -37.395 -17.351  1.00  0.00     0.198 HD
HETATM   12  N6  UNL     1     -22.398 -36.873 -18.519  1.00  0.00    -0.222 N 
HETATM   13  C6  UNL     1     -22.659 -37.838 -17.588  1.00  0.00     0.169 A 
ATOM     14  H6  UNL     1     -23.073 -36.418 -19.134  1.00  0.00     0.198 HD
HETATM   15  N7  UNL     1     -23.834 -38.312 -17.360  1.00  0.00    -0.381 N 
ATOM     16  H72 UNL     1     -24.029 -39.033 -16.665  1.00  0.00     0.157 HD
ATOM     17  H71 UNL     1     -24.720 -38.070 -17.805  1.00  0.00     0.157 HD
ENDBRANCH   5   8
BRANCH   1  18
HETATM   18  C3  UNL     1     -19.724 -40.462 -12.995  1.00  0.00     0.159 A 
HETATM   19  N1  UNL     1     -19.008 -41.517 -12.790  1.00  0.00    -0.319 N 
HETATM   20  C2  UNL     1     -18.370 -41.453 -11.520  1.00  0.00     0.162 A 
ATOM     21  H1  UNL     1     -18.914 -42.291 -13.448  1.00  0.00     0.169 HD
HETATM   22  C1  UNL     1     -17.562 -42.338 -10.959  1.00  0.00     0.074 C 
HETATM   23  O2  UNL     1     -18.772 -40.245 -10.969  1.00  0.00    -0.219 OA
HETATM   24  N8  UNL     1     -19.610 -39.603 -11.850  1.00  0.00    -0.241 N 
ATOM     25  H8  UNL     1     -20.060 -38.697 -11.716  1.00  0.00     0.196 HD
ENDBRANCH   1  18
TORSDOF 2
ENDMDL
MODEL 5
REMARK VINA RESULT: -7.512208247      3.732      4.410
REMARK  2 active torsions:
REMARK  status: ('A' for Active; 'I' for Inactive)
REMARK    1  A    between atoms: C3_5  and  C4_6 
REMARK    2  A    between atoms: N4_10  and  C5_11 
ROOT
HETATM    1  C4  UNL     1     -17.442 -44.794  -9.461  1.00  0.00     0.132 A 
HETATM    2  N2  UNL     1     -16.980 -45.566  -8.488  1.00  0.00    -0.277 N 
ATOM      3  H2  UNL     1     -17.130 -46.574  -8.427  1.00  0.00     0.184 HD
HETATM    4  N3  UNL     1     -16.299 -44.852  -7.609  1.00  0.00    -0.012 NA
HETATM    5  N4  UNL     1     -16.315 -43.575  -8.015  1.00  0.00    -0.205 N 
HETATM    6  C7  UNL     1     -17.024 -43.512  -9.173  1.00  0.00     0.157 A 
HETATM    7 CL1  UNL     1     -17.335 -42.065 -10.106  1.00  0.00    -0.060 Cl
ENDROOT
BRANCH   5   8
HETATM    8  C5  UNL     1     -15.721 -42.454  -7.394  1.00  0.00     0.194 A 
HETATM    9  N5  UNL     1     -15.913 -41.156  -7.648  1.00  0.00    -0.221 N 
HETATM   10  O1  UNL     1     -15.150 -40.473  -6.828  1.00  0.00    -0.153 OA
ATOM     11  H5  UNL     1     -16.540 -40.767  -8.352  1.00  0.00     0.198 HD
HETATM   12  N6  UNL     1     -14.468 -41.232  -6.051  1.00  0.00    -0.222 N 
HETATM   13  C6  UNL     1     -14.802 -42.516  -6.377  1.00  0.00     0.169 A 
ATOM     14  H6  UNL     1     -13.807 -40.936  -5.333  1.00  0.00     0.198 HD
HETATM   15  N7  UNL     1     -14.306 -43.553  -5.798  1.00  0.00    -0.381 N 
ATOM     16  H72 UNL     1     -14.555 -44.512  -6.042  1.00  0.00     0.157 HD
ATOM     17  H71 UNL     1     -13.622 -43.598  -5.042  1.00  0.00     0.157 HD
ENDBRANCH   5   8
BRANCH   1  18
HETATM   18  C3  UNL     1     -18.243 -45.180 -10.633  1.00  0.00     0.159 A 
HETATM   19  N1  UNL     1     -19.334 -44.628 -11.051  1.00  0.00    -0.319 N 
HETATM   20  C2  UNL     1     -19.815 -45.284 -12.218  1.00  0.00     0.162 A 
ATOM     21  H1  UNL     1     -19.787 -43.831 -10.605  1.00  0.00     0.169 HD
HETATM   22  C1  UNL     1     -20.896 -45.010 -12.929  1.00  0.00     0.074 C 
HETATM   23  O2  UNL     1     -18.903 -46.299 -12.470  1.00  0.00    -0.219 OA
HETATM   24  N8  UNL     1     -17.916 -46.267 -11.513  1.00  0.00    -0.241 N 
ATOM     25  H8  UNL     1     -17.112 -46.892 -11.443  1.00  0.00     0.196 HD
ENDBRANCH   1  18
TORSDOF 2
ENDMDL
