MODEL 1
REMARK VINA RESULT: -7.024158503      0.000      0.000
REMARK  7 active torsions:
REMARK  status: ('A' for Active; 'I' for Inactive)
REMARK    1  A    between atoms: C2_2  and  C3_3 
REMARK    2  A    between atoms: C3_3  and  N1_4 
REMARK    3  A    between atoms: N2_12  and  C10_13 
REMARK    4  A    between atoms: C12_15  and  O1_16 
REMARK    5  A    between atoms: O1_16  and  C13_17 
REMARK       I    between atoms: C13_17  and  N3_19 
REMARK    6  A    between atoms: N3_19  and  C14_21 
REMARK    7  A    between atoms: C14_21  and  C15_22 
ROOT
HETATM    1  N1  UNL     1      30.045   0.572   7.842  1.00  0.00     0.105 N 
HETATM    2  C4  UNL     1      31.438   0.056   7.758  1.00  0.00     0.294 C 
HETATM    3  C5  UNL     1      32.261   1.159   7.185  1.00  0.00     0.113 C 
HETATM    4 CL1  UNL     1      33.646   0.545   6.258  1.00  0.00    -0.123 Cl
HETATM    5  C6  UNL     1      31.315   1.812   6.215  1.00  0.00     0.070 C 
HETATM    6  C7  UNL     1      29.933   1.348   6.682  1.00  0.00     0.201 C 
HETATM    7  C8  UNL     1      29.096   2.605   6.746  1.00  0.00     0.068 C 
HETATM    8  C9  UNL     1      27.657   2.289   6.354  1.00  0.00     0.120 C 
HETATM    9  N2  UNL     1      27.632   2.181   4.907  1.00  0.00    -0.403 N 
HETATM   10  C17 UNL     1      28.700   1.356   4.415  1.00  0.00     0.172 C 
HETATM   11  C18 UNL     1      29.286   0.561   5.560  1.00  0.00     0.037 C 
HETATM   12  N4  UNL     1      29.209  -0.672   5.529  1.00  0.00    -0.402 N 
ATOM     13  H41 UNL     1      28.773  -1.202   4.773  1.00  0.00     0.155 HD
ATOM     14  H42 UNL     1      29.604  -1.209   6.301  1.00  0.00     0.155 HD
ENDROOT
BRANCH   9  15
HETATM   15  C10 UNL     1      26.359   2.017   4.365  1.00  0.00     0.084 C 
HETATM   16  C11 UNL     1      25.428   0.949   4.885  1.00  0.00     0.057 C 
HETATM   17  C12 UNL     1      24.768   0.985   3.489  1.00  0.00     0.137 C 
HETATM   18  C16 UNL     1      26.167   1.474   3.007  1.00  0.00     0.057 C 
BRANCH  17  19
HETATM   19  O1  UNL     1      23.805   1.981   3.357  1.00  0.00    -0.298 OA
BRANCH  19  20
HETATM   20  C13 UNL     1      23.627   2.958   4.330  1.00  0.00     0.361 C 
HETATM   21  O2  UNL     1      23.001   2.691   5.377  1.00  0.00    -0.239 OA
HETATM   22  N3  UNL     1      24.155   4.253   4.121  1.00  0.00    -0.328 N 
ATOM     23  H3  UNL     1      24.661   4.399   3.247  1.00  0.00     0.165 HD
BRANCH  22  24
HETATM   24  C14 UNL     1      24.064   5.370   4.984  1.00  0.00     0.242 C 
BRANCH  24  25
HETATM   25  C15 UNL     1      24.727   6.634   4.584  1.00  0.00     0.403 C 
HETATM   26  F1  UNL     1      26.096   6.476   4.854  1.00  0.00    -0.169 F 
HETATM   27  F2  UNL     1      24.571   7.046   3.314  1.00  0.00    -0.169 F 
HETATM   28  F3  UNL     1      24.303   7.694   5.420  1.00  0.00    -0.169 F 
ENDBRANCH  24  25
ENDBRANCH  22  24
ENDBRANCH  19  20
ENDBRANCH  17  19
ENDBRANCH   9  15
BRANCH   1  29
HETATM   29  C3  UNL     1      29.947   1.144   9.128  1.00  0.00     0.273 C 
BRANCH  29  30
HETATM   30  C2  UNL     1      30.334   0.383  10.329  1.00  0.00     0.026 C 
HETATM   31  C1  UNL     1      29.499   0.727  11.553  1.00  0.00     0.007 C 
ENDBRANCH  29  30
ENDBRANCH   1  29
TORSDOF 7
ENDMDL
MODEL 2
REMARK VINA RESULT: -6.896539241      2.388      3.126
REMARK  7 active torsions:
REMARK  status: ('A' for Active; 'I' for Inactive)
REMARK    1  A    between atoms: C2_2  and  C3_3 
REMARK    2  A    between atoms: C3_3  and  N1_4 
REMARK    3  A    between atoms: N2_12  and  C10_13 
REMARK    4  A    between atoms: C12_15  and  O1_16 
REMARK    5  A    between atoms: O1_16  and  C13_17 
REMARK       I    between atoms: C13_17  and  N3_19 
REMARK    6  A    between atoms: N3_19  and  C14_21 
REMARK    7  A    between atoms: C14_21  and  C15_22 
ROOT
HETATM    1  N1  UNL     1      30.030   0.098   5.367  1.00  0.00     0.105 N 
HETATM    2  C4  UNL     1      30.645  -1.254   5.470  1.00  0.00     0.294 C 
HETATM    3  C5  UNL     1      30.811  -1.748   4.074  1.00  0.00     0.113 C 
HETATM    4 CL1  UNL     1      30.715  -3.518   3.977  1.00  0.00    -0.123 Cl
HETATM    5  C6  UNL     1      29.602  -1.186   3.375  1.00  0.00     0.070 C 
HETATM    6  C7  UNL     1      29.146  -0.048   4.291  1.00  0.00     0.201 C 
HETATM    7  C8  UNL     1      28.942   1.138   3.375  1.00  0.00     0.068 C 
HETATM    8  C9  UNL     1      27.776   1.983   3.875  1.00  0.00     0.120 C 
HETATM    9  N2  UNL     1      26.561   1.294   3.481  1.00  0.00    -0.403 N 
HETATM   10  C17 UNL     1      26.613  -0.105   3.802  1.00  0.00     0.172 C 
HETATM   11  C18 UNL     1      27.742  -0.354   4.776  1.00  0.00     0.037 C 
HETATM   12  N4  UNL     1      27.473  -0.784   5.903  1.00  0.00    -0.402 N 
ATOM     13  H41 UNL     1      26.529  -0.989   6.228  1.00  0.00     0.155 HD
ATOM     14  H42 UNL     1      28.235  -0.951   6.560  1.00  0.00     0.155 HD
ENDROOT
BRANCH   9  15
HETATM   15  C10 UNL     1      25.388   1.997   3.751  1.00  0.00     0.084 C 
HETATM   16  C11 UNL     1      24.792   2.005   5.138  1.00  0.00     0.057 C 
HETATM   17  C12 UNL     1      23.438   2.276   4.445  1.00  0.00     0.137 C 
HETATM   18  C16 UNL     1      24.084   1.544   3.231  1.00  0.00     0.057 C 
BRANCH  17  19
HETATM   19  O1  UNL     1      23.215   3.621   4.172  1.00  0.00    -0.298 OA
BRANCH  19  20
HETATM   20  C13 UNL     1      24.002   4.621   4.732  1.00  0.00     0.361 C 
HETATM   21  O2  UNL     1      23.742   5.056   5.873  1.00  0.00    -0.239 OA
HETATM   22  N3  UNL     1      25.094   5.141   3.998  1.00  0.00    -0.328 N 
ATOM     23  H3  UNL     1      25.252   4.734   3.076  1.00  0.00     0.165 HD
BRANCH  22  24
HETATM   24  C14 UNL     1      25.991   6.159   4.394  1.00  0.00     0.242 C 
BRANCH  24  25
HETATM   25  C15 UNL     1      27.418   5.811   4.596  1.00  0.00     0.403 C 
HETATM   26  F1  UNL     1      27.909   5.382   3.352  1.00  0.00    -0.169 F 
HETATM   27  F2  UNL     1      28.230   6.763   5.088  1.00  0.00    -0.169 F 
HETATM   28  F3  UNL     1      27.531   4.687   5.448  1.00  0.00    -0.169 F 
ENDBRANCH  24  25
ENDBRANCH  22  24
ENDBRANCH  19  20
ENDBRANCH  17  19
ENDBRANCH   9  15
BRANCH   1  29
HETATM   29  C3  UNL     1      31.121   0.990   5.314  1.00  0.00     0.273 C 
BRANCH  29  30
HETATM   30  C2  UNL     1      31.153   2.200   6.156  1.00  0.00     0.026 C 
HETATM   31  C1  UNL     1      29.881   2.402   6.964  1.00  0.00     0.007 C 
ENDBRANCH  29  30
ENDBRANCH   1  29
TORSDOF 7
ENDMDL
MODEL 3
REMARK VINA RESULT: -6.802501903      4.619      7.472
REMARK  7 active torsions:
REMARK  status: ('A' for Active; 'I' for Inactive)
REMARK    1  A    between atoms: C2_2  and  C3_3 
REMARK    2  A    between atoms: C3_3  and  N1_4 
REMARK    3  A    between atoms: N2_12  and  C10_13 
REMARK    4  A    between atoms: C12_15  and  O1_16 
REMARK    5  A    between atoms: O1_16  and  C13_17 
REMARK       I    between atoms: C13_17  and  N3_19 
REMARK    6  A    between atoms: N3_19  and  C14_21 
REMARK    7  A    between atoms: C14_21  and  C15_22 
ROOT
HETATM    1  N1  UNL     1      25.664   4.373   4.397  1.00  0.00     0.105 N 
HETATM    2  C4  UNL     1      24.327   4.974   4.144  1.00  0.00     0.294 C 
HETATM    3  C5  UNL     1      23.476   4.614   5.313  1.00  0.00     0.113 C 
HETATM    4 CL1  UNL     1      21.761   4.480   4.874  1.00  0.00    -0.123 Cl
HETATM    5  C6  UNL     1      23.966   3.237   5.670  1.00  0.00     0.070 C 
HETATM    6  C7  UNL     1      25.343   3.155   5.008  1.00  0.00     0.201 C 
HETATM    7  C8  UNL     1      26.268   2.635   6.086  1.00  0.00     0.068 C 
HETATM    8  C9  UNL     1      27.334   1.739   5.465  1.00  0.00     0.120 C 
HETATM    9  N2  UNL     1      26.701   0.460   5.199  1.00  0.00    -0.403 N 
HETATM   10  C17 UNL     1      25.434   0.619   4.541  1.00  0.00     0.172 C 
HETATM   11  C18 UNL     1      25.325   2.025   3.997  1.00  0.00     0.037 C 
HETATM   12  N4  UNL     1      25.230   2.185   2.776  1.00  0.00    -0.402 N 
ATOM     13  H41 UNL     1      25.217   1.425   2.096  1.00  0.00     0.155 HD
ATOM     14  H42 UNL     1      25.156   3.134   2.409  1.00  0.00     0.155 HD
ENDROOT
BRANCH   9  15
HETATM   15  C10 UNL     1      27.571  -0.527   4.743  1.00  0.00     0.084 C 
HETATM   16  C11 UNL     1      28.486  -0.271   3.570  1.00  0.00     0.057 C 
HETATM   17  C12 UNL     1      28.462  -1.799   3.345  1.00  0.00     0.137 C 
HETATM   18  C16 UNL     1      27.072  -1.728   4.046  1.00  0.00     0.057 C 
BRANCH  17  19
HETATM   19  O1  UNL     1      29.390  -2.487   4.120  1.00  0.00    -0.298 OA
BRANCH  19  20
HETATM   20  C13 UNL     1      30.644  -1.956   4.402  1.00  0.00     0.361 C 
HETATM   21  O2  UNL     1      31.621  -2.241   3.678  1.00  0.00    -0.239 OA
HETATM   22  N3  UNL     1      30.802  -1.098   5.515  1.00  0.00    -0.328 N 
ATOM     23  H3  UNL     1      29.961  -0.903   6.058  1.00  0.00     0.165 HD
BRANCH  22  24
HETATM   24  C14 UNL     1      31.992  -0.477   5.962  1.00  0.00     0.242 C 
BRANCH  24  25
HETATM   25  C15 UNL     1      31.887   0.747   6.791  1.00  0.00     0.403 C 
HETATM   26  F1  UNL     1      32.965   1.572   6.432  1.00  0.00    -0.169 F 
HETATM   27  F2  UNL     1      30.746   1.453   6.721  1.00  0.00    -0.169 F 
HETATM   28  F3  UNL     1      32.099   0.432   8.155  1.00  0.00    -0.169 F 
ENDBRANCH  24  25
ENDBRANCH  22  24
ENDBRANCH  19  20
ENDBRANCH  17  19
ENDBRANCH   9  15
BRANCH   1  29
HETATM   29  C3  UNL     1      26.391   5.374   5.075  1.00  0.00     0.273 C 
BRANCH  29  30
HETATM   30  C2  UNL     1      27.746   5.756   4.637  1.00  0.00     0.026 C 
HETATM   31  C1  UNL     1      28.279   4.888   3.508  1.00  0.00     0.007 C 
ENDBRANCH  29  30
ENDBRANCH   1  29
TORSDOF 7
ENDMDL
MODEL 4
REMARK VINA RESULT: -6.274293164      5.031      7.744
REMARK  7 active torsions:
REMARK  status: ('A' for Active; 'I' for Inactive)
REMARK    1  A    between atoms: C2_2  and  C3_3 
REMARK    2  A    between atoms: C3_3  and  N1_4 
REMARK    3  A    between atoms: N2_12  and  C10_13 
REMARK    4  A    between atoms: C12_15  and  O1_16 
REMARK    5  A    between atoms: O1_16  and  C13_17 
REMARK       I    between atoms: C13_17  and  N3_19 
REMARK    6  A    between atoms: N3_19  and  C14_21 
REMARK    7  A    between atoms: C14_21  and  C15_22 
ROOT
HETATM    1  N1  UNL     1      25.977   2.871   4.131  1.00  0.00     0.105 N 
HETATM    2  C4  UNL     1      25.200   4.128   3.957  1.00  0.00     0.294 C 
HETATM    3  C5  UNL     1      26.078   5.064   3.200  1.00  0.00     0.113 C 
HETATM    4 CL1  UNL     1      25.744   6.762   3.599  1.00  0.00    -0.123 Cl
HETATM    5  C6  UNL     1      27.449   4.733   3.724  1.00  0.00     0.070 C 
HETATM    6  C7  UNL     1      27.279   3.341   4.338  1.00  0.00     0.201 C 
HETATM    7  C8  UNL     1      28.425   2.524   3.786  1.00  0.00     0.068 C 
HETATM    8  C9  UNL     1      28.902   1.526   4.835  1.00  0.00     0.120 C 
HETATM    9  N2  UNL     1      29.709   2.271   5.784  1.00  0.00    -0.403 N 
HETATM   10  C17 UNL     1      29.061   3.484   6.199  1.00  0.00     0.172 C 
HETATM   11  C18 UNL     1      27.599   3.426   5.817  1.00  0.00     0.037 C 
HETATM   12  N4  UNL     1      26.749   3.448   6.714  1.00  0.00    -0.402 N 
ATOM     13  H41 UNL     1      26.965   3.505   7.709  1.00  0.00     0.155 HD
ATOM     14  H42 UNL     1      25.763   3.409   6.456  1.00  0.00     0.155 HD
ENDROOT
BRANCH   9  15
HETATM   15  C10 UNL     1      30.334   1.484   6.749  1.00  0.00     0.084 C 
HETATM   16  C11 UNL     1      31.760   1.023   6.568  1.00  0.00     0.057 C 
HETATM   17  C12 UNL     1      31.390  -0.158   7.493  1.00  0.00     0.137 C 
HETATM   18  C16 UNL     1      29.943   0.078   6.964  1.00  0.00     0.057 C 
BRANCH  17  19
HETATM   19  O1  UNL     1      31.494   0.146   8.846  1.00  0.00    -0.298 OA
BRANCH  19  20
HETATM   20  C13 UNL     1      30.437  -0.060   9.725  1.00  0.00     0.361 C 
HETATM   21  O2  UNL     1      30.087  -1.221  10.022  1.00  0.00    -0.239 OA
HETATM   22  N3  UNL     1      29.761   1.055  10.274  1.00  0.00    -0.328 N 
ATOM     23  H3  UNL     1      30.103   1.973   9.993  1.00  0.00     0.165 HD
BRANCH  22  24
HETATM   24  C14 UNL     1      28.664   1.044  11.166  1.00  0.00     0.242 C 
BRANCH  24  25
HETATM   25  C15 UNL     1      28.931   0.923  12.620  1.00  0.00     0.403 C 
HETATM   26  F1  UNL     1      29.317  -0.406  12.851  1.00  0.00    -0.169 F 
HETATM   27  F2  UNL     1      29.843   1.751  13.157  1.00  0.00    -0.169 F 
HETATM   28  F3  UNL     1      27.731   1.094  13.352  1.00  0.00    -0.169 F 
ENDBRANCH  24  25
ENDBRANCH  22  24
ENDBRANCH  19  20
ENDBRANCH  17  19
ENDBRANCH   9  15
BRANCH   1  29
HETATM   29  C3  UNL     1      25.644   2.080   3.011  1.00  0.00     0.273 C 
BRANCH  29  30
HETATM   30  C2  UNL     1      25.155   0.700   3.177  1.00  0.00     0.026 C 
HETATM   31  C1  UNL     1      25.645   0.038   4.455  1.00  0.00     0.007 C 
ENDBRANCH  29  30
ENDBRANCH   1  29
TORSDOF 7
ENDMDL
MODEL 5
REMARK VINA RESULT: -6.214285694      4.604      7.824
REMARK  7 active torsions:
REMARK  status: ('A' for Active; 'I' for Inactive)
REMARK    1  A    between atoms: C2_2  and  C3_3 
REMARK    2  A    between atoms: C3_3  and  N1_4 
REMARK    3  A    between atoms: N2_12  and  C10_13 
REMARK    4  A    between atoms: C12_15  and  O1_16 
REMARK    5  A    between atoms: O1_16  and  C13_17 
REMARK       I    between atoms: C13_17  and  N3_19 
REMARK    6  A    between atoms: N3_19  and  C14_21 
REMARK    7  A    between atoms: C14_21  and  C15_22 
ROOT
HETATM    1  N1  UNL     1      24.519   3.162   4.695  1.00  0.00     0.105 N 
HETATM    2  C4  UNL     1      23.776   4.433   4.912  1.00  0.00     0.294 C 
HETATM    3  C5  UNL     1      24.397   5.442   4.007  1.00  0.00     0.113 C 
HETATM    4 CL1  UNL     1      24.277   7.088   4.662  1.00  0.00    -0.123 Cl
HETATM    5  C6  UNL     1      25.850   5.051   4.019  1.00  0.00     0.070 C 
HETATM    6  C7  UNL     1      25.835   3.602   4.512  1.00  0.00     0.201 C 
HETATM    7  C8  UNL     1      26.708   2.844   3.536  1.00  0.00     0.068 C 
HETATM    8  C9  UNL     1      27.460   1.738   4.267  1.00  0.00     0.120 C 
HETATM    9  N2  UNL     1      28.560   2.374   4.970  1.00  0.00    -0.403 N 
HETATM   10  C17 UNL     1      28.129   3.537   5.693  1.00  0.00     0.172 C 
HETATM   11  C18 UNL     1      26.621   3.527   5.806  1.00  0.00     0.037 C 
HETATM   12  N4  UNL     1      26.109   3.455   6.928  1.00  0.00    -0.402 N 
ATOM     13  H41 UNL     1      26.638   3.404   7.799  1.00  0.00     0.155 HD
ATOM     14  H42 UNL     1      25.092   3.447   7.005  1.00  0.00     0.155 HD
ENDROOT
BRANCH   9  15
HETATM   15  C10 UNL     1      29.433   1.486   5.594  1.00  0.00     0.084 C 
HETATM   16  C11 UNL     1      30.821   1.920   6.000  1.00  0.00     0.057 C 
HETATM   17  C12 UNL     1      31.214   0.431   5.880  1.00  0.00     0.137 C 
HETATM   18  C16 UNL     1      30.039   0.360   4.858  1.00  0.00     0.057 C 
BRANCH  17  19
HETATM   19  O1  UNL     1      30.940  -0.308   7.026  1.00  0.00    -0.298 OA
BRANCH  19  20
HETATM   20  C13 UNL     1      31.234   0.177   8.295  1.00  0.00     0.361 C 
HETATM   21  O2  UNL     1      32.412   0.451   8.603  1.00  0.00    -0.239 OA
HETATM   22  N3  UNL     1      30.189   0.352   9.232  1.00  0.00    -0.328 N 
ATOM     23  H3  UNL     1      29.250   0.116   8.911  1.00  0.00     0.165 HD
BRANCH  22  24
HETATM   24  C14 UNL     1      30.295   0.818  10.564  1.00  0.00     0.242 C 
BRANCH  24  25
HETATM   25  C15 UNL     1      29.056   0.979  11.361  1.00  0.00     0.403 C 
HETATM   26  F1  UNL     1      28.424  -0.274  11.385  1.00  0.00    -0.169 F 
HETATM   27  F2  UNL     1      29.178   1.438  12.619  1.00  0.00    -0.169 F 
HETATM   28  F3  UNL     1      28.152   1.837  10.691  1.00  0.00    -0.169 F 
ENDBRANCH  24  25
ENDBRANCH  22  24
ENDBRANCH  19  20
ENDBRANCH  17  19
ENDBRANCH   9  15
BRANCH   1  29
HETATM   29  C3  UNL     1      23.811   2.496   3.673  1.00  0.00     0.273 C 
BRANCH  29  30
HETATM   30  C2  UNL     1      23.938   1.040   3.486  1.00  0.00     0.026 C 
HETATM   31  C1  UNL     1      24.387   0.652   2.085  1.00  0.00     0.007 C 
ENDBRANCH  29  30
ENDBRANCH   1  29
TORSDOF 7
ENDMDL
