MODEL 1
REMARK VINA RESULT: -8.870951974      0.000      0.000
REMARK  7 active torsions:
REMARK  status: ('A' for Active; 'I' for Inactive)
REMARK    1  A    between atoms: N1_2  and  C2_4 
REMARK    2  A    between atoms: C3_7  and  N3_8 
REMARK    3  A    between atoms: N3_8  and  C4_10 
REMARK    4  A    between atoms: C6_14  and  O1_15 
REMARK    5  A    between atoms: O1_15  and  C7_16 
REMARK    6  A    between atoms: C7_16  and  C8_17 
REMARK    7  A    between atoms: C8_17  and  N5_18 
ROOT
HETATM    1  C4  UNL     1      28.535   1.810   4.249  1.00  0.00     0.127 A 
HETATM    2  N4  UNL     1      29.221   2.615   5.094  1.00  0.00    -0.349 N 
ATOM      3  H4  UNL     1      29.006   3.609   5.168  1.00  0.00     0.167 HD
HETATM    4  C5  UNL     1      30.197   2.059   5.835  1.00  0.00     0.126 A 
HETATM    5  C6  UNL     1      30.528   0.720   5.776  1.00  0.00     0.084 A 
HETATM    6  C14 UNL     1      29.814  -0.097   4.901  1.00  0.00     0.048 A 
HETATM    7  C15 UNL     1      28.827   0.462   4.150  1.00  0.00    -0.015 A 
HETATM    8  C16 UNL     1      28.062  -0.411   3.214  1.00  0.00     0.052 C 
ENDROOT
BRANCH   1   9
HETATM    9  N3  UNL     1      27.524   2.399   3.485  1.00  0.00    -0.176 N 
ATOM     10  H3  UNL     1      27.279   1.954   2.600  1.00  0.00     0.186 HD
BRANCH   9  11
HETATM   11  C3  UNL     1      26.874   3.471   3.820  1.00  0.00     0.685 A 
HETATM   12  N2  UNL     1      25.712   3.373   4.495  1.00  0.00    -0.175 N 
HETATM   13  C2  UNL     1      24.970   4.402   4.885  1.00  0.00     0.140 A 
ATOM     14  H2  UNL     1      25.376   2.437   4.724  1.00  0.00     0.186 HD
HETATM   15  C18 UNL     1      25.407   5.671   4.584  1.00  0.00     0.094 A 
HETATM   16  C17 UNL     1      26.598   5.814   3.890  1.00  0.00     0.133 A 
HETATM   17 CL1  UNL     1      24.477   7.072   5.067  1.00  0.00    -0.079 Cl
HETATM   18  N6  UNL     1      27.306   4.709   3.523  1.00  0.00    -0.200 N 
ATOM     19  H6  UNL     1      28.182   4.823   3.013  1.00  0.00     0.183 HD
BRANCH  13  20
HETATM   20  N1  UNL     1      23.849   4.280   5.537  1.00  0.00    -0.379 N 
HETATM   21  C1  UNL     1      22.661   4.039   4.727  1.00  0.00     0.147 C 
ATOM     22  H1  UNL     1      23.805   4.350   6.554  1.00  0.00     0.160 HD
ENDBRANCH  13  20
ENDBRANCH   9  11
ENDBRANCH   1   9
BRANCH   5  23
HETATM   23  O1  UNL     1      31.533   0.145   6.537  1.00  0.00    -0.348 OA
BRANCH  23  24
HETATM   24  C7  UNL     1      31.689   0.430   7.891  1.00  0.00     0.206 C 
BRANCH  24  25
HETATM   25  C8  UNL     1      30.534   0.011   8.720  1.00  0.00     0.302 C 
BRANCH  25  26
HETATM   26  N5  UNL     1      30.802  -0.316  10.084  1.00  0.00     0.124 N 
HETATM   27  C9  UNL     1      29.676  -1.093  10.590  1.00  0.00     0.282 C 
HETATM   28  C10 UNL     1      28.597  -0.141  11.067  1.00  0.00     0.109 C 
HETATM   29  C11 UNL     1      29.099   0.485  12.360  1.00  0.00     0.249 C 
HETATM   30  F1  UNL     1      28.577   1.758  12.498  1.00  0.00    -0.206 F 
HETATM   31  F2  UNL     1      28.685  -0.334  13.389  1.00  0.00    -0.206 F 
HETATM   32  C12 UNL     1      30.608   0.506  12.368  1.00  0.00     0.148 C 
HETATM   33  C13 UNL     1      31.121   0.780  10.943  1.00  0.00     0.410 C 
HETATM   34  F3  UNL     1      32.515   0.809  11.094  1.00  0.00    -0.216 F 
ENDBRANCH  25  26
ENDBRANCH  24  25
ENDBRANCH  23  24
ENDBRANCH   5  23
TORSDOF 7
ENDMDL
MODEL 2
REMARK VINA RESULT: -8.795079103      1.114      1.716
REMARK  7 active torsions:
REMARK  status: ('A' for Active; 'I' for Inactive)
REMARK    1  A    between atoms: N1_2  and  C2_4 
REMARK    2  A    between atoms: C3_7  and  N3_8 
REMARK    3  A    between atoms: N3_8  and  C4_10 
REMARK    4  A    between atoms: C6_14  and  O1_15 
REMARK    5  A    between atoms: O1_15  and  C7_16 
REMARK    6  A    between atoms: C7_16  and  C8_17 
REMARK    7  A    between atoms: C8_17  and  N5_18 
ROOT
HETATM    1  C4  UNL     1      28.632   1.112   4.104  1.00  0.00     0.127 A 
HETATM    2  N4  UNL     1      29.307   2.091   4.750  1.00  0.00    -0.349 N 
ATOM      3  H4  UNL     1      29.056   3.072   4.631  1.00  0.00     0.167 HD
HETATM    4  C5  UNL     1      30.321   1.726   5.556  1.00  0.00     0.126 A 
HETATM    5  C6  UNL     1      30.700   0.414   5.754  1.00  0.00     0.084 A 
HETATM    6  C14 UNL     1      29.997  -0.585   5.082  1.00  0.00     0.048 A 
HETATM    7  C15 UNL     1      28.971  -0.219   4.266  1.00  0.00    -0.015 A 
HETATM    8  C16 UNL     1      28.217  -1.286   3.547  1.00  0.00     0.052 C 
ENDROOT
BRANCH   1   9
HETATM    9  N3  UNL     1      27.580   1.504   3.270  1.00  0.00    -0.176 N 
ATOM     10  H3  UNL     1      27.683   1.336   2.269  1.00  0.00     0.186 HD
BRANCH   9  11
HETATM   11  C3  UNL     1      26.484   2.064   3.677  1.00  0.00     0.685 A 
HETATM   12  N2  UNL     1      26.458   3.386   3.941  1.00  0.00    -0.175 N 
HETATM   13  C2  UNL     1      25.393   4.056   4.362  1.00  0.00     0.140 A 
ATOM     14  H2  UNL     1      27.322   3.911   3.806  1.00  0.00     0.186 HD
HETATM   15  C18 UNL     1      24.220   3.364   4.549  1.00  0.00     0.094 A 
HETATM   16  C17 UNL     1      24.205   2.002   4.290  1.00  0.00     0.133 A 
HETATM   17 CL1  UNL     1      22.777   4.186   5.103  1.00  0.00    -0.079 Cl
HETATM   18  N6  UNL     1      25.340   1.382   3.859  1.00  0.00    -0.200 N 
ATOM     19  H6  UNL     1      25.320   0.380   3.670  1.00  0.00     0.183 HD
BRANCH  13  20
HETATM   20  N1  UNL     1      25.394   5.335   4.609  1.00  0.00    -0.379 N 
HETATM   21  C1  UNL     1      26.676   6.014   4.460  1.00  0.00     0.147 C 
ATOM     22  H1  UNL     1      24.549   5.832   4.890  1.00  0.00     0.160 HD
ENDBRANCH  13  20
ENDBRANCH   9  11
ENDBRANCH   1   9
BRANCH   5  23
HETATM   23  O1  UNL     1      31.745   0.035   6.583  1.00  0.00    -0.348 OA
BRANCH  23  24
HETATM   24  C7  UNL     1      31.811   0.432   7.915  1.00  0.00     0.206 C 
BRANCH  24  25
HETATM   25  C8  UNL     1      30.639   0.009   8.718  1.00  0.00     0.302 C 
BRANCH  25  26
HETATM   26  N5  UNL     1      30.874  -0.303  10.091  1.00  0.00     0.124 N 
HETATM   27  C9  UNL     1      29.751  -1.102  10.570  1.00  0.00     0.282 C 
HETATM   28  C10 UNL     1      28.637  -0.171  11.008  1.00  0.00     0.109 C 
HETATM   29  C11 UNL     1      29.088   0.474  12.310  1.00  0.00     0.249 C 
HETATM   30  F1  UNL     1      28.534   1.737  12.424  1.00  0.00    -0.206 F 
HETATM   31  F2  UNL     1      28.662  -0.346  13.333  1.00  0.00    -0.206 F 
HETATM   32  C12 UNL     1      30.595   0.530  12.362  1.00  0.00     0.148 C 
HETATM   33  C13 UNL     1      31.144   0.805  10.951  1.00  0.00     0.410 C 
HETATM   34  F3  UNL     1      32.531   0.867  11.142  1.00  0.00    -0.216 F 
ENDBRANCH  25  26
ENDBRANCH  24  25
ENDBRANCH  23  24
ENDBRANCH   5  23
TORSDOF 7
ENDMDL
MODEL 3
REMARK VINA RESULT: -8.787886911      1.037      1.299
REMARK  7 active torsions:
REMARK  status: ('A' for Active; 'I' for Inactive)
REMARK    1  A    between atoms: N1_2  and  C2_4 
REMARK    2  A    between atoms: C3_7  and  N3_8 
REMARK    3  A    between atoms: N3_8  and  C4_10 
REMARK    4  A    between atoms: C6_14  and  O1_15 
REMARK    5  A    between atoms: O1_15  and  C7_16 
REMARK    6  A    between atoms: C7_16  and  C8_17 
REMARK    7  A    between atoms: C8_17  and  N5_18 
ROOT
HETATM    1  C4  UNL     1      28.492   2.096   4.433  1.00  0.00     0.127 A 
HETATM    2  N4  UNL     1      29.007   2.956   5.342  1.00  0.00    -0.349 N 
ATOM      3  H4  UNL     1      28.572   3.862   5.516  1.00  0.00     0.167 HD
HETATM    4  C5  UNL     1      30.111   2.575   6.009  1.00  0.00     0.126 A 
HETATM    5  C6  UNL     1      30.738   1.362   5.813  1.00  0.00     0.084 A 
HETATM    6  C14 UNL     1      30.198   0.485   4.874  1.00  0.00     0.048 A 
HETATM    7  C15 UNL     1      29.081   0.867   4.196  1.00  0.00    -0.015 A 
HETATM    8  C16 UNL     1      28.502  -0.070   3.191  1.00  0.00     0.052 C 
ENDROOT
BRANCH   1   9
HETATM    9  N3  UNL     1      27.344   2.502   3.746  1.00  0.00    -0.176 N 
ATOM     10  H3  UNL     1      26.986   1.885   3.016  1.00  0.00     0.186 HD
BRANCH   9  11
HETATM   11  C3  UNL     1      26.702   3.607   3.969  1.00  0.00     0.685 A 
HETATM   12  N2  UNL     1      25.508   3.580   4.594  1.00  0.00    -0.175 N 
HETATM   13  C2  UNL     1      24.771   4.647   4.871  1.00  0.00     0.140 A 
ATOM     14  H2  UNL     1      25.144   2.670   4.876  1.00  0.00     0.186 HD
HETATM   15  C18 UNL     1      25.247   5.882   4.497  1.00  0.00     0.094 A 
HETATM   16  C17 UNL     1      26.472   5.953   3.851  1.00  0.00     0.133 A 
HETATM   17 CL1  UNL     1      24.325   7.332   4.831  1.00  0.00    -0.079 Cl
HETATM   18  N6  UNL     1      27.173   4.811   3.602  1.00  0.00    -0.200 N 
ATOM     19  H6  UNL     1      28.073   4.872   3.126  1.00  0.00     0.183 HD
BRANCH  13  20
HETATM   20  N1  UNL     1      23.619   4.594   5.477  1.00  0.00    -0.379 N 
HETATM   21  C1  UNL     1      22.522   4.010   4.715  1.00  0.00     0.147 C 
ATOM     22  H1  UNL     1      23.493   4.941   6.428  1.00  0.00     0.160 HD
ENDBRANCH  13  20
ENDBRANCH   9  11
ENDBRANCH   1   9
BRANCH   5  23
HETATM   23  O1  UNL     1      31.877   0.968   6.499  1.00  0.00    -0.348 OA
BRANCH  23  24
HETATM   24  C7  UNL     1      31.865  -0.090   7.404  1.00  0.00     0.206 C 
BRANCH  24  25
HETATM   25  C8  UNL     1      31.577   0.326   8.797  1.00  0.00     0.302 C 
BRANCH  25  26
HETATM   26  N5  UNL     1      30.310  -0.052   9.336  1.00  0.00     0.124 N 
HETATM   27  C9  UNL     1      29.466   1.137   9.377  1.00  0.00     0.282 C 
HETATM   28  C10 UNL     1      29.746   1.895  10.660  1.00  0.00     0.109 C 
HETATM   29  C11 UNL     1      29.133   1.086  11.794  1.00  0.00     0.249 C 
HETATM   30  F1  UNL     1      29.859   1.282  12.955  1.00  0.00    -0.206 F 
HETATM   31  F2  UNL     1      27.835   1.524  11.944  1.00  0.00    -0.206 F 
HETATM   32  C12 UNL     1      29.086  -0.375  11.417  1.00  0.00     0.148 C 
HETATM   33  C13 UNL     1      30.337  -0.729  10.594  1.00  0.00     0.410 C 
HETATM   34  F3  UNL     1      30.189  -2.100  10.341  1.00  0.00    -0.216 F 
ENDBRANCH  25  26
ENDBRANCH  24  25
ENDBRANCH  23  24
ENDBRANCH   5  23
TORSDOF 7
ENDMDL
MODEL 4
REMARK VINA RESULT: -8.548577538      1.470      2.107
REMARK  7 active torsions:
REMARK  status: ('A' for Active; 'I' for Inactive)
REMARK    1  A    between atoms: N1_2  and  C2_4 
REMARK    2  A    between atoms: C3_7  and  N3_8 
REMARK    3  A    between atoms: N3_8  and  C4_10 
REMARK    4  A    between atoms: C6_14  and  O1_15 
REMARK    5  A    between atoms: O1_15  and  C7_16 
REMARK    6  A    between atoms: C7_16  and  C8_17 
REMARK    7  A    between atoms: C8_17  and  N5_18 
ROOT
HETATM    1  C4  UNL     1      28.503   1.407   4.153  1.00  0.00     0.127 A 
HETATM    2  N4  UNL     1      28.972   2.501   4.798  1.00  0.00    -0.349 N 
ATOM      3  H4  UNL     1      28.523   3.410   4.689  1.00  0.00     0.167 HD
HETATM    4  C5  UNL     1      30.051   2.348   5.587  1.00  0.00     0.126 A 
HETATM    5  C6  UNL     1      30.695   1.141   5.770  1.00  0.00     0.084 A 
HETATM    6  C14 UNL     1      30.201   0.022   5.101  1.00  0.00     0.048 A 
HETATM    7  C15 UNL     1      29.111   0.173   4.301  1.00  0.00    -0.015 A 
HETATM    8  C16 UNL     1      28.581  -1.022   3.585  1.00  0.00     0.052 C 
ENDROOT
BRANCH   1   9
HETATM    9  N3  UNL     1      27.381   1.578   3.336  1.00  0.00    -0.176 N 
ATOM     10  H3  UNL     1      27.441   1.244   2.374  1.00  0.00     0.186 HD
BRANCH   9  11
HETATM   11  C3  UNL     1      26.270   2.130   3.714  1.00  0.00     0.685 A 
HETATM   12  N2  UNL     1      26.222   3.454   3.962  1.00  0.00    -0.175 N 
HETATM   13  C2  UNL     1      25.142   4.116   4.352  1.00  0.00     0.140 A 
ATOM     14  H2  UNL     1      27.083   3.988   3.839  1.00  0.00     0.186 HD
HETATM   15  C18 UNL     1      23.973   3.412   4.522  1.00  0.00     0.094 A 
HETATM   16  C17 UNL     1      23.979   2.047   4.278  1.00  0.00     0.133 A 
HETATM   17 CL1  UNL     1      22.509   4.223   5.036  1.00  0.00    -0.079 Cl
HETATM   18  N6  UNL     1      25.130   1.436   3.879  1.00  0.00    -0.200 N 
ATOM     19  H6  UNL     1      25.126   0.432   3.701  1.00  0.00     0.183 HD
BRANCH  13  20
HETATM   20  N1  UNL     1      25.122   5.398   4.584  1.00  0.00    -0.379 N 
HETATM   21  C1  UNL     1      26.421   6.059   4.629  1.00  0.00     0.147 C 
ATOM     22  H1  UNL     1      24.250   5.908   4.726  1.00  0.00     0.160 HD
ENDBRANCH  13  20
ENDBRANCH   9  11
ENDBRANCH   1   9
BRANCH   5  23
HETATM   23  O1  UNL     1      31.807   0.982   6.582  1.00  0.00    -0.348 OA
BRANCH  23  24
HETATM   24  C7  UNL     1      31.907  -0.059   7.500  1.00  0.00     0.206 C 
BRANCH  24  25
HETATM   25  C8  UNL     1      31.596   0.347   8.892  1.00  0.00     0.302 C 
BRANCH  25  26
HETATM   26  N5  UNL     1      30.324  -0.042   9.410  1.00  0.00     0.124 N 
HETATM   27  C9  UNL     1      29.475   1.143   9.456  1.00  0.00     0.282 C 
HETATM   28  C10 UNL     1      29.737   1.885  10.752  1.00  0.00     0.109 C 
HETATM   29  C11 UNL     1      29.113   1.059  11.867  1.00  0.00     0.249 C 
HETATM   30  F1  UNL     1      29.823   1.242  13.040  1.00  0.00    -0.206 F 
HETATM   31  F2  UNL     1      27.811   1.491  12.006  1.00  0.00    -0.206 F 
HETATM   32  C12 UNL     1      29.075  -0.396  11.470  1.00  0.00     0.148 C 
HETATM   33  C13 UNL     1      30.338  -0.736  10.659  1.00  0.00     0.410 C 
HETATM   34  F3  UNL     1      30.198  -2.104  10.387  1.00  0.00    -0.216 F 
ENDBRANCH  25  26
ENDBRANCH  24  25
ENDBRANCH  23  24
ENDBRANCH   5  23
TORSDOF 7
ENDMDL
MODEL 5
REMARK VINA RESULT: -8.419783258      1.555      2.178
REMARK  7 active torsions:
REMARK  status: ('A' for Active; 'I' for Inactive)
REMARK    1  A    between atoms: N1_2  and  C2_4 
REMARK    2  A    between atoms: C3_7  and  N3_8 
REMARK    3  A    between atoms: N3_8  and  C4_10 
REMARK    4  A    between atoms: C6_14  and  O1_15 
REMARK    5  A    between atoms: O1_15  and  C7_16 
REMARK    6  A    between atoms: C7_16  and  C8_17 
REMARK    7  A    between atoms: C8_17  and  N5_18 
ROOT
HETATM    1  C4  UNL     1      28.675   1.044   4.005  1.00  0.00     0.127 A 
HETATM    2  N4  UNL     1      29.375   1.951   4.725  1.00  0.00    -0.349 N 
ATOM      3  H4  UNL     1      29.151   2.945   4.680  1.00  0.00     0.167 HD
HETATM    4  C5  UNL     1      30.374   1.498   5.502  1.00  0.00     0.126 A 
HETATM    5  C6  UNL     1      30.717   0.165   5.601  1.00  0.00     0.084 A 
HETATM    6  C14 UNL     1      29.988  -0.760   4.854  1.00  0.00     0.048 A 
HETATM    7  C15 UNL     1      28.977  -0.305   4.066  1.00  0.00    -0.015 A 
HETATM    8  C16 UNL     1      28.197  -1.292   3.266  1.00  0.00     0.052 C 
ENDROOT
BRANCH   1   9
HETATM    9  N3  UNL     1      27.638   1.527   3.201  1.00  0.00    -0.176 N 
ATOM     10  H3  UNL     1      27.743   1.439   2.190  1.00  0.00     0.186 HD
BRANCH   9  11
HETATM   11  C3  UNL     1      26.553   2.078   3.648  1.00  0.00     0.685 A 
HETATM   12  N2  UNL     1      26.533   3.394   3.940  1.00  0.00    -0.175 N 
HETATM   13  C2  UNL     1      25.480   4.055   4.402  1.00  0.00     0.140 A 
ATOM     14  H2  UNL     1      27.394   3.922   3.795  1.00  0.00     0.186 HD
HETATM   15  C18 UNL     1      24.312   3.358   4.604  1.00  0.00     0.094 A 
HETATM   16  C17 UNL     1      24.290   2.002   4.315  1.00  0.00     0.133 A 
HETATM   17 CL1  UNL     1      22.884   4.167   5.211  1.00  0.00    -0.079 Cl
HETATM   18  N6  UNL     1      25.413   1.392   3.843  1.00  0.00    -0.200 N 
ATOM     19  H6  UNL     1      25.389   0.394   3.633  1.00  0.00     0.183 HD
BRANCH  13  20
HETATM   20  N1  UNL     1      25.487   5.328   4.677  1.00  0.00    -0.379 N 
HETATM   21  C1  UNL     1      26.757   6.017   4.480  1.00  0.00     0.147 C 
ATOM     22  H1  UNL     1      24.655   5.813   5.010  1.00  0.00     0.160 HD
ENDBRANCH  13  20
ENDBRANCH   9  11
ENDBRANCH   1   9
BRANCH   5  23
HETATM   23  O1  UNL     1      31.747  -0.305   6.401  1.00  0.00    -0.348 OA
BRANCH  23  24
HETATM   24  C7  UNL     1      32.151   0.365   7.552  1.00  0.00     0.206 C 
BRANCH  24  25
HETATM   25  C8  UNL     1      31.398  -0.036   8.765  1.00  0.00     0.302 C 
BRANCH  25  26
HETATM   26  N5  UNL     1      30.864   1.014   9.571  1.00  0.00     0.124 N 
HETATM   27  C9  UNL     1      31.180   0.718  10.964  1.00  0.00     0.282 C 
HETATM   28  C10 UNL     1      30.116  -0.206  11.524  1.00  0.00     0.109 C 
HETATM   29  C11 UNL     1      28.856   0.628  11.701  1.00  0.00     0.249 C 
HETATM   30  F1  UNL     1      27.738  -0.172  11.546  1.00  0.00    -0.206 F 
HETATM   31  F2  UNL     1      28.906   1.166  12.970  1.00  0.00    -0.206 F 
HETATM   32  C12 UNL     1      28.853   1.772  10.716  1.00  0.00     0.148 C 
HETATM   33  C13 UNL     1      29.477   1.303   9.390  1.00  0.00     0.410 C 
HETATM   34  F3  UNL     1      29.382   2.431   8.564  1.00  0.00    -0.216 F 
ENDBRANCH  25  26
ENDBRANCH  24  25
ENDBRANCH  23  24
ENDBRANCH   5  23
TORSDOF 7
ENDMDL
