MODEL 1
REMARK VINA RESULT: -7.135727950      0.000      0.000
REMARK  6 active torsions:
REMARK  status: ('A' for Active; 'I' for Inactive)
REMARK    1  A    between atoms: C2_2  and  C3_3 
REMARK    2  A    between atoms: C5_5  and  N1_6 
REMARK       I    between atoms: N1_6  and  C6_8 
REMARK    3  A    between atoms: C6_8  and  C7_10 
REMARK    4  A    between atoms: N2_15  and  C10_16 
REMARK    5  A    between atoms: C10_16  and  N3_17 
REMARK    6  A    between atoms: C13_21  and  O2_22 
ROOT
HETATM    1  C3  UNL     1      27.866   0.166   5.269  1.00  0.00    -0.009 C 
HETATM    2  C4  UNL     1      27.811   1.029   6.511  1.00  0.00     0.077 C 
HETATM    3  C5  UNL     1      29.157   1.640   6.822  1.00  0.00     0.091 C 
HETATM    4  C8  UNL     1      29.892   2.105   5.608  1.00  0.00     0.045 C 
HETATM    5  C9  UNL     1      29.889   1.034   4.540  1.00  0.00     0.131 C 
HETATM    6  N2  UNL     1      28.497   0.709   4.173  1.00  0.00    -0.350 N 
ENDROOT
BRANCH   6   7
HETATM    7  C10 UNL     1      28.065   1.710   3.332  1.00  0.00     0.193 C 
BRANCH   7   8
HETATM    8  N3  UNL     1      27.312   2.828   3.808  1.00  0.00    -0.282 N 
HETATM    9  C11 UNL     1      27.920   3.967   4.145  1.00  0.00     0.128 A 
HETATM   10  C12 UNL     1      27.208   5.039   4.585  1.00  0.00     0.085 A 
HETATM   11 CL3  UNL     1      27.946   6.566   5.043  1.00  0.00    -0.080 Cl
HETATM   12  C13 UNL     1      25.852   4.963   4.691  1.00  0.00     0.116 A 
HETATM   13  C14 UNL     1      25.205   3.807   4.353  1.00  0.00     0.137 A 
HETATM   14 CL4  UNL     1      23.456   3.686   4.480  1.00  0.00    -0.075 Cl
HETATM   15  C15 UNL     1      25.983   2.732   3.905  1.00  0.00     0.277 A 
HETATM   16  O3  UNL     1      25.311   1.707   3.618  1.00  0.00    -0.266 OA
BRANCH  12  17
HETATM   17  O2  UNL     1      25.092   6.057   5.143  1.00  0.00    -0.357 OA
ATOM     18  H2  UNL     1      24.241   5.934   5.547  1.00  0.00     0.217 HD
ENDBRANCH  12  17
ENDBRANCH   7   8
ENDBRANCH   6   7
BRANCH   1  19
HETATM   19  C2  UNL     1      26.577  -0.564   5.146  1.00  0.00     0.048 C 
HETATM   20  C1  UNL     1      26.897  -1.867   4.368  1.00  0.00     0.011 C 
ENDBRANCH   1  19
BRANCH   3  21
HETATM   21  N1  UNL     1      29.996   0.762   7.594  1.00  0.00    -0.354 N 
HETATM   22  C6  UNL     1      30.005   0.773   9.016  1.00  0.00     0.251 C 
HETATM   23  O1  UNL     1      29.271   1.562   9.680  1.00  0.00    -0.271 OA
ATOM     24  H1  UNL     1      30.606   0.107   7.104  1.00  0.00     0.162 HD
BRANCH  22  25
HETATM   25  C7  UNL     1      30.884  -0.148   9.764  1.00  0.00     0.269 C 
HETATM   26 CL1  UNL     1      31.781   0.713  11.035  1.00  0.00    -0.098 Cl
HETATM   27 CL2  UNL     1      29.931  -1.418  10.540  1.00  0.00    -0.098 Cl
ENDBRANCH  22  25
ENDBRANCH   3  21
TORSDOF 6
ENDMDL
MODEL 2
REMARK VINA RESULT: -7.082577498      1.270      2.181
REMARK  6 active torsions:
REMARK  status: ('A' for Active; 'I' for Inactive)
REMARK    1  A    between atoms: C2_2  and  C3_3 
REMARK    2  A    between atoms: C5_5  and  N1_6 
REMARK       I    between atoms: N1_6  and  C6_8 
REMARK    3  A    between atoms: C6_8  and  C7_10 
REMARK    4  A    between atoms: N2_15  and  C10_16 
REMARK    5  A    between atoms: C10_16  and  N3_17 
REMARK    6  A    between atoms: C13_21  and  O2_22 
ROOT
HETATM    1  C3  UNL     1      28.588   0.179   5.407  1.00  0.00    -0.009 C 
HETATM    2  C4  UNL     1      28.104   0.841   6.680  1.00  0.00     0.077 C 
HETATM    3  C5  UNL     1      29.206   1.625   7.351  1.00  0.00     0.091 C 
HETATM    4  C8  UNL     1      30.073   2.372   6.392  1.00  0.00     0.045 C 
HETATM    5  C9  UNL     1      30.506   1.474   5.255  1.00  0.00     0.131 C 
HETATM    6  N2  UNL     1      29.316   0.969   4.545  1.00  0.00    -0.350 N 
ENDROOT
BRANCH   6   7
HETATM    7  C10 UNL     1      28.881   1.986   3.726  1.00  0.00     0.193 C 
BRANCH   7   8
HETATM    8  N3  UNL     1      27.619   2.629   3.922  1.00  0.00    -0.282 N 
HETATM    9  C11 UNL     1      26.479   1.941   3.820  1.00  0.00     0.128 A 
HETATM   10  C12 UNL     1      25.276   2.543   4.019  1.00  0.00     0.085 A 
HETATM   11 CL3  UNL     1      23.741   1.696   3.900  1.00  0.00    -0.080 Cl
HETATM   12  C13 UNL     1      25.217   3.868   4.328  1.00  0.00     0.116 A 
HETATM   13  C14 UNL     1      26.369   4.596   4.439  1.00  0.00     0.137 A 
HETATM   14 CL4  UNL     1      26.318   6.307   4.837  1.00  0.00    -0.075 Cl
HETATM   15  C15 UNL     1      27.583   3.930   4.223  1.00  0.00     0.277 A 
HETATM   16  O3  UNL     1      28.593   4.671   4.341  1.00  0.00    -0.266 OA
BRANCH  12  17
HETATM   17  O2  UNL     1      23.985   4.515   4.540  1.00  0.00    -0.357 OA
ATOM     18  H2  UNL     1      23.769   5.325   4.092  1.00  0.00     0.217 HD
ENDBRANCH  12  17
ENDBRANCH   7   8
ENDBRANCH   6   7
BRANCH   1  19
HETATM   19  C2  UNL     1      27.525  -0.737   4.919  1.00  0.00     0.048 C 
HETATM   20  C1  UNL     1      28.147  -1.518   3.732  1.00  0.00     0.011 C 
ENDBRANCH   1  19
BRANCH   3  21
HETATM   21  N1  UNL     1      30.021   0.806   8.210  1.00  0.00    -0.354 N 
HETATM   22  C6  UNL     1      29.888   0.820   9.625  1.00  0.00     0.251 C 
HETATM   23  O1  UNL     1      29.040   1.559  10.208  1.00  0.00    -0.271 OA
ATOM     24  H1  UNL     1      30.719   0.193   7.788  1.00  0.00     0.162 HD
BRANCH  22  25
HETATM   25  C7  UNL     1      30.747  -0.039  10.464  1.00  0.00     0.269 C 
HETATM   26 CL1  UNL     1      32.256   0.794  10.900  1.00  0.00    -0.098 Cl
HETATM   27 CL2  UNL     1      29.915  -0.471  11.962  1.00  0.00    -0.098 Cl
ENDBRANCH  22  25
ENDBRANCH   3  21
TORSDOF 6
ENDMDL
MODEL 3
REMARK VINA RESULT: -6.764191178      1.527      2.478
REMARK  6 active torsions:
REMARK  status: ('A' for Active; 'I' for Inactive)
REMARK    1  A    between atoms: C2_2  and  C3_3 
REMARK    2  A    between atoms: C5_5  and  N1_6 
REMARK       I    between atoms: N1_6  and  C6_8 
REMARK    3  A    between atoms: C6_8  and  C7_10 
REMARK    4  A    between atoms: N2_15  and  C10_16 
REMARK    5  A    between atoms: C10_16  and  N3_17 
REMARK    6  A    between atoms: C13_21  and  O2_22 
ROOT
HETATM    1  C3  UNL     1      29.130   0.199   5.451  1.00  0.00    -0.009 C 
HETATM    2  C4  UNL     1      28.292   0.610   6.643  1.00  0.00     0.077 C 
HETATM    3  C5  UNL     1      29.042   1.558   7.549  1.00  0.00     0.091 C 
HETATM    4  C8  UNL     1      29.853   2.570   6.808  1.00  0.00     0.045 C 
HETATM    5  C9  UNL     1      30.676   1.905   5.727  1.00  0.00     0.131 C 
HETATM    6  N2  UNL     1      29.780   1.211   4.782  1.00  0.00    -0.350 N 
ENDROOT
BRANCH   6   7
HETATM    7  C10 UNL     1      29.258   2.176   3.950  1.00  0.00     0.193 C 
BRANCH   7   8
HETATM    8  N3  UNL     1      27.899   2.609   4.053  1.00  0.00    -0.282 N 
HETATM    9  C11 UNL     1      26.894   1.773   3.782  1.00  0.00     0.128 A 
HETATM   10  C12 UNL     1      25.599   2.175   3.892  1.00  0.00     0.085 A 
HETATM   11 CL3  UNL     1      24.231   1.126   3.552  1.00  0.00    -0.080 Cl
HETATM   12  C13 UNL     1      25.308   3.447   4.282  1.00  0.00     0.116 A 
HETATM   13  C14 UNL     1      26.319   4.323   4.565  1.00  0.00     0.137 A 
HETATM   14 CL4  UNL     1      25.968   5.969   5.071  1.00  0.00    -0.075 Cl
HETATM   15  C15 UNL     1      27.636   3.862   4.436  1.00  0.00     0.277 A 
HETATM   16  O3  UNL     1      28.504   4.729   4.712  1.00  0.00    -0.266 OA
BRANCH  12  17
HETATM   17  O2  UNL     1      23.977   3.888   4.404  1.00  0.00    -0.357 OA
ATOM     18  H2  UNL     1      23.601   4.501   3.784  1.00  0.00     0.217 HD
ENDBRANCH  12  17
ENDBRANCH   7   8
ENDBRANCH   6   7
BRANCH   1  19
HETATM   19  C2  UNL     1      28.417  -0.885   4.726  1.00  0.00     0.048 C 
HETATM   20  C1  UNL     1      29.461  -1.511   3.765  1.00  0.00     0.011 C 
ENDBRANCH   1  19
BRANCH   3  21
HETATM   21  N1  UNL     1      29.873   0.869   8.501  1.00  0.00    -0.354 N 
HETATM   22  C6  UNL     1      29.638   0.931   9.901  1.00  0.00     0.251 C 
HETATM   23  O1  UNL     1      28.679   1.600  10.387  1.00  0.00    -0.271 OA
ATOM     24  H1  UNL     1      30.659   0.315   8.159  1.00  0.00     0.162 HD
BRANCH  22  25
HETATM   25  C7  UNL     1      30.519   0.206  10.839  1.00  0.00     0.269 C 
HETATM   26 CL1  UNL     1      30.266  -1.550  10.728  1.00  0.00    -0.098 Cl
HETATM   27 CL2  UNL     1      32.216   0.533  10.471  1.00  0.00    -0.098 Cl
ENDBRANCH  22  25
ENDBRANCH   3  21
TORSDOF 6
ENDMDL
MODEL 4
REMARK VINA RESULT: -6.435327086      1.534      1.686
REMARK  6 active torsions:
REMARK  status: ('A' for Active; 'I' for Inactive)
REMARK    1  A    between atoms: C2_2  and  C3_3 
REMARK    2  A    between atoms: C5_5  and  N1_6 
REMARK       I    between atoms: N1_6  and  C6_8 
REMARK    3  A    between atoms: C6_8  and  C7_10 
REMARK    4  A    between atoms: N2_15  and  C10_16 
REMARK    5  A    between atoms: C10_16  and  N3_17 
REMARK    6  A    between atoms: C13_21  and  O2_22 
ROOT
HETATM    1  C3  UNL     1      29.385  -0.076   5.377  1.00  0.00    -0.009 C 
HETATM    2  C4  UNL     1      28.448   0.327   6.496  1.00  0.00     0.077 C 
HETATM    3  C5  UNL     1      29.027   1.446   7.329  1.00  0.00     0.091 C 
HETATM    4  C8  UNL     1      29.731   2.485   6.520  1.00  0.00     0.045 C 
HETATM    5  C9  UNL     1      30.681   1.840   5.536  1.00  0.00     0.131 C 
HETATM    6  N2  UNL     1      29.927   0.949   4.634  1.00  0.00    -0.350 N 
ENDROOT
BRANCH   6   7
HETATM    7  C10 UNL     1      29.321   1.754   3.696  1.00  0.00     0.193 C 
BRANCH   7   8
HETATM    8  N3  UNL     1      28.011   2.293   3.893  1.00  0.00    -0.282 N 
HETATM    9  C11 UNL     1      27.846   3.525   4.379  1.00  0.00     0.128 A 
HETATM   10  C12 UNL     1      26.603   4.048   4.555  1.00  0.00     0.085 A 
HETATM   11 CL3  UNL     1      26.317   5.663   5.189  1.00  0.00    -0.080 Cl
HETATM   12  C13 UNL     1      25.500   3.316   4.236  1.00  0.00     0.116 A 
HETATM   13  C14 UNL     1      25.641   2.051   3.738  1.00  0.00     0.137 A 
HETATM   14 CL4  UNL     1      24.233   1.087   3.318  1.00  0.00    -0.075 Cl
HETATM   15  C15 UNL     1      26.942   1.556   3.575  1.00  0.00     0.277 A 
HETATM   16  O3  UNL     1      26.984   0.386   3.114  1.00  0.00    -0.266 OA
BRANCH  12  17
HETATM   17  O2  UNL     1      24.204   3.835   4.408  1.00  0.00    -0.357 OA
ATOM     18  H2  UNL     1      23.433   3.310   4.223  1.00  0.00     0.217 HD
ENDBRANCH  12  17
ENDBRANCH   7   8
ENDBRANCH   6   7
BRANCH   1  19
HETATM   19  C2  UNL     1      28.853  -1.308   4.738  1.00  0.00     0.048 C 
HETATM   20  C1  UNL     1      30.027  -1.903   3.919  1.00  0.00     0.011 C 
ENDBRANCH   1  19
BRANCH   3  21
HETATM   21  N1  UNL     1      29.897   0.965   8.370  1.00  0.00    -0.354 N 
HETATM   22  C6  UNL     1      29.588   1.113   9.749  1.00  0.00     0.251 C 
HETATM   23  O1  UNL     1      28.524   1.680  10.136  1.00  0.00    -0.271 OA
ATOM     24  H1  UNL     1      30.768   0.500   8.108  1.00  0.00     0.162 HD
BRANCH  22  25
HETATM   25  C7  UNL     1      30.514   0.603  10.781  1.00  0.00     0.269 C 
HETATM   26 CL1  UNL     1      30.061   1.191  12.396  1.00  0.00    -0.098 Cl
HETATM   27 CL2  UNL     1      30.482  -1.164  10.819  1.00  0.00    -0.098 Cl
ENDBRANCH  22  25
ENDBRANCH   3  21
TORSDOF 6
ENDMDL
MODEL 5
REMARK VINA RESULT: -6.095473016      1.506      1.764
REMARK  6 active torsions:
REMARK  status: ('A' for Active; 'I' for Inactive)
REMARK    1  A    between atoms: C2_2  and  C3_3 
REMARK    2  A    between atoms: C5_5  and  N1_6 
REMARK       I    between atoms: N1_6  and  C6_8 
REMARK    3  A    between atoms: C6_8  and  C7_10 
REMARK    4  A    between atoms: N2_15  and  C10_16 
REMARK    5  A    between atoms: C10_16  and  N3_17 
REMARK    6  A    between atoms: C13_21  and  O2_22 
ROOT
HETATM    1  C3  UNL     1      28.752   0.180   3.847  1.00  0.00    -0.009 C 
HETATM    2  C4  UNL     1      28.422  -0.557   5.128  1.00  0.00     0.077 C 
HETATM    3  C5  UNL     1      28.490   0.358   6.328  1.00  0.00     0.091 C 
HETATM    4  C8  UNL     1      27.927   1.717   6.070  1.00  0.00     0.045 C 
HETATM    5  C9  UNL     1      28.476   2.285   4.781  1.00  0.00     0.131 C 
HETATM    6  N2  UNL     1      28.126   1.392   3.660  1.00  0.00    -0.350 N 
ENDROOT
BRANCH   6   7
HETATM    7  C10 UNL     1      26.810   1.647   3.345  1.00  0.00     0.193 C 
BRANCH   7   8
HETATM    8  N3  UNL     1      26.139   2.827   3.795  1.00  0.00    -0.282 N 
HETATM    9  C11 UNL     1      26.776   4.000   3.838  1.00  0.00     0.128 A 
HETATM   10  C12 UNL     1      26.139   5.129   4.251  1.00  0.00     0.085 A 
HETATM   11 CL3  UNL     1      26.918   6.702   4.330  1.00  0.00    -0.080 Cl
HETATM   12  C13 UNL     1      24.832   5.078   4.630  1.00  0.00     0.116 A 
HETATM   13  C14 UNL     1      24.157   3.889   4.596  1.00  0.00     0.137 A 
HETATM   14 CL4  UNL     1      22.470   3.798   5.080  1.00  0.00    -0.075 Cl
HETATM   15  C15 UNL     1      24.857   2.755   4.164  1.00  0.00     0.277 A 
HETATM   16  O3  UNL     1      24.165   1.704   4.165  1.00  0.00    -0.266 OA
BRANCH  12  17
HETATM   17  O2  UNL     1      24.150   6.231   5.061  1.00  0.00    -0.357 OA
ATOM     18  H2  UNL     1      23.274   6.179   5.426  1.00  0.00     0.217 HD
ENDBRANCH  12  17
ENDBRANCH   7   8
ENDBRANCH   6   7
BRANCH   1  19
HETATM   19  C2  UNL     1      28.874  -0.815   2.750  1.00  0.00     0.048 C 
HETATM   20  C1  UNL     1      29.740  -1.969   3.317  1.00  0.00     0.011 C 
ENDBRANCH   1  19
BRANCH   3  21
HETATM   21  N1  UNL     1      29.822   0.473   6.859  1.00  0.00    -0.354 N 
HETATM   22  C6  UNL     1      30.076   0.876   8.198  1.00  0.00     0.251 C 
HETATM   23  O1  UNL     1      29.135   1.156   8.999  1.00  0.00    -0.271 OA
ATOM     24  H1  UNL     1      30.614   0.259   6.252  1.00  0.00     0.162 HD
BRANCH  22  25
HETATM   25  C7  UNL     1      31.462   0.980   8.697  1.00  0.00     0.269 C 
HETATM   26 CL1  UNL     1      31.641   0.164  10.266  1.00  0.00    -0.098 Cl
HETATM   27 CL2  UNL     1      32.585   0.223   7.562  1.00  0.00    -0.098 Cl
ENDBRANCH  22  25
ENDBRANCH   3  21
TORSDOF 6
ENDMDL
