MODEL 1
REMARK VINA RESULT: -5.781768473      0.000      0.000
REMARK  7 active torsions:
REMARK  status: ('A' for Active; 'I' for Inactive)
REMARK    1  A    between atoms: C7_8  and  N1_9 
REMARK    2  A    between atoms: N1_9  and  C8_12 
REMARK    3  A    between atoms: C8_12  and  C9_13 
REMARK    4  A    between atoms: C8_12  and  C11_15 
REMARK    5  A    between atoms: C11_15  and  N2_16 
REMARK    6  A    between atoms: C11_15  and  C12_20 
REMARK    7  A    between atoms: C12_20  and  C13_21 
ROOT
HETATM    1  C1  UNL     1      34.081  42.961  -7.927  1.00  0.00     0.012 C 
HETATM    2  C2  UNL     1      34.237  41.925  -7.341  1.00  0.00    -0.108 C 
HETATM    3  C3  UNL     1      34.408  40.667  -6.623  1.00  0.00     0.118 C 
HETATM    4  C4  UNL     1      34.054  39.482  -7.515  1.00  0.00     0.186 C 
HETATM    5  O1  UNL     1      35.063  39.238  -8.442  1.00  0.00    -0.390 OA
HETATM    6  C5  UNL     1      36.080  38.574  -7.793  1.00  0.00     0.169 C 
HETATM    7  C6  UNL     1      36.239  39.073  -6.401  1.00  0.00     0.060 C 
HETATM    8  C7  UNL     1      35.858  40.528  -6.206  1.00  0.00     0.206 C 
ENDROOT
BRANCH   8   9
HETATM    9  N1  UNL     1      36.056  40.772  -4.782  1.00  0.00    -0.063 N 
ATOM     10  H12 UNL     1      35.178  41.051  -4.345  1.00  0.00     0.278 HD
ATOM     11  H11 UNL     1      36.224  39.893  -4.293  1.00  0.00     0.278 HD
BRANCH   9  12
HETATM   12  C8  UNL     1      37.068  41.699  -4.479  1.00  0.00     0.216 C 
BRANCH  12  13
HETATM   13  C9  UNL     1      38.358  41.094  -3.995  1.00  0.00     0.030 C 
HETATM   14  C10 UNL     1      38.052  39.875  -3.169  1.00  0.00     0.007 C 
ENDBRANCH  12  13
BRANCH  12  15
HETATM   15  C11 UNL     1      36.563  42.776  -3.584  1.00  0.00     0.214 C 
BRANCH  15  16
HETATM   16  N2  UNL     1      35.334  42.273  -2.995  1.00  0.00    -0.073 N 
ATOM     17  H23 UNL     1      34.912  41.511  -3.525  1.00  0.00     0.274 HD
ATOM     18  H22 UNL     1      35.483  41.757  -2.128  1.00  0.00     0.274 HD
ATOM     19  H21 UNL     1      34.717  43.079  -2.886  1.00  0.00     0.274 HD
ENDBRANCH  15  16
BRANCH  15  20
HETATM   20  C12 UNL     1      37.441  43.490  -2.669  1.00  0.00     0.039 C 
BRANCH  20  21
HETATM   21  C13 UNL     1      36.983  44.008  -1.368  1.00  0.00    -0.021 C 
HETATM   22  C14 UNL     1      37.442  42.979  -0.278  1.00  0.00     0.009 C 
HETATM   23  C15 UNL     1      37.692  45.287  -0.931  1.00  0.00     0.009 C 
ENDBRANCH  20  21
ENDBRANCH  15  20
ENDBRANCH  12  15
ENDBRANCH   9  12
ENDBRANCH   8   9
TORSDOF 7
ENDMDL
MODEL 2
REMARK VINA RESULT: -5.753713886      4.675      7.919
REMARK  7 active torsions:
REMARK  status: ('A' for Active; 'I' for Inactive)
REMARK    1  A    between atoms: C7_8  and  N1_9 
REMARK    2  A    between atoms: N1_9  and  C8_12 
REMARK    3  A    between atoms: C8_12  and  C9_13 
REMARK    4  A    between atoms: C8_12  and  C11_15 
REMARK    5  A    between atoms: C11_15  and  N2_16 
REMARK    6  A    between atoms: C11_15  and  C12_20 
REMARK    7  A    between atoms: C12_20  and  C13_21 
ROOT
HETATM    1  C1  UNL     1      35.091  38.565 -10.243  1.00  0.00     0.012 C 
HETATM    2  C2  UNL     1      34.505  39.270  -9.468  1.00  0.00    -0.108 C 
HETATM    3  C3  UNL     1      33.786  40.111  -8.517  1.00  0.00     0.118 C 
HETATM    4  C4  UNL     1      34.638  40.383  -7.282  1.00  0.00     0.186 C 
HETATM    5  O1  UNL     1      35.629  41.321  -7.558  1.00  0.00    -0.390 OA
HETATM    6  C5  UNL     1      35.043  42.567  -7.552  1.00  0.00     0.169 C 
HETATM    7  C6  UNL     1      33.671  42.514  -8.122  1.00  0.00     0.060 C 
HETATM    8  C7  UNL     1      33.467  41.438  -9.173  1.00  0.00     0.206 C 
ENDROOT
BRANCH   8   9
HETATM    9  N1  UNL     1      32.062  41.553  -9.548  1.00  0.00    -0.063 N 
ATOM     10  H12 UNL     1      31.496  40.906  -9.001  1.00  0.00     0.278 HD
ATOM     11  H11 UNL     1      31.681  42.440  -9.221  1.00  0.00     0.278 HD
BRANCH   9  12
HETATM   12  C8  UNL     1      31.805  41.387 -10.920  1.00  0.00     0.216 C 
BRANCH  12  13
HETATM   13  C9  UNL     1      31.246  40.043 -11.302  1.00  0.00     0.030 C 
HETATM   14  C10 UNL     1      30.470  39.484 -10.141  1.00  0.00     0.007 C 
ENDBRANCH  12  13
BRANCH  12  15
HETATM   15  C11 UNL     1      32.984  41.778 -11.741  1.00  0.00     0.214 C 
BRANCH  15  16
HETATM   16  N2  UNL     1      33.249  40.662 -12.632  1.00  0.00    -0.073 N 
ATOM     17  H23 UNL     1      34.182  40.266 -12.519  1.00  0.00     0.274 HD
ATOM     18  H22 UNL     1      32.725  39.820 -12.394  1.00  0.00     0.274 HD
ATOM     19  H21 UNL     1      33.066  41.000 -13.577  1.00  0.00     0.274 HD
ENDBRANCH  15  16
BRANCH  15  20
HETATM   20  C12 UNL     1      33.094  43.096 -12.350  1.00  0.00     0.039 C 
BRANCH  20  21
HETATM   21  C13 UNL     1      33.494  44.293 -11.590  1.00  0.00    -0.021 C 
HETATM   22  C14 UNL     1      33.782  45.424 -12.637  1.00  0.00     0.009 C 
HETATM   23  C15 UNL     1      32.367  44.898 -10.757  1.00  0.00     0.009 C 
ENDBRANCH  20  21
ENDBRANCH  15  20
ENDBRANCH  12  15
ENDBRANCH   9  12
ENDBRANCH   8   9
TORSDOF 7
ENDMDL
MODEL 3
REMARK VINA RESULT: -5.720699461      3.622      7.653
REMARK  7 active torsions:
REMARK  status: ('A' for Active; 'I' for Inactive)
REMARK    1  A    between atoms: C7_8  and  N1_9 
REMARK    2  A    between atoms: N1_9  and  C8_12 
REMARK    3  A    between atoms: C8_12  and  C9_13 
REMARK    4  A    between atoms: C8_12  and  C11_15 
REMARK    5  A    between atoms: C11_15  and  N2_16 
REMARK    6  A    between atoms: C11_15  and  C12_20 
REMARK    7  A    between atoms: C12_20  and  C13_21 
ROOT
HETATM    1  C1  UNL     1      35.412  38.956  -9.603  1.00  0.00     0.012 C 
HETATM    2  C2  UNL     1      34.894  39.619  -8.746  1.00  0.00    -0.108 C 
HETATM    3  C3  UNL     1      34.252  40.410  -7.702  1.00  0.00     0.118 C 
HETATM    4  C4  UNL     1      34.911  40.159  -6.350  1.00  0.00     0.186 C 
HETATM    5  O1  UNL     1      36.139  40.811  -6.267  1.00  0.00    -0.390 OA
HETATM    6  C5  UNL     1      35.894  42.142  -6.013  1.00  0.00     0.169 C 
HETATM    7  C6  UNL     1      34.677  42.606  -6.730  1.00  0.00     0.060 C 
HETATM    8  C7  UNL     1      34.399  41.881  -8.034  1.00  0.00     0.206 C 
ENDROOT
BRANCH   8   9
HETATM    9  N1  UNL     1      33.158  42.470  -8.525  1.00  0.00    -0.063 N 
ATOM     10  H12 UNL     1      32.362  41.891  -8.258  1.00  0.00     0.278 HD
ATOM     11  H11 UNL     1      32.941  43.319  -8.005  1.00  0.00     0.278 HD
BRANCH   9  12
HETATM   12  C8  UNL     1      33.135  42.725  -9.907  1.00  0.00     0.216 C 
BRANCH  12  13
HETATM   13  C9  UNL     1      32.819  44.148 -10.284  1.00  0.00     0.030 C 
HETATM   14  C10 UNL     1      33.582  44.509 -11.529  1.00  0.00     0.007 C 
ENDBRANCH  12  13
BRANCH  12  15
HETATM   15  C11 UNL     1      32.286  41.735 -10.623  1.00  0.00     0.214 C 
BRANCH  15  16
HETATM   16  N2  UNL     1      33.162  41.039 -11.550  1.00  0.00    -0.073 N 
ATOM     17  H23 UNL     1      33.614  41.659 -12.222  1.00  0.00     0.274 HD
ATOM     18  H22 UNL     1      34.013  40.684 -11.114  1.00  0.00     0.274 HD
ATOM     19  H21 UNL     1      32.597  40.312 -11.989  1.00  0.00     0.274 HD
ENDBRANCH  15  16
BRANCH  15  20
HETATM   20  C12 UNL     1      31.333  40.888  -9.920  1.00  0.00     0.039 C 
BRANCH  20  21
HETATM   21  C13 UNL     1      31.024  39.512 -10.348  1.00  0.00    -0.021 C 
HETATM   22  C14 UNL     1      31.283  38.580  -9.114  1.00  0.00     0.009 C 
HETATM   23  C15 UNL     1      29.544  39.274 -10.632  1.00  0.00     0.009 C 
ENDBRANCH  20  21
ENDBRANCH  15  20
ENDBRANCH  12  15
ENDBRANCH   9  12
ENDBRANCH   8   9
TORSDOF 7
ENDMDL
MODEL 4
REMARK VINA RESULT: -5.720144255      1.047      2.013
REMARK  7 active torsions:
REMARK  status: ('A' for Active; 'I' for Inactive)
REMARK    1  A    between atoms: C7_8  and  N1_9 
REMARK    2  A    between atoms: N1_9  and  C8_12 
REMARK    3  A    between atoms: C8_12  and  C9_13 
REMARK    4  A    between atoms: C8_12  and  C11_15 
REMARK    5  A    between atoms: C11_15  and  N2_16 
REMARK    6  A    between atoms: C11_15  and  C12_20 
REMARK    7  A    between atoms: C12_20  and  C13_21 
ROOT
HETATM    1  C1  UNL     1      32.884  38.446  -6.661  1.00  0.00     0.012 C 
HETATM    2  C2  UNL     1      33.876  39.121  -6.704  1.00  0.00    -0.108 C 
HETATM    3  C3  UNL     1      35.091  39.926  -6.760  1.00  0.00     0.118 C 
HETATM    4  C4  UNL     1      35.359  40.404  -8.183  1.00  0.00     0.186 C 
HETATM    5  O1  UNL     1      34.500  41.445  -8.528  1.00  0.00    -0.390 OA
HETATM    6  C5  UNL     1      34.979  42.597  -7.943  1.00  0.00     0.169 C 
HETATM    7  C6  UNL     1      35.556  42.314  -6.602  1.00  0.00     0.060 C 
HETATM    8  C7  UNL     1      34.919  41.144  -5.877  1.00  0.00     0.206 C 
ENDROOT
BRANCH   8   9
HETATM    9  N1  UNL     1      35.664  41.037  -4.627  1.00  0.00    -0.063 N 
ATOM     10  H12 UNL     1      35.023  41.013  -3.834  1.00  0.00     0.278 HD
ATOM     11  H11 UNL     1      36.084  40.112  -4.543  1.00  0.00     0.278 HD
BRANCH   9  12
HETATM   12  C8  UNL     1      36.638  42.033  -4.436  1.00  0.00     0.216 C 
BRANCH  12  13
HETATM   13  C9  UNL     1      38.053  41.526  -4.341  1.00  0.00     0.030 C 
HETATM   14  C10 UNL     1      38.036  40.113  -3.826  1.00  0.00     0.007 C 
ENDBRANCH  12  13
BRANCH  12  15
HETATM   15  C11 UNL     1      36.271  42.938  -3.313  1.00  0.00     0.214 C 
BRANCH  15  16
HETATM   16  N2  UNL     1      35.265  42.236  -2.535  1.00  0.00    -0.073 N 
ATOM     17  H23 UNL     1      35.461  41.241  -2.422  1.00  0.00     0.274 HD
ATOM     18  H22 UNL     1      35.276  42.480  -1.545  1.00  0.00     0.274 HD
ATOM     19  H21 UNL     1      34.370  42.422  -2.989  1.00  0.00     0.274 HD
ENDBRANCH  15  16
BRANCH  15  20
HETATM   20  C12 UNL     1      37.278  43.640  -2.531  1.00  0.00     0.039 C 
BRANCH  20  21
HETATM   21  C13 UNL     1      37.020  44.145  -1.171  1.00  0.00    -0.021 C 
HETATM   22  C14 UNL     1      37.669  43.125  -0.173  1.00  0.00     0.009 C 
HETATM   23  C15 UNL     1      37.761  45.439  -0.844  1.00  0.00     0.009 C 
ENDBRANCH  20  21
ENDBRANCH  15  20
ENDBRANCH  12  15
ENDBRANCH   9  12
ENDBRANCH   8   9
TORSDOF 7
ENDMDL
MODEL 5
REMARK VINA RESULT: -5.707486336      3.721      7.175
REMARK  7 active torsions:
REMARK  status: ('A' for Active; 'I' for Inactive)
REMARK    1  A    between atoms: C7_8  and  N1_9 
REMARK    2  A    between atoms: N1_9  and  C8_12 
REMARK    3  A    between atoms: C8_12  and  C9_13 
REMARK    4  A    between atoms: C8_12  and  C11_15 
REMARK    5  A    between atoms: C11_15  and  N2_16 
REMARK    6  A    between atoms: C11_15  and  C12_20 
REMARK    7  A    between atoms: C12_20  and  C13_21 
ROOT
HETATM    1  C1  UNL     1      35.384  42.286  -5.919  1.00  0.00     0.012 C 
HETATM    2  C2  UNL     1      35.351  41.469  -6.798  1.00  0.00    -0.108 C 
HETATM    3  C3  UNL     1      35.329  40.481  -7.871  1.00  0.00     0.118 C 
HETATM    4  C4  UNL     1      35.830  39.129  -7.373  1.00  0.00     0.186 C 
HETATM    5  O1  UNL     1      34.863  38.496  -6.595  1.00  0.00    -0.390 OA
HETATM    6  C5  UNL     1      33.929  37.949  -7.447  1.00  0.00     0.169 C 
HETATM    7  C6  UNL     1      33.702  38.829  -8.625  1.00  0.00     0.060 C 
HETATM    8  C7  UNL     1      33.904  40.308  -8.354  1.00  0.00     0.206 C 
ENDROOT
BRANCH   8   9
HETATM    9  N1  UNL     1      33.669  40.952  -9.642  1.00  0.00    -0.063 N 
ATOM     10  H12 UNL     1      34.456  41.553  -9.886  1.00  0.00     0.278 HD
ATOM     11  H11 UNL     1      33.730  40.268 -10.396  1.00  0.00     0.278 HD
BRANCH   9  12
HETATM   12  C8  UNL     1      32.462  41.668  -9.730  1.00  0.00     0.216 C 
BRANCH  12  13
HETATM   13  C9  UNL     1      31.536  41.217 -10.827  1.00  0.00     0.030 C 
HETATM   14  C10 UNL     1      30.489  40.307 -10.247  1.00  0.00     0.007 C 
ENDBRANCH  12  13
BRANCH  12  15
HETATM   15  C11 UNL     1      32.707  43.136  -9.745  1.00  0.00     0.214 C 
BRANCH  15  16
HETATM   16  N2  UNL     1      32.629  43.578  -8.363  1.00  0.00    -0.073 N 
ATOM     17  H23 UNL     1      32.074  44.425  -8.240  1.00  0.00     0.274 HD
ATOM     18  H22 UNL     1      32.060  42.968  -7.776  1.00  0.00     0.274 HD
ATOM     19  H21 UNL     1      33.591  43.674  -8.038  1.00  0.00     0.274 HD
ENDBRANCH  15  16
BRANCH  15  20
HETATM   20  C12 UNL     1      33.786  43.727 -10.523  1.00  0.00     0.039 C 
BRANCH  20  21
HETATM   21  C13 UNL     1      33.544  44.589 -11.693  1.00  0.00    -0.021 C 
HETATM   22  C14 UNL     1      33.203  43.643 -12.896  1.00  0.00     0.009 C 
HETATM   23  C15 UNL     1      32.283  45.441 -11.580  1.00  0.00     0.009 C 
ENDBRANCH  20  21
ENDBRANCH  15  20
ENDBRANCH  12  15
ENDBRANCH   9  12
ENDBRANCH   8   9
TORSDOF 7
ENDMDL
