MODEL 1
REMARK VINA RESULT: -7.457993792      0.000      0.000
REMARK  6 active torsions:
REMARK  status: ('A' for Active; 'I' for Inactive)
REMARK    1  A    between atoms: C4_6  and  C5_7 
REMARK    2  A    between atoms: C5_7  and  C6_8 
REMARK    3  A    between atoms: C6_8  and  C7_9 
REMARK    4  A    between atoms: C7_9  and  C8_10 
REMARK    5  A    between atoms: C8_10  and  N2_11 
REMARK    6  A    between atoms: C14_25  and  N7_26 
ROOT
HETATM    1  N1  UNL     1      15.505   1.998  17.798  1.00  0.00    -0.191 NA
HETATM    2  C1  UNL     1      15.604   2.934  17.113  1.00  0.00     0.103 C 
HETATM    3  C2  UNL     1      15.706   4.064  16.266  1.00  0.00     0.099 A 
HETATM    4  C3  UNL     1      15.381   5.369  16.564  1.00  0.00     0.080 A 
HETATM    5 CL1  UNL     1      14.756   5.963  18.076  1.00  0.00    -0.081 Cl
HETATM    6  C4  UNL     1      15.638   6.134  15.445  1.00  0.00     0.041 A 
HETATM    7  N4  UNL     1      16.112   5.296  14.486  1.00  0.00    -0.304 N 
HETATM    8  C13 UNL     1      16.502   5.562  13.231  1.00  0.00     0.205 A 
HETATM    9  N5  UNL     1      16.938   4.552  12.465  1.00  0.00    -0.294 N 
ATOM     10  H5  UNL     1      17.235   4.748  11.509  1.00  0.00     0.187 HD
HETATM   11  N6  UNL     1      16.994   3.300  12.917  1.00  0.00    -0.283 N 
ATOM     12  H6  UNL     1      17.332   2.560  12.302  1.00  0.00     0.188 HD
HETATM   13  C14 UNL     1      16.612   2.995  14.171  1.00  0.00     0.143 A 
HETATM   14  C15 UNL     1      16.162   4.041  14.958  1.00  0.00     0.108 A 
ENDROOT
BRANCH   6  15
HETATM   15  C5  UNL     1      15.442   7.597  15.293  1.00  0.00     0.059 C 
BRANCH  15  16
HETATM   16  C6  UNL     1      16.685   8.356  15.735  1.00  0.00     0.008 C 
BRANCH  16  17
HETATM   17  C7  UNL     1      17.427   8.915  14.545  1.00  0.00     0.020 C 
BRANCH  17  18
HETATM   18  C8  UNL     1      18.780   8.274  14.370  1.00  0.00     0.121 C 
BRANCH  18  19
HETATM   19  N2  UNL     1      19.150   8.251  12.972  1.00  0.00    -0.380 N 
HETATM   20  C9  UNL     1      19.709   7.244  12.411  1.00  0.00     0.072 C 
HETATM   21  C10 UNL     1      20.100   7.195  10.970  1.00  0.00     0.077 C 
HETATM   22  N3  UNL     1      20.072   5.997  12.992  1.00  0.00    -0.380 N 
HETATM   23  C11 UNL     1      21.133   6.096  10.963  1.00  0.00     0.027 C 
HETATM   24  C12 UNL     1      20.515   5.092  11.942  1.00  0.00     0.121 C 
ATOM     25  H3  UNL     1      20.028   5.774  13.987  1.00  0.00     0.160 HD
ATOM     26  H2  UNL     1      18.957   9.077  12.405  1.00  0.00     0.160 HD
ENDBRANCH  18  19
ENDBRANCH  17  18
ENDBRANCH  16  17
ENDBRANCH  15  16
ENDBRANCH   6  15
BRANCH  13  27
HETATM   27  N7  UNL     1      16.650   1.793  14.653  1.00  0.00    -0.383 N 
ATOM     28  H72 UNL     1      15.861   1.436  15.191  1.00  0.00     0.157 HD
ATOM     29  H71 UNL     1      17.441   1.163  14.524  1.00  0.00     0.157 HD
ENDBRANCH  13  27
TORSDOF 6
ENDMDL
MODEL 2
REMARK VINA RESULT: -7.124603803      2.207      3.007
REMARK  6 active torsions:
REMARK  status: ('A' for Active; 'I' for Inactive)
REMARK    1  A    between atoms: C4_6  and  C5_7 
REMARK    2  A    between atoms: C5_7  and  C6_8 
REMARK    3  A    between atoms: C6_8  and  C7_9 
REMARK    4  A    between atoms: C7_9  and  C8_10 
REMARK    5  A    between atoms: C8_10  and  N2_11 
REMARK    6  A    between atoms: C14_25  and  N7_26 
ROOT
HETATM    1  N1  UNL     1      15.490   1.988  17.789  1.00  0.00    -0.191 NA
HETATM    2  C1  UNL     1      15.582   2.939  17.123  1.00  0.00     0.103 C 
HETATM    3  C2  UNL     1      15.674   4.086  16.299  1.00  0.00     0.099 A 
HETATM    4  C3  UNL     1      15.325   5.380  16.619  1.00  0.00     0.080 A 
HETATM    5 CL1  UNL     1      14.678   5.935  18.136  1.00  0.00    -0.081 Cl
HETATM    6  C4  UNL     1      15.581   6.170  15.518  1.00  0.00     0.041 A 
HETATM    7  N4  UNL     1      16.078   5.359  14.547  1.00  0.00    -0.304 N 
HETATM    8  C13 UNL     1      16.474   5.655  13.302  1.00  0.00     0.205 A 
HETATM    9  N5  UNL     1      16.933   4.667  12.520  1.00  0.00    -0.294 N 
ATOM     10  H5  UNL     1      17.236   4.886  11.571  1.00  0.00     0.187 HD
HETATM   11  N6  UNL     1      17.005   3.407  12.948  1.00  0.00    -0.283 N 
ATOM     12  H6  UNL     1      17.360   2.684  12.323  1.00  0.00     0.188 HD
HETATM   13  C14 UNL     1      16.616   3.072  14.193  1.00  0.00     0.143 A 
HETATM   14  C15 UNL     1      16.142   4.095  14.995  1.00  0.00     0.108 A 
ENDROOT
BRANCH   6  15
HETATM   15  C5  UNL     1      15.364   7.633  15.392  1.00  0.00     0.059 C 
BRANCH  15  16
HETATM   16  C6  UNL     1      16.545   8.404  15.963  1.00  0.00     0.008 C 
BRANCH  16  17
HETATM   17  C7  UNL     1      17.550   8.728  14.885  1.00  0.00     0.020 C 
BRANCH  17  18
HETATM   18  C8  UNL     1      18.487   9.835  15.298  1.00  0.00     0.121 C 
BRANCH  18  19
HETATM   19  N2  UNL     1      19.603   9.919  14.382  1.00  0.00    -0.380 N 
HETATM   20  C9  UNL     1      20.455  10.876  14.401  1.00  0.00     0.072 C 
HETATM   21  C10 UNL     1      21.615  10.986  13.467  1.00  0.00     0.077 C 
HETATM   22  N3  UNL     1      20.498  12.003  15.268  1.00  0.00    -0.380 N 
HETATM   23  C11 UNL     1      21.944  12.456  13.548  1.00  0.00     0.027 C 
HETATM   24  C12 UNL     1      21.739  12.731  15.042  1.00  0.00     0.121 C 
ATOM     25  H3  UNL     1      19.776  12.259  15.941  1.00  0.00     0.160 HD
ATOM     26  H2  UNL     1      19.718   9.181  13.687  1.00  0.00     0.160 HD
ENDBRANCH  18  19
ENDBRANCH  17  18
ENDBRANCH  16  17
ENDBRANCH  15  16
ENDBRANCH   6  15
BRANCH  13  27
HETATM   27  N7  UNL     1      16.668   1.862  14.652  1.00  0.00    -0.383 N 
ATOM     28  H72 UNL     1      17.384   1.219  14.314  1.00  0.00     0.157 HD
ATOM     29  H71 UNL     1      16.019   1.500  15.352  1.00  0.00     0.157 HD
ENDBRANCH  13  27
TORSDOF 6
ENDMDL
MODEL 3
REMARK VINA RESULT: -7.123561052      1.500      2.807
REMARK  6 active torsions:
REMARK  status: ('A' for Active; 'I' for Inactive)
REMARK    1  A    between atoms: C4_6  and  C5_7 
REMARK    2  A    between atoms: C5_7  and  C6_8 
REMARK    3  A    between atoms: C6_8  and  C7_9 
REMARK    4  A    between atoms: C7_9  and  C8_10 
REMARK    5  A    between atoms: C8_10  and  N2_11 
REMARK    6  A    between atoms: C14_25  and  N7_26 
ROOT
HETATM    1  N1  UNL     1      17.033   2.525  12.632  1.00  0.00    -0.191 NA
HETATM    2  C1  UNL     1      16.682   3.355  13.368  1.00  0.00     0.103 C 
HETATM    3  C2  UNL     1      16.278   4.364  14.275  1.00  0.00     0.099 A 
HETATM    4  C3  UNL     1      16.149   5.713  14.028  1.00  0.00     0.080 A 
HETATM    5 CL1  UNL     1      16.454   6.526  12.520  1.00  0.00    -0.081 Cl
HETATM    6  C4  UNL     1      15.731   6.317  15.196  1.00  0.00     0.041 A 
HETATM    7  N4  UNL     1      15.611   5.341  16.133  1.00  0.00    -0.304 N 
HETATM    8  C13 UNL     1      15.236   5.427  17.417  1.00  0.00     0.205 A 
HETATM    9  N5  UNL     1      15.195   4.305  18.152  1.00  0.00    -0.294 N 
ATOM     10  H5  UNL     1      14.912   4.364  19.130  1.00  0.00     0.187 HD
HETATM   11  N6  UNL     1      15.515   3.117  17.640  1.00  0.00    -0.283 N 
ATOM     12  H6  UNL     1      15.470   2.288  18.232  1.00  0.00     0.188 HD
HETATM   13  C14 UNL     1      15.894   2.992  16.354  1.00  0.00     0.143 A 
HETATM   14  C15 UNL     1      15.936   4.153  15.601  1.00  0.00     0.108 A 
ENDROOT
BRANCH   6  15
HETATM   15  C5  UNL     1      15.457   7.760  15.412  1.00  0.00     0.059 C 
BRANCH  15  16
HETATM   16  C6  UNL     1      16.720   8.490  15.845  1.00  0.00     0.008 C 
BRANCH  16  17
HETATM   17  C7  UNL     1      17.480   9.007  14.647  1.00  0.00     0.020 C 
BRANCH  17  18
HETATM   18  C8  UNL     1      18.921   8.563  14.657  1.00  0.00     0.121 C 
BRANCH  18  19
HETATM   19  N2  UNL     1      19.450   8.536  13.311  1.00  0.00    -0.380 N 
HETATM   20  C9  UNL     1      19.787   7.454  12.713  1.00  0.00     0.072 C 
HETATM   21  C10 UNL     1      20.335   7.399  11.324  1.00  0.00     0.077 C 
HETATM   22  N3  UNL     1      19.726   6.119  13.200  1.00  0.00    -0.380 N 
HETATM   23  C11 UNL     1      21.029   6.059  11.314  1.00  0.00     0.027 C 
HETATM   24  C12 UNL     1      20.043   5.201  12.115  1.00  0.00     0.121 C 
ATOM     25  H3  UNL     1      19.496   5.849  14.156  1.00  0.00     0.160 HD
ATOM     26  H2  UNL     1      19.559   9.420  12.814  1.00  0.00     0.160 HD
ENDBRANCH  18  19
ENDBRANCH  17  18
ENDBRANCH  16  17
ENDBRANCH  15  16
ENDBRANCH   6  15
BRANCH  13  27
HETATM   27  N7  UNL     1      16.213   1.859  15.814  1.00  0.00    -0.383 N 
ATOM     28  H72 UNL     1      16.107   0.995  16.345  1.00  0.00     0.157 HD
ATOM     29  H71 UNL     1      16.574   1.774  14.864  1.00  0.00     0.157 HD
ENDBRANCH  13  27
TORSDOF 6
ENDMDL
MODEL 4
REMARK VINA RESULT: -7.083931080      1.849      2.982
REMARK  6 active torsions:
REMARK  status: ('A' for Active; 'I' for Inactive)
REMARK    1  A    between atoms: C4_6  and  C5_7 
REMARK    2  A    between atoms: C5_7  and  C6_8 
REMARK    3  A    between atoms: C6_8  and  C7_9 
REMARK    4  A    between atoms: C7_9  and  C8_10 
REMARK    5  A    between atoms: C8_10  and  N2_11 
REMARK    6  A    between atoms: C14_25  and  N7_26 
ROOT
HETATM    1  N1  UNL     1      15.484   2.634  18.447  1.00  0.00    -0.191 NA
HETATM    2  C1  UNL     1      15.499   3.331  17.516  1.00  0.00     0.103 C 
HETATM    3  C2  UNL     1      15.499   4.166  16.372  1.00  0.00     0.099 A 
HETATM    4  C3  UNL     1      15.033   5.459  16.276  1.00  0.00     0.080 A 
HETATM    5 CL1  UNL     1      14.321   6.403  17.553  1.00  0.00    -0.081 Cl
HETATM    6  C4  UNL     1      15.231   5.883  14.978  1.00  0.00     0.041 A 
HETATM    7  N4  UNL     1      15.809   4.855  14.303  1.00  0.00    -0.304 N 
HETATM    8  C13 UNL     1      16.193   4.780  13.021  1.00  0.00     0.205 A 
HETATM    9  N5  UNL     1      16.747   3.640  12.581  1.00  0.00    -0.294 N 
ATOM     10  H5  UNL     1      17.041   3.576  11.606  1.00  0.00     0.187 HD
HETATM   11  N6  UNL     1      16.925   2.590  13.382  1.00  0.00    -0.283 N 
ATOM     12  H6  UNL     1      17.350   1.741  13.008  1.00  0.00     0.188 HD
HETATM   13  C14 UNL     1      16.552   2.629  14.675  1.00  0.00     0.143 A 
HETATM   14  C15 UNL     1      15.980   3.807  15.123  1.00  0.00     0.108 A 
ENDROOT
BRANCH   6  15
HETATM   15  C5  UNL     1      14.887   7.208  14.404  1.00  0.00     0.059 C 
BRANCH  15  16
HETATM   16  C6  UNL     1      16.075   8.156  14.485  1.00  0.00     0.008 C 
BRANCH  16  17
HETATM   17  C7  UNL     1      16.631   8.441  13.110  1.00  0.00     0.020 C 
BRANCH  17  18
HETATM   18  C8  UNL     1      18.136   8.365  13.083  1.00  0.00     0.121 C 
BRANCH  18  19
HETATM   19  N2  UNL     1      18.693   8.966  14.275  1.00  0.00    -0.380 N 
HETATM   20  C9  UNL     1      19.052  10.194  14.338  1.00  0.00     0.072 C 
HETATM   21  C10 UNL     1      19.629  10.838  15.556  1.00  0.00     0.077 C 
HETATM   22  N3  UNL     1      18.990  11.187  13.321  1.00  0.00    -0.380 N 
HETATM   23  C11 UNL     1      20.333  12.038  14.972  1.00  0.00     0.027 C 
HETATM   24  C12 UNL     1      19.337  12.480  13.894  1.00  0.00     0.121 C 
ATOM     25  H3  UNL     1      18.742  11.019  12.346  1.00  0.00     0.160 HD
ATOM     26  H2  UNL     1      18.807   8.384  15.105  1.00  0.00     0.160 HD
ENDBRANCH  18  19
ENDBRANCH  17  18
ENDBRANCH  16  17
ENDBRANCH  15  16
ENDBRANCH   6  15
BRANCH  13  27
HETATM   27  N7  UNL     1      16.705   1.634  15.489  1.00  0.00    -0.383 N 
ATOM     28  H72 UNL     1      16.367   1.705  16.448  1.00  0.00     0.157 HD
ATOM     29  H71 UNL     1      17.156   0.758  15.224  1.00  0.00     0.157 HD
ENDBRANCH  13  27
TORSDOF 6
ENDMDL
MODEL 5
REMARK VINA RESULT: -7.082850977      3.261      3.887
REMARK  6 active torsions:
REMARK  status: ('A' for Active; 'I' for Inactive)
REMARK    1  A    between atoms: C4_6  and  C5_7 
REMARK    2  A    between atoms: C5_7  and  C6_8 
REMARK    3  A    between atoms: C6_8  and  C7_9 
REMARK    4  A    between atoms: C7_9  and  C8_10 
REMARK    5  A    between atoms: C8_10  and  N2_11 
REMARK    6  A    between atoms: C14_25  and  N7_26 
ROOT
HETATM    1  N1  UNL     1      15.499   2.560  18.232  1.00  0.00    -0.191 NA
HETATM    2  C1  UNL     1      15.542   3.286  17.323  1.00  0.00     0.103 C 
HETATM    3  C2  UNL     1      15.577   4.156  16.206  1.00  0.00     0.099 A 
HETATM    4  C3  UNL     1      15.148   5.463  16.147  1.00  0.00     0.080 A 
HETATM    5 CL1  UNL     1      14.450   6.386  17.446  1.00  0.00    -0.081 Cl
HETATM    6  C4  UNL     1      15.371   5.922  14.865  1.00  0.00     0.041 A 
HETATM    7  N4  UNL     1      15.926   4.900  14.162  1.00  0.00    -0.304 N 
HETATM    8  C13 UNL     1      16.320   4.854  12.882  1.00  0.00     0.205 A 
HETATM    9  N5  UNL     1      16.847   3.714  12.412  1.00  0.00    -0.294 N 
ATOM     10  H5  UNL     1      17.148   3.672  11.438  1.00  0.00     0.187 HD
HETATM   11  N6  UNL     1      16.988   2.635  13.180  1.00  0.00    -0.283 N 
ATOM     12  H6  UNL     1      17.393   1.786  12.784  1.00  0.00     0.188 HD
HETATM   13  C14 UNL     1      16.604   2.643  14.470  1.00  0.00     0.143 A 
HETATM   14  C15 UNL     1      16.060   3.822  14.951  1.00  0.00     0.108 A 
ENDROOT
BRANCH   6  15
HETATM   15  C5  UNL     1      15.069   7.273  14.330  1.00  0.00     0.059 C 
BRANCH  15  16
HETATM   16  C6  UNL     1      16.316   8.146  14.333  1.00  0.00     0.008 C 
BRANCH  16  17
HETATM   17  C7  UNL     1      16.630   8.642  12.943  1.00  0.00     0.020 C 
BRANCH  17  18
HETATM   18  C8  UNL     1      15.381   8.936  12.151  1.00  0.00     0.121 C 
BRANCH  18  19
HETATM   19  N2  UNL     1      15.627   8.758  10.737  1.00  0.00    -0.380 N 
HETATM   20  C9  UNL     1      14.762   9.041   9.834  1.00  0.00     0.072 C 
HETATM   21  C10 UNL     1      14.991   8.867   8.369  1.00  0.00     0.077 C 
HETATM   22  N3  UNL     1      13.448   9.561  10.001  1.00  0.00    -0.380 N 
HETATM   23  C11 UNL     1      13.581   8.824   7.834  1.00  0.00     0.027 C 
HETATM   24  C12 UNL     1      12.897   9.892   8.694  1.00  0.00     0.121 C 
ATOM     25  H3  UNL     1      12.969   9.682  10.893  1.00  0.00     0.160 HD
ATOM     26  H2  UNL     1      16.531   8.390  10.444  1.00  0.00     0.160 HD
ENDBRANCH  18  19
ENDBRANCH  17  18
ENDBRANCH  16  17
ENDBRANCH  15  16
ENDBRANCH   6  15
BRANCH  13  27
HETATM   27  N7  UNL     1      16.721   1.619  15.254  1.00  0.00    -0.383 N 
ATOM     28  H72 UNL     1      16.191   0.769  15.064  1.00  0.00     0.157 HD
ATOM     29  H71 UNL     1      17.329   1.608  16.074  1.00  0.00     0.157 HD
ENDBRANCH  13  27
TORSDOF 6
ENDMDL
