MODEL 1
REMARK VINA RESULT: -7.481870254      0.000      0.000
REMARK  6 active torsions:
REMARK  status: ('A' for Active; 'I' for Inactive)
REMARK    1  A    between atoms: C2_2  and  C3_3 
REMARK    2  A    between atoms: C3_3  and  O1_4 
REMARK    3  A    between atoms: C3_3  and  C4_6 
REMARK    4  A    between atoms: C4_6  and  C5_8 
REMARK    5  A    between atoms: C4_6  and  S1_10 
REMARK    6  A    between atoms: S1_10  and  C7_12 
ROOT
HETATM    1  C7  UNL     1      16.695   4.122  13.986  1.00  0.00     0.178 A 
HETATM    2  N1  UNL     1      16.404   3.527  12.816  1.00  0.00    -0.344 N 
ATOM      3  H1  UNL     1      15.907   2.636  12.832  1.00  0.00     0.167 HD
HETATM    4  C8  UNL     1      16.740   4.056  11.628  1.00  0.00     0.107 A 
HETATM    5  C9  UNL     1      17.409   5.255  11.599  1.00  0.00     0.048 A 
HETATM    6  C10 UNL     1      17.722   5.892  12.783  1.00  0.00     0.054 A 
HETATM    7  N2  UNL     1      17.350   5.295  13.925  1.00  0.00    -0.335 N 
ATOM      8  H2  UNL     1      17.578   5.761  14.803  1.00  0.00     0.168 HD
HETATM    9  C11 UNL     1      18.441   7.164  12.487  1.00  0.00     0.068 A 
HETATM   10  C12 UNL     1      17.653   8.349  13.033  1.00  0.00     0.045 C 
HETATM   11  C13 UNL     1      19.803   7.131  13.172  1.00  0.00     0.045 C 
HETATM   12  N3  UNL     1      18.532   7.238  11.068  1.00  0.00    -0.362 N 
ATOM     13  H3  UNL     1      18.971   7.991  10.538  1.00  0.00     0.162 HD
HETATM   14  C14 UNL     1      17.917   6.099  10.517  1.00  0.00     0.109 A 
HETATM   15  N4  UNL     1      17.801   5.811   9.266  1.00  0.00    -0.385 N 
ATOM     16  H41 UNL     1      18.154   6.399   8.511  1.00  0.00     0.157 HD
ATOM     17  H42 UNL     1      17.355   4.985   8.867  1.00  0.00     0.157 HD
ENDROOT
BRANCH   1  18
HETATM   18  S1  UNL     1      16.245   3.412  15.509  1.00  0.00     0.127 S 
HETATM   19  O2  UNL     1      17.514   3.251  16.560  1.00  0.00    -0.246 OA
BRANCH  18  20
HETATM   20  C4  UNL     1      14.857   4.241  16.243  1.00  0.00     0.212 C 
HETATM   21  F1  UNL     1      14.092   4.820  15.251  1.00  0.00    -0.225 F 
BRANCH  20  22
HETATM   22  C3  UNL     1      15.395   5.316  17.147  1.00  0.00     0.171 C 
BRANCH  22  23
HETATM   23  C2  UNL     1      14.785   6.663  16.889  1.00  0.00     0.031 C 
HETATM   24  C1  UNL     1      15.812   7.472  16.101  1.00  0.00     0.007 C 
ENDBRANCH  22  23
BRANCH  22  25
HETATM   25  O1  UNL     1      15.071   4.967  18.476  1.00  0.00    -0.391 OA
ATOM     26  H1  UNL     1      15.453   4.112  18.637  1.00  0.00     0.210 HD
ENDBRANCH  22  25
ENDBRANCH  20  22
BRANCH  20  27
HETATM   27  C5  UNL     1      14.010   3.240  16.977  1.00  0.00     0.056 C 
HETATM   28  C6  UNL     1      14.850   2.024  17.284  1.00  0.00     0.009 C 
ENDBRANCH  20  27
ENDBRANCH  18  20
ENDBRANCH   1  18
TORSDOF 6
ENDMDL
MODEL 2
REMARK VINA RESULT: -7.021429983      1.695      2.363
REMARK  6 active torsions:
REMARK  status: ('A' for Active; 'I' for Inactive)
REMARK    1  A    between atoms: C2_2  and  C3_3 
REMARK    2  A    between atoms: C3_3  and  O1_4 
REMARK    3  A    between atoms: C3_3  and  C4_6 
REMARK    4  A    between atoms: C4_6  and  C5_8 
REMARK    5  A    between atoms: C4_6  and  S1_10 
REMARK    6  A    between atoms: S1_10  and  C7_12 
ROOT
HETATM    1  C7  UNL     1      16.685   3.890  12.923  1.00  0.00     0.178 A 
HETATM    2  N1  UNL     1      16.010   3.894  11.760  1.00  0.00    -0.344 N 
ATOM      3  H1  UNL     1      15.129   3.383  11.705  1.00  0.00     0.167 HD
HETATM    4  C8  UNL     1      16.446   4.544  10.668  1.00  0.00     0.107 A 
HETATM    5  C9  UNL     1      17.631   5.235  10.734  1.00  0.00     0.048 A 
HETATM    6  C10 UNL     1      18.348   5.251  11.913  1.00  0.00     0.054 A 
HETATM    7  N2  UNL     1      17.842   4.577  12.956  1.00  0.00    -0.335 N 
ATOM      8  H2  UNL     1      18.366   4.585  13.830  1.00  0.00     0.168 HD
HETATM    9  C11 UNL     1      19.586   6.062  11.730  1.00  0.00     0.068 A 
HETATM   10  C12 UNL     1      19.584   7.243  12.694  1.00  0.00     0.045 C 
HETATM   11  C13 UNL     1      20.797   5.188  12.036  1.00  0.00     0.045 C 
HETATM   12  N3  UNL     1      19.554   6.520  10.382  1.00  0.00    -0.362 N 
ATOM     13  H3  UNL     1      20.261   7.104   9.936  1.00  0.00     0.162 HD
HETATM   14  C14 UNL     1      18.387   6.033   9.768  1.00  0.00     0.109 A 
HETATM   15  N4  UNL     1      18.010   6.235   8.552  1.00  0.00    -0.385 N 
ATOM     16  H41 UNL     1      18.536   6.792   7.878  1.00  0.00     0.157 HD
ATOM     17  H42 UNL     1      17.163   5.882   8.107  1.00  0.00     0.157 HD
ENDROOT
BRANCH   1  18
HETATM   18  S1  UNL     1      16.094   3.040  14.320  1.00  0.00     0.127 S 
HETATM   19  O2  UNL     1      16.882   1.612  14.604  1.00  0.00    -0.246 OA
BRANCH  18  20
HETATM   20  C4  UNL     1      16.039   4.082  15.756  1.00  0.00     0.212 C 
HETATM   21  F1  UNL     1      17.317   4.488  16.077  1.00  0.00    -0.225 F 
BRANCH  20  22
HETATM   22  C3  UNL     1      15.477   3.267  16.888  1.00  0.00     0.171 C 
BRANCH  22  23
HETATM   23  C2  UNL     1      14.415   3.990  17.665  1.00  0.00     0.031 C 
HETATM   24  C1  UNL     1      15.048   4.425  18.985  1.00  0.00     0.007 C 
ENDBRANCH  22  23
BRANCH  22  25
HETATM   25  O1  UNL     1      14.870   2.118  16.337  1.00  0.00    -0.391 OA
ATOM     26  H1  UNL     1      14.989   2.169  15.396  1.00  0.00     0.210 HD
ENDBRANCH  22  25
ENDBRANCH  20  22
BRANCH  20  27
HETATM   27  C5  UNL     1      15.211   5.301  15.457  1.00  0.00     0.056 C 
HETATM   28  C6  UNL     1      16.094   6.522  15.546  1.00  0.00     0.009 C 
ENDBRANCH  20  27
ENDBRANCH  18  20
ENDBRANCH   1  18
TORSDOF 6
ENDMDL
MODEL 3
REMARK VINA RESULT: -6.986507382      1.901      2.842
REMARK  6 active torsions:
REMARK  status: ('A' for Active; 'I' for Inactive)
REMARK    1  A    between atoms: C2_2  and  C3_3 
REMARK    2  A    between atoms: C3_3  and  O1_4 
REMARK    3  A    between atoms: C3_3  and  C4_6 
REMARK    4  A    between atoms: C4_6  and  C5_8 
REMARK    5  A    between atoms: C4_6  and  S1_10 
REMARK    6  A    between atoms: S1_10  and  C7_12 
ROOT
HETATM    1  C7  UNL     1      16.565   5.191  12.532  1.00  0.00     0.178 A 
HETATM    2  N1  UNL     1      16.995   4.719  11.349  1.00  0.00    -0.344 N 
ATOM      3  H1  UNL     1      17.081   3.709  11.228  1.00  0.00     0.167 HD
HETATM    4  C8  UNL     1      17.315   5.520  10.320  1.00  0.00     0.107 A 
HETATM    5  C9  UNL     1      17.201   6.881  10.475  1.00  0.00     0.048 A 
HETATM    6  C10 UNL     1      16.762   7.397  11.677  1.00  0.00     0.054 A 
HETATM    7  N2  UNL     1      16.463   6.527  12.653  1.00  0.00    -0.335 N 
ATOM      8  H2  UNL     1      16.138   6.901  13.544  1.00  0.00     0.168 HD
HETATM    9  C11 UNL     1      16.726   8.885  11.594  1.00  0.00     0.068 A 
HETATM   10  C12 UNL     1      15.304   9.385  11.820  1.00  0.00     0.045 C 
HETATM   11  C13 UNL     1      17.622   9.461  12.685  1.00  0.00     0.045 C 
HETATM   12  N3  UNL     1      17.166   9.212  10.280  1.00  0.00    -0.362 N 
ATOM     13  H3  UNL     1      17.256  10.154   9.900  1.00  0.00     0.162 HD
HETATM   14  C14 UNL     1      17.456   8.020   9.593  1.00  0.00     0.109 A 
HETATM   15  N4  UNL     1      17.881   7.909   8.381  1.00  0.00    -0.385 N 
ATOM     16  H41 UNL     1      18.058   8.703   7.765  1.00  0.00     0.157 HD
ATOM     17  H42 UNL     1      18.092   7.044   7.882  1.00  0.00     0.157 HD
ENDROOT
BRANCH   1  18
HETATM   18  S1  UNL     1      16.156   4.127  13.846  1.00  0.00     0.127 S 
HETATM   19  O2  UNL     1      17.010   2.707  13.833  1.00  0.00    -0.246 OA
BRANCH  18  20
HETATM   20  C4  UNL     1      16.235   4.951  15.416  1.00  0.00     0.212 C 
HETATM   21  F1  UNL     1      17.405   5.679  15.494  1.00  0.00    -0.225 F 
BRANCH  20  22
HETATM   22  C3  UNL     1      16.236   3.893  16.486  1.00  0.00     0.171 C 
BRANCH  22  23
HETATM   23  C2  UNL     1      15.197   2.831  16.266  1.00  0.00     0.031 C 
HETATM   24  C1  UNL     1      14.188   2.955  17.405  1.00  0.00     0.007 C 
ENDBRANCH  22  23
BRANCH  22  25
HETATM   25  O1  UNL     1      17.491   3.249  16.458  1.00  0.00    -0.391 OA
ATOM     26  H1  UNL     1      18.150   3.926  16.561  1.00  0.00     0.210 HD
ENDBRANCH  22  25
ENDBRANCH  20  22
BRANCH  20  27
HETATM   27  C5  UNL     1      15.074   5.897  15.542  1.00  0.00     0.056 C 
HETATM   28  C6  UNL     1      15.076   6.487  16.931  1.00  0.00     0.009 C 
ENDBRANCH  20  27
ENDBRANCH  18  20
ENDBRANCH   1  18
TORSDOF 6
ENDMDL
MODEL 4
REMARK VINA RESULT: -6.877269128      1.866      2.953
REMARK  6 active torsions:
REMARK  status: ('A' for Active; 'I' for Inactive)
REMARK    1  A    between atoms: C2_2  and  C3_3 
REMARK    2  A    between atoms: C3_3  and  O1_4 
REMARK    3  A    between atoms: C3_3  and  C4_6 
REMARK    4  A    between atoms: C4_6  and  C5_8 
REMARK    5  A    between atoms: C4_6  and  S1_10 
REMARK    6  A    between atoms: S1_10  and  C7_12 
ROOT
HETATM    1  C7  UNL     1      17.203   5.177  12.886  1.00  0.00     0.178 A 
HETATM    2  N1  UNL     1      18.451   4.817  12.539  1.00  0.00    -0.344 N 
ATOM      3  H1  UNL     1      18.835   3.953  12.923  1.00  0.00     0.167 HD
HETATM    4  C8  UNL     1      19.214   5.545  11.708  1.00  0.00     0.107 A 
HETATM    5  C9  UNL     1      18.705   6.710  11.187  1.00  0.00     0.048 A 
HETATM    6  C10 UNL     1      17.427   7.107  11.522  1.00  0.00     0.054 A 
HETATM    7  N2  UNL     1      16.733   6.321  12.358  1.00  0.00    -0.335 N 
ATOM      8  H2  UNL     1      15.787   6.609  12.610  1.00  0.00     0.168 HD
HETATM    9  C11 UNL     1      17.110   8.391  10.833  1.00  0.00     0.068 A 
HETATM   10  C12 UNL     1      15.908   8.207   9.914  1.00  0.00     0.045 C 
HETATM   11  C13 UNL     1      16.761   9.441  11.883  1.00  0.00     0.045 C 
HETATM   12  N3  UNL     1      18.270   8.723  10.077  1.00  0.00    -0.362 N 
ATOM     13  H3  UNL     1      18.379   9.548   9.488  1.00  0.00     0.162 HD
HETATM   14  C14 UNL     1      19.239   7.724  10.277  1.00  0.00     0.109 A 
HETATM   15  N4  UNL     1      20.419   7.675   9.759  1.00  0.00    -0.385 N 
ATOM     16  H41 UNL     1      20.791   8.382   9.124  1.00  0.00     0.157 HD
ATOM     17  H42 UNL     1      21.122   6.951   9.905  1.00  0.00     0.157 HD
ENDROOT
BRANCH   1  18
HETATM   18  S1  UNL     1      16.240   4.210  13.963  1.00  0.00     0.127 S 
HETATM   19  O2  UNL     1      16.694   2.618  14.004  1.00  0.00    -0.246 OA
BRANCH  18  20
HETATM   20  C4  UNL     1      16.136   4.927  15.584  1.00  0.00     0.212 C 
HETATM   21  F1  UNL     1      17.196   5.792  15.772  1.00  0.00    -0.225 F 
BRANCH  20  22
HETATM   22  C3  UNL     1      16.226   3.807  16.584  1.00  0.00     0.171 C 
BRANCH  22  23
HETATM   23  C2  UNL     1      15.250   2.698  16.315  1.00  0.00     0.031 C 
HETATM   24  C1  UNL     1      14.135   2.827  17.351  1.00  0.00     0.007 C 
ENDBRANCH  22  23
BRANCH  22  25
HETATM   25  O1  UNL     1      17.517   3.246  16.493  1.00  0.00    -0.391 OA
ATOM     26  H1  UNL     1      17.586   2.599  17.185  1.00  0.00     0.210 HD
ENDBRANCH  22  25
ENDBRANCH  20  22
BRANCH  20  27
HETATM   27  C5  UNL     1      14.857   5.707  15.704  1.00  0.00     0.056 C 
HETATM   28  C6  UNL     1      14.868   6.462  17.011  1.00  0.00     0.009 C 
ENDBRANCH  20  27
ENDBRANCH  18  20
ENDBRANCH   1  18
TORSDOF 6
ENDMDL
MODEL 5
REMARK VINA RESULT: -6.720107937      1.963      2.952
REMARK  6 active torsions:
REMARK  status: ('A' for Active; 'I' for Inactive)
REMARK    1  A    between atoms: C2_2  and  C3_3 
REMARK    2  A    between atoms: C3_3  and  O1_4 
REMARK    3  A    between atoms: C3_3  and  C4_6 
REMARK    4  A    between atoms: C4_6  and  C5_8 
REMARK    5  A    between atoms: C4_6  and  S1_10 
REMARK    6  A    between atoms: S1_10  and  C7_12 
ROOT
HETATM    1  C7  UNL     1      17.525   5.314  13.291  1.00  0.00     0.178 A 
HETATM    2  N1  UNL     1      18.563   4.809  12.601  1.00  0.00    -0.344 N 
ATOM      3  H1  UNL     1      18.595   3.802  12.434  1.00  0.00     0.167 HD
HETATM    4  C8  UNL     1      19.558   5.572  12.120  1.00  0.00     0.107 A 
HETATM    5  C9  UNL     1      19.521   6.928  12.340  1.00  0.00     0.048 A 
HETATM    6  C10 UNL     1      18.469   7.478  13.044  1.00  0.00     0.054 A 
HETATM    7  N2  UNL     1      17.517   6.644  13.489  1.00  0.00    -0.335 N 
ATOM      8  H2  UNL     1      16.737   7.044  14.010  1.00  0.00     0.168 HD
HETATM    9  C11 UNL     1      18.659   8.953  13.147  1.00  0.00     0.068 A 
HETATM   10  C12 UNL     1      17.494   9.676  12.482  1.00  0.00     0.045 C 
HETATM   11  C13 UNL     1      18.694   9.344  14.621  1.00  0.00     0.045 C 
HETATM   12  N3  UNL     1      19.876   9.237  12.465  1.00  0.00    -0.362 N 
ATOM     13  H3  UNL     1      20.293  10.161  12.353  1.00  0.00     0.162 HD
HETATM   14  C14 UNL     1      20.408   8.032  11.973  1.00  0.00     0.109 A 
HETATM   15  N4  UNL     1      21.500   7.885  11.304  1.00  0.00    -0.385 N 
ATOM     16  H41 UNL     1      22.119   8.654  11.047  1.00  0.00     0.157 HD
ATOM     17  H42 UNL     1      21.886   7.011  10.947  1.00  0.00     0.157 HD
ENDROOT
BRANCH   1  18
HETATM   18  S1  UNL     1      16.252   4.298  13.899  1.00  0.00     0.127 S 
HETATM   19  O2  UNL     1      16.580   2.680  13.766  1.00  0.00    -0.246 OA
BRANCH  18  20
HETATM   20  C4  UNL     1      15.764   4.757  15.543  1.00  0.00     0.212 C 
HETATM   21  F1  UNL     1      16.882   5.109  16.271  1.00  0.00    -0.225 F 
BRANCH  20  22
HETATM   22  C3  UNL     1      15.115   3.558  16.177  1.00  0.00     0.171 C 
BRANCH  22  23
HETATM   23  C2  UNL     1      15.742   3.172  17.486  1.00  0.00     0.031 C 
HETATM   24  C1  UNL     1      15.002   3.945  18.576  1.00  0.00     0.007 C 
ENDBRANCH  22  23
BRANCH  22  25
HETATM   25  O1  UNL     1      13.770   3.885  16.448  1.00  0.00    -0.391 OA
ATOM     26  H1  UNL     1      13.781   4.635  17.032  1.00  0.00     0.210 HD
ENDBRANCH  22  25
ENDBRANCH  20  22
BRANCH  20  27
HETATM   27  C5  UNL     1      14.843   5.943  15.476  1.00  0.00     0.056 C 
HETATM   28  C6  UNL     1      15.416   7.051  16.327  1.00  0.00     0.009 C 
ENDBRANCH  20  27
ENDBRANCH  18  20
ENDBRANCH   1  18
TORSDOF 6
ENDMDL
