MODEL 1
REMARK VINA RESULT: -6.076943217      0.000      0.000
REMARK  6 active torsions:
REMARK  status: ('A' for Active; 'I' for Inactive)
REMARK       I    between atoms: C1_4  and  N3_6 
REMARK       I    between atoms: N3_6  and  C2_8 
REMARK    1  A    between atoms: C2_8  and  C3_10 
REMARK    2  A    between atoms: C3_10  and  O2_11 
REMARK    3  A    between atoms: O2_11  and  C4_12 
REMARK    4  A    between atoms: C4_12  and  C5_13 
REMARK    5  A    between atoms: C7_15  and  N4_16 
REMARK    6  A    between atoms: C8_21  and  N5_22 
ROOT
HETATM    1  C5  UNL     1      16.586  44.681  15.815  1.00  0.00     0.053 C 
HETATM    2  C6  UNL     1      16.513  43.283  16.422  1.00  0.00     0.053 C 
HETATM    3  C7  UNL     1      16.342  42.321  15.308  1.00  0.00     0.247 C 
HETATM    4  S1  UNL     1      17.302  43.055  13.954  1.00  0.00    -0.103 SA
HETATM    5  C8  UNL     1      17.641  44.678  14.782  1.00  0.00     0.252 C 
ENDROOT
BRANCH   1   6
HETATM    6  C4  UNL     1      16.818  45.630  16.927  1.00  0.00     0.175 C 
BRANCH   6   7
HETATM    7  O2  UNL     1      16.914  46.939  16.749  1.00  0.00    -0.382 OA
BRANCH   7   8
HETATM    8  C3  UNL     1      18.019  47.680  16.856  1.00  0.00     0.270 C 
BRANCH   8   9
HETATM    9  C2  UNL     1      17.783  49.125  16.498  1.00  0.00     0.247 C 
HETATM   10  N3  UNL     1      18.380  49.632  15.340  1.00  0.00    -0.300 N 
HETATM   11  C1  UNL     1      18.167  50.994  14.988  1.00  0.00     0.188 C 
ATOM     12  H3  UNL     1      18.962  49.032  14.755  1.00  0.00     0.171 HD
HETATM   13  N1  UNL     1      18.717  51.450  13.927  1.00  0.00    -0.373 N 
HETATM   14  N2  UNL     1      17.363  51.819  15.801  1.00  0.00    -0.064 NA
ATOM     15  H12 UNL     1      18.563  52.426  13.674  1.00  0.00     0.158 HD
ATOM     16  H11 UNL     1      19.298  50.853  13.339  1.00  0.00     0.158 HD
HETATM   17  O1  UNL     1      17.078  49.811  17.229  1.00  0.00    -0.271 OA
ENDBRANCH   8   9
ENDBRANCH   7   8
ENDBRANCH   6   7
ENDBRANCH   1   6
BRANCH   5  18
HETATM   18  N5  UNL     1      18.986  44.571  15.257  1.00  0.00    -0.066 N 
ATOM     19  H53 UNL     1      19.477  45.452  15.105  1.00  0.00     0.275 HD
ATOM     20  H52 UNL     1      18.990  44.530  16.276  1.00  0.00     0.275 HD
ATOM     21  H51 UNL     1      19.536  43.800  14.878  1.00  0.00     0.275 HD
ENDBRANCH   5  18
BRANCH   3  22
HETATM   22  N4  UNL     1      14.995  42.107  14.888  1.00  0.00    -0.066 N 
ATOM     23  H43 UNL     1      14.978  41.540  14.041  1.00  0.00     0.275 HD
ATOM     24  H42 UNL     1      14.522  41.476  15.535  1.00  0.00     0.275 HD
ATOM     25  H41 UNL     1      14.440  42.952  14.755  1.00  0.00     0.275 HD
ENDBRANCH   3  22
TORSDOF 6
ENDMDL
MODEL 2
REMARK VINA RESULT: -6.061674281      2.724      6.651
REMARK  6 active torsions:
REMARK  status: ('A' for Active; 'I' for Inactive)
REMARK       I    between atoms: C1_4  and  N3_6 
REMARK       I    between atoms: N3_6  and  C2_8 
REMARK    1  A    between atoms: C2_8  and  C3_10 
REMARK    2  A    between atoms: C3_10  and  O2_11 
REMARK    3  A    between atoms: O2_11  and  C4_12 
REMARK    4  A    between atoms: C4_12  and  C5_13 
REMARK    5  A    between atoms: C7_15  and  N4_16 
REMARK    6  A    between atoms: C8_21  and  N5_22 
ROOT
HETATM    1  C5  UNL     1      17.709  48.674  16.367  1.00  0.00     0.053 C 
HETATM    2  C6  UNL     1      17.495  49.285  14.985  1.00  0.00     0.053 C 
HETATM    3  C7  UNL     1      17.742  50.742  15.099  1.00  0.00     0.247 C 
HETATM    4  S1  UNL     1      19.066  50.860  16.334  1.00  0.00    -0.103 SA
HETATM    5  C8  UNL     1      19.047  49.078  16.845  1.00  0.00     0.252 C 
ENDROOT
BRANCH   1   6
HETATM    6  C4  UNL     1      17.522  47.212  16.232  1.00  0.00     0.175 C 
BRANCH   6   7
HETATM    7  O2  UNL     1      18.217  46.472  15.381  1.00  0.00    -0.382 OA
BRANCH   7   8
HETATM    8  C3  UNL     1      18.616  45.211  15.560  1.00  0.00     0.270 C 
BRANCH   8   9
HETATM    9  C2  UNL     1      17.479  44.225  15.463  1.00  0.00     0.247 C 
HETATM   10  N3  UNL     1      17.166  43.691  14.210  1.00  0.00    -0.300 N 
HETATM   11  C1  UNL     1      16.097  42.759  14.101  1.00  0.00     0.188 C 
ATOM     12  H3  UNL     1      17.698  43.966  13.384  1.00  0.00     0.171 HD
HETATM   13  N1  UNL     1      15.816  42.274  12.950  1.00  0.00    -0.373 N 
HETATM   14  N2  UNL     1      15.363  42.383  15.245  1.00  0.00    -0.064 NA
ATOM     15  H12 UNL     1      15.049  41.605  12.873  1.00  0.00     0.158 HD
ATOM     16  H11 UNL     1      16.346  42.546  12.123  1.00  0.00     0.158 HD
HETATM   17  O1  UNL     1      16.866  43.923  16.479  1.00  0.00    -0.271 OA
ENDBRANCH   8   9
ENDBRANCH   7   8
ENDBRANCH   6   7
ENDBRANCH   1   6
BRANCH   5  18
HETATM   18  N5  UNL     1      20.161  48.493  16.167  1.00  0.00    -0.066 N 
ATOM     19  H53 UNL     1      20.970  48.470  16.788  1.00  0.00     0.275 HD
ATOM     20  H52 UNL     1      20.000  47.494  16.036  1.00  0.00     0.275 HD
ATOM     21  H51 UNL     1      20.421  48.920  15.278  1.00  0.00     0.275 HD
ENDBRANCH   5  18
BRANCH   3  22
HETATM   22  N4  UNL     1      16.619  51.520  15.514  1.00  0.00    -0.066 N 
ATOM     23  H43 UNL     1      16.139  51.904  14.700  1.00  0.00     0.275 HD
ATOM     24  H42 UNL     1      15.888  50.912  15.883  1.00  0.00     0.275 HD
ATOM     25  H41 UNL     1      16.826  52.263  16.181  1.00  0.00     0.275 HD
ENDBRANCH   3  22
TORSDOF 6
ENDMDL
MODEL 3
REMARK VINA RESULT: -6.045541470      3.508      5.286
REMARK  6 active torsions:
REMARK  status: ('A' for Active; 'I' for Inactive)
REMARK       I    between atoms: C1_4  and  N3_6 
REMARK       I    between atoms: N3_6  and  C2_8 
REMARK    1  A    between atoms: C2_8  and  C3_10 
REMARK    2  A    between atoms: C3_10  and  O2_11 
REMARK    3  A    between atoms: O2_11  and  C4_12 
REMARK    4  A    between atoms: C4_12  and  C5_13 
REMARK    5  A    between atoms: C7_15  and  N4_16 
REMARK    6  A    between atoms: C8_21  and  N5_22 
ROOT
HETATM    1  C5  UNL     1      18.856  49.357  15.984  1.00  0.00     0.053 C 
HETATM    2  C6  UNL     1      17.761  48.489  15.370  1.00  0.00     0.053 C 
HETATM    3  C7  UNL     1      17.678  47.244  16.168  1.00  0.00     0.247 C 
HETATM    4  S1  UNL     1      18.048  47.790  17.858  1.00  0.00    -0.103 SA
HETATM    5  C8  UNL     1      18.561  49.517  17.422  1.00  0.00     0.252 C 
ENDROOT
BRANCH   1   6
HETATM    6  C4  UNL     1      18.891  50.624  15.220  1.00  0.00     0.175 C 
BRANCH   6   7
HETATM    7  O2  UNL     1      17.801  51.307  14.907  1.00  0.00    -0.382 OA
BRANCH   7   8
HETATM    8  C3  UNL     1      17.654  52.633  14.934  1.00  0.00     0.270 C 
BRANCH   8   9
HETATM    9  C2  UNL     1      16.207  53.055  14.903  1.00  0.00     0.247 C 
HETATM   10  N3  UNL     1      15.634  53.380  13.670  1.00  0.00    -0.300 N 
HETATM   11  C1  UNL     1      14.269  53.780  13.623  1.00  0.00     0.188 C 
ATOM     12  H3  UNL     1      16.187  53.330  12.815  1.00  0.00     0.171 HD
HETATM   13  N1  UNL     1      13.751  54.075  12.491  1.00  0.00    -0.373 N 
HETATM   14  N2  UNL     1      13.508  53.848  14.809  1.00  0.00    -0.064 NA
ATOM     15  H12 UNL     1      12.772  54.362  12.458  1.00  0.00     0.158 HD
ATOM     16  H11 UNL     1      14.301  54.026  11.634  1.00  0.00     0.158 HD
HETATM   17  O1  UNL     1      15.579  53.102  15.954  1.00  0.00    -0.271 OA
ENDBRANCH   8   9
ENDBRANCH   7   8
ENDBRANCH   6   7
ENDBRANCH   1   6
BRANCH   5  18
HETATM   18  N5  UNL     1      17.427  50.327  17.745  1.00  0.00    -0.066 N 
ATOM     19  H53 UNL     1      16.620  49.731  17.930  1.00  0.00     0.275 HD
ATOM     20  H52 UNL     1      17.557  50.752  18.664  1.00  0.00     0.275 HD
ATOM     21  H51 UNL     1      17.179  51.044  17.064  1.00  0.00     0.275 HD
ENDBRANCH   5  18
BRANCH   3  22
HETATM   22  N4  UNL     1      18.583  46.210  15.782  1.00  0.00    -0.066 N 
ATOM     23  H43 UNL     1      18.842  46.319  14.802  1.00  0.00     0.275 HD
ATOM     24  H42 UNL     1      19.491  46.355  16.225  1.00  0.00     0.275 HD
ATOM     25  H41 UNL     1      18.258  45.259  15.955  1.00  0.00     0.275 HD
ENDBRANCH   3  22
TORSDOF 6
ENDMDL
MODEL 4
REMARK VINA RESULT: -5.993661268      2.779      6.759
REMARK  6 active torsions:
REMARK  status: ('A' for Active; 'I' for Inactive)
REMARK       I    between atoms: C1_4  and  N3_6 
REMARK       I    between atoms: N3_6  and  C2_8 
REMARK    1  A    between atoms: C2_8  and  C3_10 
REMARK    2  A    between atoms: C3_10  and  O2_11 
REMARK    3  A    between atoms: O2_11  and  C4_12 
REMARK    4  A    between atoms: C4_12  and  C5_13 
REMARK    5  A    between atoms: C7_15  and  N4_16 
REMARK    6  A    between atoms: C8_21  and  N5_22 
ROOT
HETATM    1  C5  UNL     1      17.568  49.624  15.335  1.00  0.00     0.053 C 
HETATM    2  C6  UNL     1      18.858  50.421  15.156  1.00  0.00     0.053 C 
HETATM    3  C7  UNL     1      18.484  51.769  14.667  1.00  0.00     0.247 C 
HETATM    4  S1  UNL     1      16.905  52.105  15.493  1.00  0.00    -0.103 SA
HETATM    5  C8  UNL     1      16.662  50.408  16.198  1.00  0.00     0.252 C 
ENDROOT
BRANCH   1   6
HETATM    6  C4  UNL     1      17.944  48.301  15.882  1.00  0.00     0.175 C 
BRANCH   6   7
HETATM    7  O2  UNL     1      17.065  47.464  16.412  1.00  0.00    -0.382 OA
BRANCH   7   8
HETATM    8  C3  UNL     1      17.320  46.263  16.935  1.00  0.00     0.270 C 
BRANCH   8   9
HETATM    9  C2  UNL     1      16.944  45.137  16.007  1.00  0.00     0.247 C 
HETATM   10  N3  UNL     1      17.743  44.902  14.885  1.00  0.00    -0.300 N 
HETATM   11  C1  UNL     1      17.401  43.842  13.999  1.00  0.00     0.188 C 
ATOM     12  H3  UNL     1      18.560  45.484  14.703  1.00  0.00     0.171 HD
HETATM   13  N1  UNL     1      18.137  43.633  12.973  1.00  0.00    -0.373 N 
HETATM   14  N2  UNL     1      16.269  43.041  14.254  1.00  0.00    -0.064 NA
ATOM     15  H12 UNL     1      17.892  42.873  12.339  1.00  0.00     0.158 HD
ATOM     16  H11 UNL     1      18.956  44.213  12.789  1.00  0.00     0.158 HD
HETATM   17  O1  UNL     1      15.953  44.463  16.263  1.00  0.00    -0.271 OA
ENDBRANCH   8   9
ENDBRANCH   7   8
ENDBRANCH   6   7
ENDBRANCH   1   6
BRANCH   5  18
HETATM   18  N5  UNL     1      17.044  50.526  17.571  1.00  0.00    -0.066 N 
ATOM     19  H53 UNL     1      17.904  51.070  17.644  1.00  0.00     0.275 HD
ATOM     20  H52 UNL     1      16.394  51.141  18.059  1.00  0.00     0.275 HD
ATOM     21  H51 UNL     1      17.145  49.651  18.085  1.00  0.00     0.275 HD
ENDBRANCH   5  18
BRANCH   3  22
HETATM   22  N4  UNL     1      18.328  51.884  13.253  1.00  0.00    -0.066 N 
ATOM     23  H43 UNL     1      17.413  52.276  13.032  1.00  0.00     0.275 HD
ATOM     24  H42 UNL     1      18.931  52.623  12.892  1.00  0.00     0.275 HD
ATOM     25  H41 UNL     1      18.476  51.023  12.727  1.00  0.00     0.275 HD
ENDBRANCH   3  22
TORSDOF 6
ENDMDL
MODEL 5
REMARK VINA RESULT: -5.942409208      1.394      1.503
REMARK  6 active torsions:
REMARK  status: ('A' for Active; 'I' for Inactive)
REMARK       I    between atoms: C1_4  and  N3_6 
REMARK       I    between atoms: N3_6  and  C2_8 
REMARK    1  A    between atoms: C2_8  and  C3_10 
REMARK    2  A    between atoms: C3_10  and  O2_11 
REMARK    3  A    between atoms: O2_11  and  C4_12 
REMARK    4  A    between atoms: C4_12  and  C5_13 
REMARK    5  A    between atoms: C7_15  and  N4_16 
REMARK    6  A    between atoms: C8_21  and  N5_22 
ROOT
HETATM    1  C5  UNL     1      17.953  45.174  14.902  1.00  0.00     0.053 C 
HETATM    2  C6  UNL     1      16.653  44.418  15.165  1.00  0.00     0.053 C 
HETATM    3  C7  UNL     1      16.899  42.989  14.860  1.00  0.00     0.247 C 
HETATM    4  S1  UNL     1      18.624  42.732  15.359  1.00  0.00    -0.103 SA
HETATM    5  C8  UNL     1      19.029  44.515  15.668  1.00  0.00     0.252 C 
ENDROOT
BRANCH   1   6
HETATM    6  C4  UNL     1      17.718  46.589  15.267  1.00  0.00     0.175 C 
BRANCH   6   7
HETATM    7  O2  UNL     1      18.700  47.451  15.477  1.00  0.00    -0.382 OA
BRANCH   7   8
HETATM    8  C3  UNL     1      18.791  48.330  16.478  1.00  0.00     0.270 C 
BRANCH   8   9
HETATM    9  C2  UNL     1      18.024  49.599  16.205  1.00  0.00     0.247 C 
HETATM   10  N3  UNL     1      18.442  50.415  15.150  1.00  0.00    -0.300 N 
HETATM   11  C1  UNL     1      17.729  51.616  14.878  1.00  0.00     0.188 C 
ATOM     12  H3  UNL     1      19.248  50.153  14.582  1.00  0.00     0.171 HD
HETATM   13  N1  UNL     1      18.117  52.359  13.911  1.00  0.00    -0.373 N 
HETATM   14  N2  UNL     1      16.616  51.975  15.667  1.00  0.00    -0.064 NA
ATOM     15  H12 UNL     1      17.605  53.220  13.716  1.00  0.00     0.158 HD
ATOM     16  H11 UNL     1      18.921  52.099  13.341  1.00  0.00     0.158 HD
HETATM   17  O1  UNL     1      17.063  49.876  16.911  1.00  0.00    -0.271 OA
ENDBRANCH   8   9
ENDBRANCH   7   8
ENDBRANCH   6   7
ENDBRANCH   1   6
BRANCH   5  18
HETATM   18  N5  UNL     1      18.970  44.660  17.090  1.00  0.00    -0.066 N 
ATOM     19  H53 UNL     1      18.470  45.517  17.328  1.00  0.00     0.275 HD
ATOM     20  H52 UNL     1      18.337  43.962  17.482  1.00  0.00     0.275 HD
ATOM     21  H51 UNL     1      19.863  44.633  17.581  1.00  0.00     0.275 HD
ENDBRANCH   5  18
BRANCH   3  22
HETATM   22  N4  UNL     1      16.728  42.618  13.492  1.00  0.00    -0.066 N 
ATOM     23  H43 UNL     1      15.736  42.514  13.279  1.00  0.00     0.275 HD
ATOM     24  H42 UNL     1      16.960  43.403  12.884  1.00  0.00     0.275 HD
ATOM     25  H41 UNL     1      17.238  41.785  13.199  1.00  0.00     0.275 HD
ENDBRANCH   3  22
TORSDOF 6
ENDMDL
