MODEL 1
REMARK VINA RESULT: -6.400525001      0.000      0.000
REMARK  6 active torsions:
REMARK  status: ('A' for Active; 'I' for Inactive)
REMARK    1  A    between atoms: N1_2  and  C2_5 
REMARK    2  A    between atoms: C2_5  and  C3_6 
REMARK    3  A    between atoms: N2_9  and  C6_10 
REMARK    4  A    between atoms: C6_10  and  C7_11 
REMARK    5  A    between atoms: C7_11  and  N3_12 
REMARK    6  A    between atoms: N3_12  and  C8_14 
ROOT
HETATM    1  C3  UNL     1      33.610  41.924  -9.198  1.00  0.00     0.017 C 
HETATM    2  C4  UNL     1      34.422  42.925  -8.381  1.00  0.00     0.026 C 
HETATM    3  C5  UNL     1      34.435  42.448  -6.977  1.00  0.00     0.122 C 
HETATM    4  N2  UNL     1      34.784  41.091  -6.788  1.00  0.00    -0.392 N 
HETATM    5  C13 UNL     1      34.451  40.156  -7.750  1.00  0.00     0.058 C 
HETATM    6  C14 UNL     1      34.360  40.633  -9.184  1.00  0.00     0.050 C 
ENDROOT
BRANCH   4   7
HETATM    7  C6  UNL     1      35.862  40.852  -5.884  1.00  0.00     0.141 C 
BRANCH   7   8
HETATM    8  C7  UNL     1      36.016  42.193  -5.122  1.00  0.00     0.134 C 
BRANCH   8   9
HETATM    9  N3  UNL     1      35.583  41.916  -3.802  1.00  0.00    -0.411 N 
ATOM     10  H3  UNL     1      34.595  41.821  -3.570  1.00  0.00     0.154 HD
BRANCH   9  11
HETATM   11  C8  UNL     1      36.616  41.775  -2.804  1.00  0.00     0.114 C 
HETATM   12  C9  UNL     1      36.050  41.807  -1.401  1.00  0.00     0.032 C 
HETATM   13  C10 UNL     1      36.685  42.790  -0.489  1.00  0.00     0.022 C 
HETATM   14  C11 UNL     1      36.988  44.117  -1.127  1.00  0.00     0.119 C 
HETATM   15  N4  UNL     1      37.554  44.031  -2.422  1.00  0.00    -0.400 N 
HETATM   16  C12 UNL     1      37.750  42.749  -2.974  1.00  0.00     0.080 C 
ATOM     17  H4  UNL     1      37.811  44.871  -2.940  1.00  0.00     0.158 HD
ENDBRANCH   9  11
ENDBRANCH   8   9
ENDBRANCH   7   8
ENDBRANCH   4   7
BRANCH   1  18
HETATM   18  C2  UNL     1      33.340  42.480 -10.580  1.00  0.00     0.236 C 
BRANCH  18  19
HETATM   19  N1  UNL     1      33.770  43.865 -10.681  1.00  0.00    -0.079 N 
HETATM   20  C1  UNL     1      32.650  44.676 -11.050  1.00  0.00     0.267 C 
ATOM     21  H12 UNL     1      34.559  43.981 -11.316  1.00  0.00     0.276 HD
ATOM     22  H11 UNL     1      34.223  44.194  -9.828  1.00  0.00     0.276 HD
ENDBRANCH  18  19
ENDBRANCH   1  18
TORSDOF 6
ENDMDL
MODEL 2
REMARK VINA RESULT: -6.386255003      0.639      1.300
REMARK  6 active torsions:
REMARK  status: ('A' for Active; 'I' for Inactive)
REMARK    1  A    between atoms: N1_2  and  C2_5 
REMARK    2  A    between atoms: C2_5  and  C3_6 
REMARK    3  A    between atoms: N2_9  and  C6_10 
REMARK    4  A    between atoms: C6_10  and  C7_11 
REMARK    5  A    between atoms: C7_11  and  N3_12 
REMARK    6  A    between atoms: N3_12  and  C8_14 
ROOT
HETATM    1  C3  UNL     1      33.744  42.191  -9.549  1.00  0.00     0.017 C 
HETATM    2  C4  UNL     1      33.907  40.717  -9.190  1.00  0.00     0.026 C 
HETATM    3  C5  UNL     1      35.154  40.587  -8.396  1.00  0.00     0.122 C 
HETATM    4  N2  UNL     1      35.298  41.492  -7.319  1.00  0.00    -0.392 N 
HETATM    5  C13 UNL     1      34.759  42.761  -7.410  1.00  0.00     0.058 C 
HETATM    6  C14 UNL     1      33.527  42.934  -8.273  1.00  0.00     0.050 C 
ENDROOT
BRANCH   4   7
HETATM    7  C6  UNL     1      35.547  40.897  -6.045  1.00  0.00     0.141 C 
BRANCH   7   8
HETATM    8  C7  UNL     1      36.235  42.023  -5.233  1.00  0.00     0.134 C 
BRANCH   8   9
HETATM    9  N3  UNL     1      35.635  41.970  -3.952  1.00  0.00    -0.411 N 
ATOM     10  H3  UNL     1      34.626  42.050  -3.828  1.00  0.00     0.154 HD
BRANCH   9  11
HETATM   11  C8  UNL     1      36.527  41.798  -2.831  1.00  0.00     0.114 C 
HETATM   12  C9  UNL     1      35.804  41.938  -1.509  1.00  0.00     0.032 C 
HETATM   13  C10 UNL     1      36.406  42.912  -0.564  1.00  0.00     0.022 C 
HETATM   14  C11 UNL     1      36.890  44.180  -1.209  1.00  0.00     0.119 C 
HETATM   15  N4  UNL     1      37.596  43.990  -2.422  1.00  0.00    -0.400 N 
HETATM   16  C12 UNL     1      37.750  42.672  -2.898  1.00  0.00     0.080 C 
ATOM     17  H4  UNL     1      37.980  44.782  -2.936  1.00  0.00     0.158 HD
ENDBRANCH   9  11
ENDBRANCH   8   9
ENDBRANCH   7   8
ENDBRANCH   4   7
BRANCH   1  18
HETATM   18  C2  UNL     1      32.638  42.356 -10.570  1.00  0.00     0.236 C 
BRANCH  18  19
HETATM   19  N1  UNL     1      32.261  43.752 -10.713  1.00  0.00    -0.079 N 
HETATM   20  C1  UNL     1      33.217  44.411 -11.549  1.00  0.00     0.267 C 
ATOM     21  H12 UNL     1      32.147  44.217  -9.812  1.00  0.00     0.276 HD
ATOM     22  H11 UNL     1      31.305  43.864 -11.054  1.00  0.00     0.276 HD
ENDBRANCH  18  19
ENDBRANCH   1  18
TORSDOF 6
ENDMDL
MODEL 3
REMARK VINA RESULT: -6.238380940      1.243      1.835
REMARK  6 active torsions:
REMARK  status: ('A' for Active; 'I' for Inactive)
REMARK    1  A    between atoms: N1_2  and  C2_5 
REMARK    2  A    between atoms: C2_5  and  C3_6 
REMARK    3  A    between atoms: N2_9  and  C6_10 
REMARK    4  A    between atoms: C6_10  and  C7_11 
REMARK    5  A    between atoms: C7_11  and  N3_12 
REMARK    6  A    between atoms: N3_12  and  C8_14 
ROOT
HETATM    1  C3  UNL     1      33.687  41.964  -9.478  1.00  0.00     0.017 C 
HETATM    2  C4  UNL     1      33.947  40.522  -9.054  1.00  0.00     0.026 C 
HETATM    3  C5  UNL     1      35.231  40.501  -8.311  1.00  0.00     0.122 C 
HETATM    4  N2  UNL     1      35.370  41.467  -7.288  1.00  0.00    -0.392 N 
HETATM    5  C13 UNL     1      34.757  42.699  -7.418  1.00  0.00     0.058 C 
HETATM    6  C14 UNL     1      33.482  42.760  -8.233  1.00  0.00     0.050 C 
ENDROOT
BRANCH   4   7
HETATM    7  C6  UNL     1      35.704  40.953  -5.998  1.00  0.00     0.141 C 
BRANCH   7   8
HETATM    8  C7  UNL     1      36.133  42.207  -5.195  1.00  0.00     0.134 C 
BRANCH   8   9
HETATM    9  N3  UNL     1      35.597  42.012  -3.898  1.00  0.00    -0.411 N 
ATOM     10  H3  UNL     1      34.592  42.010  -3.727  1.00  0.00     0.154 HD
BRANCH   9  11
HETATM   11  C8  UNL     1      36.550  41.817  -2.832  1.00  0.00     0.114 C 
HETATM   12  C9  UNL     1      35.896  41.902  -1.470  1.00  0.00     0.032 C 
HETATM   13  C10 UNL     1      36.533  42.853  -0.525  1.00  0.00     0.022 C 
HETATM   14  C11 UNL     1      36.963  44.150  -1.152  1.00  0.00     0.119 C 
HETATM   15  N4  UNL     1      37.606  44.012  -2.406  1.00  0.00    -0.400 N 
HETATM   16  C12 UNL     1      37.754  42.713  -2.934  1.00  0.00     0.080 C 
ATOM     17  H4  UNL     1      37.951  44.827  -2.912  1.00  0.00     0.158 HD
ENDBRANCH   9  11
ENDBRANCH   8   9
ENDBRANCH   7   8
ENDBRANCH   4   7
BRANCH   1  18
HETATM   18  C2  UNL     1      32.532  42.016 -10.456  1.00  0.00     0.236 C 
BRANCH  18  19
HETATM   19  N1  UNL     1      31.399  41.247  -9.969  1.00  0.00    -0.079 N 
HETATM   20  C1  UNL     1      30.769  40.592 -11.075  1.00  0.00     0.267 C 
ATOM     21  H12 UNL     1      30.745  41.816  -9.432  1.00  0.00     0.276 HD
ATOM     22  H11 UNL     1      31.661  40.594  -9.230  1.00  0.00     0.276 HD
ENDBRANCH  18  19
ENDBRANCH   1  18
TORSDOF 6
ENDMDL
MODEL 4
REMARK VINA RESULT: -6.152670118      1.087      1.274
REMARK  6 active torsions:
REMARK  status: ('A' for Active; 'I' for Inactive)
REMARK    1  A    between atoms: N1_2  and  C2_5 
REMARK    2  A    between atoms: C2_5  and  C3_6 
REMARK    3  A    between atoms: N2_9  and  C6_10 
REMARK    4  A    between atoms: C6_10  and  C7_11 
REMARK    5  A    between atoms: C7_11  and  N3_12 
REMARK    6  A    between atoms: N3_12  and  C8_14 
ROOT
HETATM    1  C3  UNL     1      33.583  41.163  -9.475  1.00  0.00     0.017 C 
HETATM    2  C4  UNL     1      33.788  42.661  -9.271  1.00  0.00     0.026 C 
HETATM    3  C5  UNL     1      33.731  42.925  -7.813  1.00  0.00     0.122 C 
HETATM    4  N2  UNL     1      34.533  42.090  -7.001  1.00  0.00    -0.392 N 
HETATM    5  C13 UNL     1      34.763  40.780  -7.379  1.00  0.00     0.058 C 
HETATM    6  C14 UNL     1      34.755  40.472  -8.861  1.00  0.00     0.050 C 
ENDROOT
BRANCH   4   7
HETATM    7  C6  UNL     1      35.439  42.765  -6.129  1.00  0.00     0.141 C 
BRANCH   7   8
HETATM    8  C7  UNL     1      36.004  41.638  -5.229  1.00  0.00     0.134 C 
BRANCH   8   9
HETATM    9  N3  UNL     1      35.558  41.955  -3.922  1.00  0.00    -0.411 N 
ATOM     10  H3  UNL     1      34.612  42.290  -3.744  1.00  0.00     0.154 HD
BRANCH   9  11
HETATM   11  C8  UNL     1      36.515  41.777  -2.857  1.00  0.00     0.114 C 
HETATM   12  C9  UNL     1      35.867  41.892  -1.494  1.00  0.00     0.032 C 
HETATM   13  C10 UNL     1      36.512  42.859  -0.571  1.00  0.00     0.022 C 
HETATM   14  C11 UNL     1      36.944  44.142  -1.225  1.00  0.00     0.119 C 
HETATM   15  N4  UNL     1      37.582  43.976  -2.479  1.00  0.00    -0.400 N 
HETATM   16  C12 UNL     1      37.723  42.666  -2.981  1.00  0.00     0.080 C 
ATOM     17  H4  UNL     1      37.928  44.780  -3.002  1.00  0.00     0.158 HD
ENDBRANCH   9  11
ENDBRANCH   8   9
ENDBRANCH   7   8
ENDBRANCH   4   7
BRANCH   1  18
HETATM   18  C2  UNL     1      33.374  40.864 -10.945  1.00  0.00     0.236 C 
BRANCH  18  19
HETATM   19  N1  UNL     1      33.314  42.088 -11.725  1.00  0.00    -0.079 N 
HETATM   20  C1  UNL     1      32.810  41.786 -13.030  1.00  0.00     0.267 C 
ATOM     21  H12 UNL     1      34.211  42.572 -11.758  1.00  0.00     0.276 HD
ATOM     22  H11 UNL     1      32.774  42.819 -11.261  1.00  0.00     0.276 HD
ENDBRANCH  18  19
ENDBRANCH   1  18
TORSDOF 6
ENDMDL
MODEL 5
REMARK VINA RESULT: -6.107539001      1.448      7.856
REMARK  6 active torsions:
REMARK  status: ('A' for Active; 'I' for Inactive)
REMARK    1  A    between atoms: N1_2  and  C2_5 
REMARK    2  A    between atoms: C2_5  and  C3_6 
REMARK    3  A    between atoms: N2_9  and  C6_10 
REMARK    4  A    between atoms: C6_10  and  C7_11 
REMARK    5  A    between atoms: C7_11  and  N3_12 
REMARK    6  A    between atoms: N3_12  and  C8_14 
ROOT
HETATM    1  C3  UNL     1      36.272  41.772  -5.853  1.00  0.00     0.017 C 
HETATM    2  C4  UNL     1      35.090  42.713  -6.068  1.00  0.00     0.026 C 
HETATM    3  C5  UNL     1      34.799  42.739  -7.522  1.00  0.00     0.122 C 
HETATM    4  N2  UNL     1      34.689  41.478  -8.153  1.00  0.00    -0.392 N 
HETATM    5  C13 UNL     1      35.444  40.414  -7.698  1.00  0.00     0.058 C 
HETATM    6  C14 UNL     1      35.817  40.402  -6.230  1.00  0.00     0.050 C 
ENDROOT
BRANCH   4   7
HETATM    7  C6  UNL     1      33.478  41.255  -8.876  1.00  0.00     0.141 C 
BRANCH   7   8
HETATM    8  C7  UNL     1      32.840  42.663  -8.982  1.00  0.00     0.134 C 
BRANCH   8   9
HETATM    9  N3  UNL     1      32.090  42.635 -10.183  1.00  0.00    -0.411 N 
ATOM     10  H3  UNL     1      31.107  42.363 -10.196  1.00  0.00     0.154 HD
BRANCH   9  11
HETATM   11  C8  UNL     1      32.790  43.014 -11.387  1.00  0.00     0.114 C 
HETATM   12  C9  UNL     1      33.712  44.191 -11.155  1.00  0.00     0.032 C 
HETATM   13  C10 UNL     1      33.528  45.328 -12.092  1.00  0.00     0.022 C 
HETATM   14  C11 UNL     1      32.092  45.643 -12.403  1.00  0.00     0.119 C 
HETATM   15  N4  UNL     1      31.282  44.509 -12.653  1.00  0.00    -0.400 N 
HETATM   16  C12 UNL     1      31.881  43.236 -12.565  1.00  0.00     0.080 C 
ATOM     17  H4  UNL     1      30.294  44.610 -12.888  1.00  0.00     0.158 HD
ENDBRANCH   9  11
ENDBRANCH   8   9
ENDBRANCH   7   8
ENDBRANCH   4   7
BRANCH   1  18
HETATM   18  C2  UNL     1      36.784  41.898  -4.434  1.00  0.00     0.236 C 
BRANCH  18  19
HETATM   19  N1  UNL     1      35.685  41.990  -3.487  1.00  0.00    -0.079 N 
HETATM   20  C1  UNL     1      36.217  42.084  -2.162  1.00  0.00     0.267 C 
ATOM     21  H12 UNL     1      35.022  41.220  -3.585  1.00  0.00     0.276 HD
ATOM     22  H11 UNL     1      35.048  42.756  -3.705  1.00  0.00     0.276 HD
ENDBRANCH  18  19
ENDBRANCH   1  18
TORSDOF 6
ENDMDL
