MODEL 1
REMARK VINA RESULT: -5.899650156      0.000      0.000
REMARK  7 active torsions:
REMARK  status: ('A' for Active; 'I' for Inactive)
REMARK    1  A    between atoms: C2_2  and  C3_3 
REMARK    2  A    between atoms: C3_3  and  C4_4 
REMARK    3  A    between atoms: C4_4  and  C5_5 
REMARK    4  A    between atoms: C5_5  and  C6_6 
REMARK    5  A    between atoms: C7_9  and  C8_10 
REMARK    6  A    between atoms: C8_10  and  S1_11 
REMARK    7  A    between atoms: N3_17  and  N4_19 
ROOT
HETATM    1  C6  UNL     1      32.832  42.977  -8.940  1.00  0.00     0.146 C 
HETATM    2  N1  UNL     1      31.963  42.038  -9.568  1.00  0.00    -0.404 N 
ATOM      3  H1  UNL     1      31.202  42.339 -10.177  1.00  0.00     0.154 HD
HETATM    4  C7  UNL     1      32.206  40.665  -9.307  1.00  0.00     0.104 C 
HETATM    5  C10 UNL     1      33.667  40.291  -9.289  1.00  0.00     0.149 C 
HETATM    6  N2  UNL     1      34.340  41.111  -8.304  1.00  0.00    -0.370 N 
HETATM    7  C11 UNL     1      35.595  40.679  -7.712  1.00  0.00     0.151 C 
HETATM    8  C12 UNL     1      33.723  42.337  -7.946  1.00  0.00     0.116 C 
HETATM    9  N3  UNL     1      33.925  42.869  -6.824  1.00  0.00    -0.294 N 
ATOM     10  H3  UNL     1      33.437  43.750  -6.665  1.00  0.00     0.187 HD
ENDROOT
BRANCH   1  11
HETATM   11  C5  UNL     1      33.752  43.531 -10.036  1.00  0.00     0.033 C 
BRANCH  11  12
HETATM   12  C4  UNL     1      33.016  44.537 -10.893  1.00  0.00     0.006 C 
BRANCH  12  13
HETATM   13  C3  UNL     1      33.431  44.309 -12.332  1.00  0.00     0.026 C 
BRANCH  13  14
HETATM   14  C2  UNL     1      33.754  45.565 -13.023  1.00  0.00    -0.037 C 
HETATM   15  C1  UNL     1      33.275  46.701 -12.563  1.00  0.00     0.007 C 
ENDBRANCH  13  14
ENDBRANCH  12  13
ENDBRANCH  11  12
ENDBRANCH   1  11
BRANCH   4  16
HETATM   16  C8  UNL     1      31.577  39.867 -10.456  1.00  0.00     0.099 C 
BRANCH  16  17
HETATM   17  S1  UNL     1      31.406  40.934 -11.919  1.00  0.00    -0.171 SA
HETATM   18  C9  UNL     1      32.877  40.699 -12.953  1.00  0.00     0.089 C 
ENDBRANCH  16  17
ENDBRANCH   4  16
BRANCH   9  19
HETATM   19  N4  UNL     1      34.701  42.438  -5.789  1.00  0.00    -0.344 N 
ATOM     20  H42 UNL     1      34.173  42.109  -4.982  1.00  0.00     0.176 HD
ATOM     21  H41 UNL     1      35.717  42.401  -5.715  1.00  0.00     0.176 HD
ENDBRANCH   9  19
TORSDOF 7
ENDMDL
MODEL 2
REMARK VINA RESULT: -5.851730948      1.187      1.298
REMARK  7 active torsions:
REMARK  status: ('A' for Active; 'I' for Inactive)
REMARK    1  A    between atoms: C2_2  and  C3_3 
REMARK    2  A    between atoms: C3_3  and  C4_4 
REMARK    3  A    between atoms: C4_4  and  C5_5 
REMARK    4  A    between atoms: C5_5  and  C6_6 
REMARK    5  A    between atoms: C7_9  and  C8_10 
REMARK    6  A    between atoms: C8_10  and  S1_11 
REMARK    7  A    between atoms: N3_17  and  N4_19 
ROOT
HETATM    1  C6  UNL     1      32.935  43.123  -9.219  1.00  0.00     0.146 C 
HETATM    2  N1  UNL     1      32.090  42.232  -9.943  1.00  0.00    -0.404 N 
ATOM      3  H1  UNL     1      31.404  42.576 -10.615  1.00  0.00     0.154 HD
HETATM    4  C7  UNL     1      32.248  40.846  -9.686  1.00  0.00     0.104 C 
HETATM    5  C10 UNL     1      33.684  40.407  -9.539  1.00  0.00     0.149 C 
HETATM    6  N2  UNL     1      34.295  41.182  -8.480  1.00  0.00    -0.370 N 
HETATM    7  C11 UNL     1      35.470  40.686  -7.782  1.00  0.00     0.151 C 
HETATM    8  C12 UNL     1      33.701  42.429  -8.159  1.00  0.00     0.116 C 
HETATM    9  N3  UNL     1      33.819  42.935  -7.012  1.00  0.00    -0.294 N 
ATOM     10  H3  UNL     1      33.356  43.834  -6.883  1.00  0.00     0.187 HD
ENDROOT
BRANCH   1  11
HETATM   11  C5  UNL     1      33.978  43.651 -10.214  1.00  0.00     0.033 C 
BRANCH  11  12
HETATM   12  C4  UNL     1      33.408  43.688 -11.615  1.00  0.00     0.006 C 
BRANCH  12  13
HETATM   13  C3  UNL     1      33.579  45.097 -12.145  1.00  0.00     0.026 C 
BRANCH  13  14
HETATM   14  C2  UNL     1      32.292  45.744 -12.433  1.00  0.00    -0.037 C 
HETATM   15  C1  UNL     1      31.273  45.012 -12.831  1.00  0.00     0.007 C 
ENDBRANCH  13  14
ENDBRANCH  12  13
ENDBRANCH  11  12
ENDBRANCH   1  11
BRANCH   4  16
HETATM   16  C8  UNL     1      31.697  40.094 -10.904  1.00  0.00     0.099 C 
BRANCH  16  17
HETATM   17  S1  UNL     1      29.887  40.267 -10.962  1.00  0.00    -0.171 SA
HETATM   18  C9  UNL     1      29.475  41.324 -12.377  1.00  0.00     0.089 C 
ENDBRANCH  16  17
ENDBRANCH   4  16
BRANCH   9  19
HETATM   19  N4  UNL     1      34.475  42.455  -5.918  1.00  0.00    -0.344 N 
ATOM     20  H42 UNL     1      34.018  41.658  -5.475  1.00  0.00     0.176 HD
ATOM     21  H41 UNL     1      35.344  42.776  -5.492  1.00  0.00     0.176 HD
ENDBRANCH   9  19
TORSDOF 7
ENDMDL
MODEL 3
REMARK VINA RESULT: -5.793542289      1.084      1.655
REMARK  7 active torsions:
REMARK  status: ('A' for Active; 'I' for Inactive)
REMARK    1  A    between atoms: C2_2  and  C3_3 
REMARK    2  A    between atoms: C3_3  and  C4_4 
REMARK    3  A    between atoms: C4_4  and  C5_5 
REMARK    4  A    between atoms: C5_5  and  C6_6 
REMARK    5  A    between atoms: C7_9  and  C8_10 
REMARK    6  A    between atoms: C8_10  and  S1_11 
REMARK    7  A    between atoms: N3_17  and  N4_19 
ROOT
HETATM    1  C6  UNL     1      32.909  42.976  -9.028  1.00  0.00     0.146 C 
HETATM    2  N1  UNL     1      32.074  42.039  -9.704  1.00  0.00    -0.404 N 
ATOM      3  H1  UNL     1      31.348  42.343 -10.353  1.00  0.00     0.154 HD
HETATM    4  C7  UNL     1      32.301  40.665  -9.433  1.00  0.00     0.104 C 
HETATM    5  C10 UNL     1      33.759  40.288  -9.337  1.00  0.00     0.149 C 
HETATM    6  N2  UNL     1      34.378  41.106  -8.315  1.00  0.00    -0.370 N 
HETATM    7  C11 UNL     1      35.599  40.671  -7.657  1.00  0.00     0.151 C 
HETATM    8  C12 UNL     1      33.744  42.332  -7.989  1.00  0.00     0.116 C 
HETATM    9  N3  UNL     1      33.886  42.862  -6.856  1.00  0.00    -0.294 N 
ATOM     10  H3  UNL     1      33.391  43.743  -6.722  1.00  0.00     0.187 HD
ENDROOT
BRANCH   1  11
HETATM   11  C5  UNL     1      33.889  43.530 -10.072  1.00  0.00     0.033 C 
BRANCH  11  12
HETATM   12  C4  UNL     1      33.173  43.826 -11.371  1.00  0.00     0.006 C 
BRANCH  12  13
HETATM   13  C3  UNL     1      32.327  45.065 -11.160  1.00  0.00     0.026 C 
BRANCH  13  14
HETATM   14  C2  UNL     1      32.528  46.063 -12.220  1.00  0.00    -0.037 C 
HETATM   15  C1  UNL     1      33.630  46.032 -12.939  1.00  0.00     0.007 C 
ENDBRANCH  13  14
ENDBRANCH  12  13
ENDBRANCH  11  12
ENDBRANCH   1  11
BRANCH   4  16
HETATM   16  C8  UNL     1      31.734  39.870 -10.616  1.00  0.00     0.099 C 
BRANCH  16  17
HETATM   17  S1  UNL     1      30.370  38.811 -10.045  1.00  0.00    -0.171 SA
HETATM   18  C9  UNL     1      30.995  37.786  -8.686  1.00  0.00     0.089 C 
ENDBRANCH  16  17
ENDBRANCH   4  16
BRANCH   9  19
HETATM   19  N4  UNL     1      34.604  42.428  -5.782  1.00  0.00    -0.344 N 
ATOM     20  H42 UNL     1      35.264  41.680  -5.997  1.00  0.00     0.176 HD
ATOM     21  H41 UNL     1      34.573  42.742  -4.813  1.00  0.00     0.176 HD
ENDBRANCH   9  19
TORSDOF 7
ENDMDL
MODEL 4
REMARK VINA RESULT: -5.173379038      2.688      4.568
REMARK  7 active torsions:
REMARK  status: ('A' for Active; 'I' for Inactive)
REMARK    1  A    between atoms: C2_2  and  C3_3 
REMARK    2  A    between atoms: C3_3  and  C4_4 
REMARK    3  A    between atoms: C4_4  and  C5_5 
REMARK    4  A    between atoms: C5_5  and  C6_6 
REMARK    5  A    between atoms: C7_9  and  C8_10 
REMARK    6  A    between atoms: C8_10  and  S1_11 
REMARK    7  A    between atoms: N3_17  and  N4_19 
ROOT
HETATM    1  C6  UNL     1      34.309  41.730  -9.006  1.00  0.00     0.146 C 
HETATM    2  N1  UNL     1      35.259  41.563  -7.956  1.00  0.00    -0.404 N 
ATOM      3  H1  UNL     1      35.857  42.331  -7.650  1.00  0.00     0.154 HD
HETATM    4  C7  UNL     1      35.334  40.279  -7.357  1.00  0.00     0.104 C 
HETATM    5  C10 UNL     1      33.993  39.625  -7.133  1.00  0.00     0.149 C 
HETATM    6  N2  UNL     1      33.305  39.542  -8.404  1.00  0.00    -0.370 N 
HETATM    7  C11 UNL     1      32.251  38.563  -8.613  1.00  0.00     0.151 C 
HETATM    8  C12 UNL     1      33.704  40.445  -9.422  1.00  0.00     0.116 C 
HETATM    9  N3  UNL     1      33.548  40.170 -10.640  1.00  0.00    -0.294 N 
ATOM     10  H3  UNL     1      33.865  40.886 -11.293  1.00  0.00     0.187 HD
ENDROOT
BRANCH   1  11
HETATM   11  C5  UNL     1      33.160  42.572  -8.433  1.00  0.00     0.033 C 
BRANCH  11  12
HETATM   12  C4  UNL     1      32.735  43.636  -9.420  1.00  0.00     0.006 C 
BRANCH  12  13
HETATM   13  C3  UNL     1      33.885  43.859 -10.382  1.00  0.00     0.026 C 
BRANCH  13  14
HETATM   14  C2  UNL     1      33.421  44.149 -11.746  1.00  0.00    -0.037 C 
HETATM   15  C1  UNL     1      33.206  43.156 -12.583  1.00  0.00     0.007 C 
ENDBRANCH  13  14
ENDBRANCH  12  13
ENDBRANCH  11  12
ENDBRANCH   1  11
BRANCH   4  16
HETATM   16  C8  UNL     1      35.954  40.464  -5.966  1.00  0.00     0.099 C 
BRANCH  16  17
HETATM   17  S1  UNL     1      36.017  42.235  -5.555  1.00  0.00    -0.171 SA
HETATM   18  C9  UNL     1      37.426  42.498  -4.445  1.00  0.00     0.089 C 
ENDBRANCH  16  17
ENDBRANCH   4  16
BRANCH   9  19
HETATM   19  N4  UNL     1      33.017  39.053 -11.214  1.00  0.00    -0.344 N 
ATOM     20  H42 UNL     1      33.680  38.286 -11.325  1.00  0.00     0.176 HD
ATOM     21  H41 UNL     1      32.066  38.883 -11.540  1.00  0.00     0.176 HD
ENDBRANCH   9  19
TORSDOF 7
ENDMDL
MODEL 5
REMARK VINA RESULT: -5.103215342      3.014      4.657
REMARK  7 active torsions:
REMARK  status: ('A' for Active; 'I' for Inactive)
REMARK    1  A    between atoms: C2_2  and  C3_3 
REMARK    2  A    between atoms: C3_3  and  C4_4 
REMARK    3  A    between atoms: C4_4  and  C5_5 
REMARK    4  A    between atoms: C5_5  and  C6_6 
REMARK    5  A    between atoms: C7_9  and  C8_10 
REMARK    6  A    between atoms: C8_10  and  S1_11 
REMARK    7  A    between atoms: N3_17  and  N4_19 
ROOT
HETATM    1  C6  UNL     1      34.318  42.130  -9.071  1.00  0.00     0.146 C 
HETATM    2  N1  UNL     1      35.090  42.646  -7.989  1.00  0.00    -0.404 N 
ATOM      3  H1  UNL     1      35.384  43.622  -7.962  1.00  0.00     0.154 HD
HETATM    4  C7  UNL     1      35.431  41.738  -6.953  1.00  0.00     0.104 C 
HETATM    5  C10 UNL     1      34.316  40.798  -6.568  1.00  0.00     0.149 C 
HETATM    6  N2  UNL     1      33.899  40.071  -7.748  1.00  0.00    -0.370 N 
HETATM    7  C11 UNL     1      33.219  38.792  -7.629  1.00  0.00     0.151 C 
HETATM    8  C12 UNL     1      34.184  40.657  -9.008  1.00  0.00     0.116 C 
HETATM    9  N3  UNL     1      34.316  39.952 -10.043  1.00  0.00    -0.294 N 
ATOM     10  H3  UNL     1      34.517  40.469 -10.899  1.00  0.00     0.187 HD
ENDROOT
BRANCH   1  11
HETATM   11  C5  UNL     1      32.899  42.690  -8.908  1.00  0.00     0.033 C 
BRANCH  11  12
HETATM   12  C4  UNL     1      32.697  43.898  -9.796  1.00  0.00     0.006 C 
BRANCH  12  13
HETATM   13  C3  UNL     1      33.590  43.733 -11.009  1.00  0.00     0.026 C 
BRANCH  13  14
HETATM   14  C2  UNL     1      33.549  44.906 -11.892  1.00  0.00    -0.037 C 
HETATM   15  C1  UNL     1      32.481  45.676 -11.901  1.00  0.00     0.007 C 
ENDBRANCH  13  14
ENDBRANCH  12  13
ENDBRANCH  11  12
ENDBRANCH   1  11
BRANCH   4  16
HETATM   16  C8  UNL     1      35.734  42.573  -5.702  1.00  0.00     0.099 C 
BRANCH  16  17
HETATM   17  S1  UNL     1      36.923  41.686  -4.648  1.00  0.00    -0.171 SA
HETATM   18  C9  UNL     1      37.357  42.773  -3.264  1.00  0.00     0.089 C 
ENDBRANCH  16  17
ENDBRANCH   4  16
BRANCH   9  19
HETATM   19  N4  UNL     1      34.229  38.599 -10.185  1.00  0.00    -0.344 N 
ATOM     20  H42 UNL     1      33.441  38.179  -9.693  1.00  0.00     0.176 HD
ATOM     21  H41 UNL     1      34.832  37.964 -10.706  1.00  0.00     0.176 HD
ENDBRANCH   9  19
TORSDOF 7
ENDMDL
