MODEL 1
REMARK VINA RESULT: -6.249741452      0.000      0.000
REMARK  8 active torsions:
REMARK  status: ('A' for Active; 'I' for Inactive)
REMARK    1  A    between atoms: C8_9  and  N2_10 
REMARK    2  A    between atoms: N2_10  and  C9_12 
REMARK    3  A    between atoms: C9_12  and  C10_13 
REMARK    4  A    between atoms: C10_13  and  C11_14 
REMARK    5  A    between atoms: C11_14  and  C12_15 
REMARK    6  A    between atoms: C12_15  and  C13_16 
REMARK    7  A    between atoms: C13_16  and  C14_17 
REMARK    8  A    between atoms: C14_17  and  N3_18 
ROOT
HETATM    1  C1  UNL     1      32.831  43.643  -8.865  1.00  0.00     0.068 C 
HETATM    2  C2  UNL     1      33.712  42.618  -8.225  1.00  0.00     0.007 A 
HETATM    3  C3  UNL     1      34.064  41.471  -8.903  1.00  0.00     0.033 A 
HETATM    4  C4  UNL     1      34.875  40.537  -8.299  1.00  0.00    -0.036 A 
HETATM    5  C5  UNL     1      35.243  39.298  -9.063  1.00  0.00     0.050 C 
HETATM    6  C6  UNL     1      35.333  40.740  -7.032  1.00  0.00     0.094 A 
HETATM    7  C7  UNL     1      36.183  39.749  -6.415  1.00  0.00     0.104 C 
HETATM    8  N1  UNL     1      36.887  38.958  -5.907  1.00  0.00    -0.191 NA
HETATM    9  C8  UNL     1      34.983  41.903  -6.329  1.00  0.00     0.126 A 
HETATM   10  N4  UNL     1      34.182  42.782  -6.978  1.00  0.00    -0.345 N 
ATOM     11  H4  UNL     1      33.916  43.633  -6.482  1.00  0.00     0.167 HD
ENDROOT
BRANCH   9  12
HETATM   12  N2  UNL     1      35.430  42.012  -5.184  1.00  0.00    -0.355 N 
ATOM     13  H2  UNL     1      35.054  41.219  -4.663  1.00  0.00     0.166 HD
BRANCH  12  14
HETATM   14  C9  UNL     1      36.201  42.711  -4.295  1.00  0.00     0.062 C 
BRANCH  14  15
HETATM   15  C10 UNL     1      37.688  42.486  -4.454  1.00  0.00     0.044 C 
BRANCH  15  16
HETATM   16  C11 UNL     1      38.161  41.759  -3.179  1.00  0.00     0.005 C 
BRANCH  16  17
HETATM   17  C12 UNL     1      37.345  42.322  -2.038  1.00  0.00     0.002 C 
BRANCH  17  18
HETATM   18  C13 UNL     1      38.185  43.240  -1.210  1.00  0.00     0.027 C 
BRANCH  18  19
HETATM   19  C14 UNL     1      37.758  44.667  -1.375  1.00  0.00     0.229 C 
BRANCH  19  20
HETATM   20  N3  UNL     1      36.292  44.731  -1.472  1.00  0.00    -0.079 N 
ATOM     21  H33 UNL     1      35.839  44.574  -0.572  1.00  0.00     0.274 HD
ATOM     22  H32 UNL     1      35.957  45.680  -1.639  1.00  0.00     0.274 HD
ATOM     23  H31 UNL     1      35.971  44.076  -2.185  1.00  0.00     0.274 HD
ENDBRANCH  19  20
ENDBRANCH  18  19
ENDBRANCH  17  18
ENDBRANCH  16  17
ENDBRANCH  15  16
ENDBRANCH  14  15
ENDBRANCH  12  14
ENDBRANCH   9  12
TORSDOF 8
ENDMDL
MODEL 2
REMARK VINA RESULT: -6.145637283      1.001      1.149
REMARK  8 active torsions:
REMARK  status: ('A' for Active; 'I' for Inactive)
REMARK    1  A    between atoms: C8_9  and  N2_10 
REMARK    2  A    between atoms: N2_10  and  C9_12 
REMARK    3  A    between atoms: C9_12  and  C10_13 
REMARK    4  A    between atoms: C10_13  and  C11_14 
REMARK    5  A    between atoms: C11_14  and  C12_15 
REMARK    6  A    between atoms: C12_15  and  C13_16 
REMARK    7  A    between atoms: C13_16  and  C14_17 
REMARK    8  A    between atoms: C14_17  and  N3_18 
ROOT
HETATM    1  C1  UNL     1      32.776  43.801  -8.866  1.00  0.00     0.068 C 
HETATM    2  C2  UNL     1      33.591  42.682  -8.300  1.00  0.00     0.007 A 
HETATM    3  C3  UNL     1      33.730  41.495  -8.989  1.00  0.00     0.033 A 
HETATM    4  C4  UNL     1      34.483  40.474  -8.453  1.00  0.00    -0.036 A 
HETATM    5  C5  UNL     1      34.616  39.194  -9.226  1.00  0.00     0.050 C 
HETATM    6  C6  UNL     1      35.094  40.630  -7.246  1.00  0.00     0.094 A 
HETATM    7  C7  UNL     1      35.881  39.548  -6.701  1.00  0.00     0.104 C 
HETATM    8  N1  UNL     1      36.534  38.681  -6.254  1.00  0.00    -0.191 NA
HETATM    9  C8  UNL     1      34.963  41.832  -6.534  1.00  0.00     0.126 A 
HETATM   10  N4  UNL     1      34.208  42.797  -7.114  1.00  0.00    -0.345 N 
ATOM     11  H4  UNL     1      34.100  43.678  -6.610  1.00  0.00     0.167 HD
ENDROOT
BRANCH   9  12
HETATM   12  N2  UNL     1      35.539  41.895  -5.445  1.00  0.00    -0.355 N 
ATOM     13  H2  UNL     1      35.131  41.156  -4.872  1.00  0.00     0.166 HD
BRANCH  12  14
HETATM   14  C9  UNL     1      36.476  42.504  -4.655  1.00  0.00     0.062 C 
BRANCH  14  15
HETATM   15  C10 UNL     1      37.557  41.574  -4.148  1.00  0.00     0.044 C 
BRANCH  15  16
HETATM   16  C11 UNL     1      38.119  42.216  -2.863  1.00  0.00     0.005 C 
BRANCH  16  17
HETATM   17  C12 UNL     1      37.281  43.445  -2.596  1.00  0.00     0.002 C 
BRANCH  17  18
HETATM   18  C13 UNL     1      36.880  43.491  -1.157  1.00  0.00     0.027 C 
BRANCH  18  19
HETATM   19  C14 UNL     1      36.123  42.260  -0.761  1.00  0.00     0.229 C 
BRANCH  19  20
HETATM   20  N3  UNL     1      34.867  42.193  -1.523  1.00  0.00    -0.079 N 
ATOM     21  H33 UNL     1      34.119  42.730  -1.084  1.00  0.00     0.274 HD
ATOM     22  H32 UNL     1      34.920  42.709  -2.402  1.00  0.00     0.274 HD
ATOM     23  H31 UNL     1      34.608  41.216  -1.664  1.00  0.00     0.274 HD
ENDBRANCH  19  20
ENDBRANCH  18  19
ENDBRANCH  17  18
ENDBRANCH  16  17
ENDBRANCH  15  16
ENDBRANCH  14  15
ENDBRANCH  12  14
ENDBRANCH   9  12
TORSDOF 8
ENDMDL
MODEL 3
REMARK VINA RESULT: -6.034590038      1.659      6.443
REMARK  8 active torsions:
REMARK  status: ('A' for Active; 'I' for Inactive)
REMARK    1  A    between atoms: C8_9  and  N2_10 
REMARK    2  A    between atoms: N2_10  and  C9_12 
REMARK    3  A    between atoms: C9_12  and  C10_13 
REMARK    4  A    between atoms: C10_13  and  C11_14 
REMARK    5  A    between atoms: C11_14  and  C12_15 
REMARK    6  A    between atoms: C12_15  and  C13_16 
REMARK    7  A    between atoms: C13_16  and  C14_17 
REMARK    8  A    between atoms: C14_17  and  N3_18 
ROOT
HETATM    1  C1  UNL     1      37.668  44.279  -1.540  1.00  0.00     0.068 C 
HETATM    2  C2  UNL     1      37.498  43.156  -2.513  1.00  0.00     0.007 A 
HETATM    3  C3  UNL     1      38.328  42.056  -2.469  1.00  0.00     0.033 A 
HETATM    4  C4  UNL     1      38.159  41.031  -3.373  1.00  0.00    -0.036 A 
HETATM    5  C5  UNL     1      39.078  39.846  -3.301  1.00  0.00     0.050 C 
HETATM    6  C6  UNL     1      37.173  41.097  -4.311  1.00  0.00     0.094 A 
HETATM    7  C7  UNL     1      37.010  40.011  -5.251  1.00  0.00     0.104 C 
HETATM    8  N1  UNL     1      36.859  39.130  -6.010  1.00  0.00    -0.191 NA
HETATM    9  C8  UNL     1      36.319  42.209  -4.367  1.00  0.00     0.126 A 
HETATM   10  N4  UNL     1      36.539  43.184  -3.451  1.00  0.00    -0.345 N 
ATOM     11  H4  UNL     1      35.929  44.002  -3.478  1.00  0.00     0.167 HD
ENDROOT
BRANCH   9  12
HETATM   12  N2  UNL     1      35.457  42.199  -5.249  1.00  0.00    -0.355 N 
ATOM     13  H2  UNL     1      34.891  41.368  -5.074  1.00  0.00     0.166 HD
BRANCH  12  14
HETATM   14  C9  UNL     1      34.912  42.795  -6.354  1.00  0.00     0.062 C 
BRANCH  14  15
HETATM   15  C10 UNL     1      35.003  41.963  -7.614  1.00  0.00     0.044 C 
BRANCH  15  16
HETATM   16  C11 UNL     1      33.565  41.827  -8.155  1.00  0.00     0.005 C 
BRANCH  16  17
HETATM   17  C12 UNL     1      33.231  43.143  -8.819  1.00  0.00     0.002 C 
BRANCH  17  18
HETATM   18  C13 UNL     1      33.929  43.246 -10.136  1.00  0.00     0.027 C 
BRANCH  18  19
HETATM   19  C14 UNL     1      33.358  44.350 -10.973  1.00  0.00     0.229 C 
BRANCH  19  20
HETATM   20  N3  UNL     1      32.004  44.671 -10.499  1.00  0.00    -0.079 N 
ATOM     21  H33 UNL     1      31.841  44.347  -9.546  1.00  0.00     0.274 HD
ATOM     22  H32 UNL     1      31.879  45.671 -10.335  1.00  0.00     0.274 HD
ATOM     23  H31 UNL     1      31.318  44.299 -11.156  1.00  0.00     0.274 HD
ENDBRANCH  19  20
ENDBRANCH  18  19
ENDBRANCH  17  18
ENDBRANCH  16  17
ENDBRANCH  15  16
ENDBRANCH  14  15
ENDBRANCH  12  14
ENDBRANCH   9  12
TORSDOF 8
ENDMDL
MODEL 4
REMARK VINA RESULT: -5.964384326      1.668      1.961
REMARK  8 active torsions:
REMARK  status: ('A' for Active; 'I' for Inactive)
REMARK    1  A    between atoms: C8_9  and  N2_10 
REMARK    2  A    between atoms: N2_10  and  C9_12 
REMARK    3  A    between atoms: C9_12  and  C10_13 
REMARK    4  A    between atoms: C10_13  and  C11_14 
REMARK    5  A    between atoms: C11_14  and  C12_15 
REMARK    6  A    between atoms: C12_15  and  C13_16 
REMARK    7  A    between atoms: C13_16  and  C14_17 
REMARK    8  A    between atoms: C14_17  and  N3_18 
ROOT
HETATM    1  C1  UNL     1      33.600  44.130 -10.746  1.00  0.00     0.068 C 
HETATM    2  C2  UNL     1      33.745  42.943  -9.847  1.00  0.00     0.007 A 
HETATM    3  C3  UNL     1      33.488  41.672 -10.314  1.00  0.00     0.033 A 
HETATM    4  C4  UNL     1      33.625  40.590  -9.473  1.00  0.00    -0.036 A 
HETATM    5  C5  UNL     1      33.339  39.218 -10.009  1.00  0.00     0.050 C 
HETATM    6  C6  UNL     1      34.014  40.770  -8.180  1.00  0.00     0.094 A 
HETATM    7  C7  UNL     1      34.153  39.622  -7.312  1.00  0.00     0.104 C 
HETATM    8  N1  UNL     1      34.284  38.698  -6.602  1.00  0.00    -0.191 NA
HETATM    9  C8  UNL     1      34.280  42.058  -7.690  1.00  0.00     0.126 A 
HETATM   10  N4  UNL     1      34.126  43.080  -8.567  1.00  0.00    -0.345 N 
ATOM     11  H4  UNL     1      34.313  44.024  -8.229  1.00  0.00     0.167 HD
ENDROOT
BRANCH   9  12
HETATM   12  N2  UNL     1      34.621  42.139  -6.507  1.00  0.00    -0.355 N 
ATOM     13  H2  UNL     1      33.893  41.661  -5.976  1.00  0.00     0.166 HD
BRANCH  12  14
HETATM   14  C9  UNL     1      35.529  42.580  -5.584  1.00  0.00     0.062 C 
BRANCH  14  15
HETATM   15  C10 UNL     1      36.520  41.526  -5.139  1.00  0.00     0.044 C 
BRANCH  15  16
HETATM   16  C11 UNL     1      37.653  42.273  -4.404  1.00  0.00     0.005 C 
BRANCH  16  17
HETATM   17  C12 UNL     1      37.008  42.987  -3.238  1.00  0.00     0.002 C 
BRANCH  17  18
HETATM   18  C13 UNL     1      37.426  42.353  -1.952  1.00  0.00     0.027 C 
BRANCH  18  19
HETATM   19  C14 UNL     1      36.244  42.058  -1.079  1.00  0.00     0.229 C 
BRANCH  19  20
HETATM   20  N3  UNL     1      35.037  41.944  -1.912  1.00  0.00    -0.079 N 
ATOM     21  H33 UNL     1      35.160  41.283  -2.680  1.00  0.00     0.274 HD
ATOM     22  H32 UNL     1      34.277  41.465  -1.428  1.00  0.00     0.274 HD
ATOM     23  H31 UNL     1      34.764  42.870  -2.241  1.00  0.00     0.274 HD
ENDBRANCH  19  20
ENDBRANCH  18  19
ENDBRANCH  17  18
ENDBRANCH  16  17
ENDBRANCH  15  16
ENDBRANCH  14  15
ENDBRANCH  12  14
ENDBRANCH   9  12
TORSDOF 8
ENDMDL
MODEL 5
REMARK VINA RESULT: -5.751680606      2.023      3.144
REMARK  8 active torsions:
REMARK  status: ('A' for Active; 'I' for Inactive)
REMARK    1  A    between atoms: C8_9  and  N2_10 
REMARK    2  A    between atoms: N2_10  and  C9_12 
REMARK    3  A    between atoms: C9_12  and  C10_13 
REMARK    4  A    between atoms: C10_13  and  C11_14 
REMARK    5  A    between atoms: C11_14  and  C12_15 
REMARK    6  A    between atoms: C12_15  and  C13_16 
REMARK    7  A    between atoms: C13_16  and  C14_17 
REMARK    8  A    between atoms: C14_17  and  N3_18 
ROOT
HETATM    1  C1  UNL     1      32.293  36.968  -7.428  1.00  0.00     0.068 C 
HETATM    2  C2  UNL     1      32.894  38.324  -7.620  1.00  0.00     0.007 A 
HETATM    3  C3  UNL     1      32.675  39.032  -8.783  1.00  0.00     0.033 A 
HETATM    4  C4  UNL     1      33.237  40.278  -8.945  1.00  0.00    -0.036 A 
HETATM    5  C5  UNL     1      32.980  41.026 -10.221  1.00  0.00     0.050 C 
HETATM    6  C6  UNL     1      34.008  40.818  -7.960  1.00  0.00     0.094 A 
HETATM    7  C7  UNL     1      34.589  42.128  -8.148  1.00  0.00     0.104 C 
HETATM    8  N1  UNL     1      35.054  43.197  -8.282  1.00  0.00    -0.191 NA
HETATM    9  C8  UNL     1      34.240  40.110  -6.771  1.00  0.00     0.126 A 
HETATM   10  N4  UNL     1      33.660  38.888  -6.674  1.00  0.00    -0.345 N 
ATOM     11  H4  UNL     1      33.818  38.358  -5.817  1.00  0.00     0.167 HD
ENDROOT
BRANCH   9  12
HETATM   12  N2  UNL     1      34.955  40.661  -5.930  1.00  0.00    -0.355 N 
ATOM     13  H2  UNL     1      34.315  41.114  -5.277  1.00  0.00     0.166 HD
BRANCH  12  14
HETATM   14  C9  UNL     1      36.214  40.942  -5.475  1.00  0.00     0.062 C 
BRANCH  14  15
HETATM   15  C10 UNL     1      36.399  42.368  -5.005  1.00  0.00     0.044 C 
BRANCH  15  16
HETATM   16  C11 UNL     1      37.815  42.450  -4.399  1.00  0.00     0.005 C 
BRANCH  16  17
HETATM   17  C12 UNL     1      37.678  42.087  -2.938  1.00  0.00     0.002 C 
BRANCH  17  18
HETATM   18  C13 UNL     1      37.052  43.216  -2.185  1.00  0.00     0.027 C 
BRANCH  18  19
HETATM   19  C14 UNL     1      36.076  42.716  -1.164  1.00  0.00     0.229 C 
BRANCH  19  20
HETATM   20  N3  UNL     1      35.042  41.910  -1.829  1.00  0.00    -0.079 N 
ATOM     21  H33 UNL     1      34.463  42.467  -2.458  1.00  0.00     0.274 HD
ATOM     22  H32 UNL     1      35.436  41.272  -2.522  1.00  0.00     0.274 HD
ATOM     23  H31 UNL     1      34.488  41.422  -1.126  1.00  0.00     0.274 HD
ENDBRANCH  19  20
ENDBRANCH  18  19
ENDBRANCH  17  18
ENDBRANCH  16  17
ENDBRANCH  15  16
ENDBRANCH  14  15
ENDBRANCH  12  14
ENDBRANCH   9  12
TORSDOF 8
ENDMDL
