MODEL 1
REMARK VINA RESULT: -4.139453518      0.000      0.000
REMARK  2 active torsions:
REMARK  status: ('A' for Active; 'I' for Inactive)
REMARK    1  A    between atoms: C19_22  and  C20_24 
REMARK    2  A    between atoms: C22_27  and  C23_28 
ROOT
HETATM    1  C1  UNL     1      25.382   1.552  22.997  1.00  0.00     0.011 C 
HETATM    2  C2  UNL     1      25.848   0.357  23.709  1.00  0.00     0.001 C 
HETATM    3  C3  UNL     1      25.899  -0.736  22.682  1.00  0.00     0.015 C 
HETATM    4  C4  UNL     1      25.454  -1.632  23.861  1.00  0.00    -0.030 C 
HETATM    5  C5  UNL     1      26.663  -2.432  24.194  1.00  0.00     0.016 C 
HETATM    6  C6  UNL     1      24.466  -2.631  23.234  1.00  0.00     0.016 C 
HETATM    7  C7  UNL     1      24.956  -0.488  24.602  1.00  0.00     0.055 C 
HETATM    8  C8  UNL     1      23.536  -0.107  24.251  1.00  0.00     0.153 C 
HETATM    9  O1  UNL     1      23.162  -0.471  23.118  1.00  0.00    -0.296 OA
HETATM   10  C9  UNL     1      22.456   0.597  24.913  1.00  0.00     0.167 C 
HETATM   11  C10 UNL     1      22.759   2.069  25.133  1.00  0.00     0.149 C 
HETATM   12  O2  UNL     1      22.597   3.108  24.526  1.00  0.00    -0.296 OA
HETATM   13  C11 UNL     1      23.332   1.559  26.434  1.00  0.00     0.105 C 
HETATM   14  C12 UNL     1      24.740   1.228  26.469  1.00  0.00     0.043 C 
HETATM   15  C13 UNL     1      25.231   1.264  27.852  1.00  0.00     0.029 C 
HETATM   16  C14 UNL     1      24.338   1.988  28.830  1.00  0.00     0.024 C 
HETATM   17  C15 UNL     1      26.507   1.755  28.318  1.00  0.00     0.136 C 
HETATM   18  O3  UNL     1      27.271   2.546  27.865  1.00  0.00    -0.297 OA
HETATM   19  C16 UNL     1      26.702   1.008  29.608  1.00  0.00     0.079 C 
HETATM   20  C17 UNL     1      25.577  -0.082  29.588  1.00  0.00     0.015 C 
HETATM   21  C18 UNL     1      25.511  -0.185  28.191  1.00  0.00     0.029 C 
HETATM   22  C19 UNL     1      24.768  -0.932  27.182  1.00  0.00     0.086 C 
HETATM   23 CL1  UNL     1      25.461  -2.613  27.287  1.00  0.00    -0.115 Cl
HETATM   24  C23 UNL     1      22.234   0.592  26.368  1.00  0.00     0.137 C 
HETATM   25  F1  UNL     1      21.032   1.348  26.569  1.00  0.00    -0.240 F 
HETATM   26  C24 UNL     1      25.152  -0.172  26.008  1.00  0.00     0.082 C 
HETATM   27 CL3  UNL     1      26.958   0.169  26.092  1.00  0.00    -0.115 Cl
ENDROOT
BRANCH  22  28
HETATM   28  C20 UNL     1      23.430  -1.211  27.650  1.00  0.00     0.068 A 
HETATM   29 CL2  UNL     1      23.143  -0.324  29.214  1.00  0.00    -0.117 Cl
HETATM   30  C21 UNL     1      22.859  -2.631  27.780  1.00  0.00     0.038 A 
HETATM   31  C22 UNL     1      22.315  -1.638  26.861  1.00  0.00     0.055 A 
ENDBRANCH  22  28
TORSDOF 2
ENDMDL
MODEL 2
REMARK VINA RESULT: -3.947775494      4.467      7.570
REMARK  2 active torsions:
REMARK  status: ('A' for Active; 'I' for Inactive)
REMARK    1  A    between atoms: C19_22  and  C20_24 
REMARK    2  A    between atoms: C22_27  and  C23_28 
ROOT
HETATM    1  C1  UNL     1      24.850   1.341  24.201  1.00  0.00     0.011 C 
HETATM    2  C2  UNL     1      24.325   2.163  23.105  1.00  0.00     0.001 C 
HETATM    3  C3  UNL     1      22.914   2.501  23.489  1.00  0.00     0.015 C 
HETATM    4  C4  UNL     1      22.653   2.381  21.970  1.00  0.00    -0.030 C 
HETATM    5  C5  UNL     1      22.445   3.783  21.518  1.00  0.00     0.016 C 
HETATM    6  C6  UNL     1      21.272   1.712  21.867  1.00  0.00     0.016 C 
HETATM    7  C7  UNL     1      23.857   1.592  21.779  1.00  0.00     0.055 C 
HETATM    8  C8  UNL     1      23.657   0.112  22.011  1.00  0.00     0.153 C 
HETATM    9  O1  UNL     1      22.696  -0.176  22.753  1.00  0.00    -0.296 OA
HETATM   10  C9  UNL     1      24.314  -1.105  21.579  1.00  0.00     0.167 C 
HETATM   11  C10 UNL     1      25.721  -1.244  22.134  1.00  0.00     0.149 C 
HETATM   12  O2  UNL     1      26.242  -1.726  23.120  1.00  0.00    -0.296 OA
HETATM   13  C11 UNL     1      26.087  -0.502  20.871  1.00  0.00     0.105 C 
HETATM   14  C12 UNL     1      26.167   0.941  20.934  1.00  0.00     0.043 C 
HETATM   15  C13 UNL     1      27.008   1.446  19.841  1.00  0.00     0.029 C 
HETATM   16  C14 UNL     1      27.886   0.413  19.179  1.00  0.00     0.024 C 
HETATM   17  C15 UNL     1      27.956   2.535  19.895  1.00  0.00     0.136 C 
HETATM   18  O3  UNL     1      28.569   3.015  20.793  1.00  0.00    -0.297 OA
HETATM   19  C16 UNL     1      28.028   2.986  18.462  1.00  0.00     0.079 C 
HETATM   20  C17 UNL     1      26.843   2.234  17.768  1.00  0.00     0.015 C 
HETATM   21  C18 UNL     1      26.041   2.153  18.916  1.00  0.00     0.029 C 
HETATM   22  C19 UNL     1      24.736   1.631  19.306  1.00  0.00     0.086 C 
HETATM   23 CL1  UNL     1      23.557   2.793  18.546  1.00  0.00    -0.115 Cl
HETATM   24  C23 UNL     1      24.987  -1.266  20.279  1.00  0.00     0.137 C 
HETATM   25  F1  UNL     1      25.427  -2.631  20.250  1.00  0.00    -0.240 F 
HETATM   26  C24 UNL     1      24.871   1.733  20.746  1.00  0.00     0.082 C 
HETATM   27 CL3  UNL     1      25.630   3.359  21.153  1.00  0.00    -0.115 Cl
ENDROOT
BRANCH  22  28
HETATM   28  C20 UNL     1      24.417   0.452  18.534  1.00  0.00     0.068 A 
HETATM   29 CL2  UNL     1      25.868  -0.027  17.542  1.00  0.00    -0.117 Cl
HETATM   30  C21 UNL     1      23.162   0.329  17.657  1.00  0.00     0.038 A 
HETATM   31  C22 UNL     1      23.403  -0.515  18.821  1.00  0.00     0.055 A 
ENDBRANCH  22  28
TORSDOF 2
ENDMDL
MODEL 3
REMARK VINA RESULT: -3.870531374      3.471      6.794
REMARK  2 active torsions:
REMARK  status: ('A' for Active; 'I' for Inactive)
REMARK    1  A    between atoms: C19_22  and  C20_24 
REMARK    2  A    between atoms: C22_27  and  C23_28 
ROOT
HETATM    1  C1  UNL     1      22.647  -1.576  23.980  1.00  0.00     0.011 C 
HETATM    2  C2  UNL     1      24.052  -1.244  23.721  1.00  0.00     0.001 C 
HETATM    3  C3  UNL     1      24.680  -1.045  25.069  1.00  0.00     0.015 C 
HETATM    4  C4  UNL     1      25.499   0.043  24.337  1.00  0.00    -0.030 C 
HETATM    5  C5  UNL     1      26.865  -0.534  24.226  1.00  0.00     0.016 C 
HETATM    6  C6  UNL     1      25.623   1.185  25.360  1.00  0.00     0.016 C 
HETATM    7  C7  UNL     1      24.519   0.128  23.271  1.00  0.00     0.055 C 
HETATM    8  C8  UNL     1      23.377   1.074  23.567  1.00  0.00     0.153 C 
HETATM    9  O1  UNL     1      23.167   1.274  24.781  1.00  0.00    -0.296 OA
HETATM   10  C9  UNL     1      22.430   1.838  22.780  1.00  0.00     0.167 C 
HETATM   11  C10 UNL     1      21.457   0.959  22.014  1.00  0.00     0.149 C 
HETATM   12  O2  UNL     1      20.364   0.466  22.211  1.00  0.00    -0.296 OA
HETATM   13  C11 UNL     1      22.524   1.033  20.950  1.00  0.00     0.105 C 
HETATM   14  C12 UNL     1      23.532  -0.004  20.929  1.00  0.00     0.043 C 
HETATM   15  C13 UNL     1      24.138  -0.090  19.594  1.00  0.00     0.029 C 
HETATM   16  C14 UNL     1      23.358   0.584  18.492  1.00  0.00     0.024 C 
HETATM   17  C15 UNL     1      24.531  -1.285  18.884  1.00  0.00     0.136 C 
HETATM   18  O3  UNL     1      24.162  -2.413  18.955  1.00  0.00    -0.297 OA
HETATM   19  C16 UNL     1      25.592  -0.782  17.945  1.00  0.00     0.079 C 
HETATM   20  C17 UNL     1      25.886   0.672  18.449  1.00  0.00     0.015 C 
HETATM   21  C18 UNL     1      25.550   0.423  19.787  1.00  0.00     0.029 C 
HETATM   22  C19 UNL     1      25.491   1.144  21.054  1.00  0.00     0.086 C 
HETATM   23 CL1  UNL     1      27.240   1.353  21.517  1.00  0.00    -0.115 Cl
HETATM   24  C23 UNL     1      22.720   2.396  21.449  1.00  0.00     0.137 C 
HETATM   25  F1  UNL     1      21.540   3.123  21.081  1.00  0.00    -0.240 F 
HETATM   26  C24 UNL     1      24.752   0.172  21.835  1.00  0.00     0.082 C 
HETATM   27 CL3  UNL     1      25.435  -1.502  21.492  1.00  0.00    -0.115 Cl
ENDROOT
BRANCH  22  28
HETATM   28  C20 UNL     1      25.152   2.529  20.826  1.00  0.00     0.068 A 
HETATM   29 CL2  UNL     1      24.624   2.743  19.097  1.00  0.00    -0.117 Cl
HETATM   30  C21 UNL     1      26.074   3.699  21.204  1.00  0.00     0.038 A 
HETATM   31  C22 UNL     1      24.765   3.493  21.810  1.00  0.00     0.055 A 
ENDBRANCH  22  28
TORSDOF 2
ENDMDL
MODEL 4
REMARK VINA RESULT: -3.835031621      3.536      6.015
REMARK  2 active torsions:
REMARK  status: ('A' for Active; 'I' for Inactive)
REMARK    1  A    between atoms: C19_22  and  C20_24 
REMARK    2  A    between atoms: C22_27  and  C23_28 
ROOT
HETATM    1  C1  UNL     1      26.243   0.007  24.379  1.00  0.00     0.011 C 
HETATM    2  C2  UNL     1      25.048   0.701  24.871  1.00  0.00     0.001 C 
HETATM    3  C3  UNL     1      24.524  -0.139  25.998  1.00  0.00     0.015 C 
HETATM    4  C4  UNL     1      23.144   0.314  25.468  1.00  0.00    -0.030 C 
HETATM    5  C5  UNL     1      22.654   1.281  26.486  1.00  0.00     0.016 C 
HETATM    6  C6  UNL     1      22.246  -0.926  25.620  1.00  0.00     0.016 C 
HETATM    7  C7  UNL     1      23.702   0.649  24.171  1.00  0.00     0.055 C 
HETATM    8  C8  UNL     1      23.773  -0.522  23.217  1.00  0.00     0.153 C 
HETATM    9  O1  UNL     1      23.805  -1.642  23.767  1.00  0.00    -0.296 OA
HETATM   10  C9  UNL     1      23.815  -0.689  21.779  1.00  0.00     0.167 C 
HETATM   11  C10 UNL     1      25.094  -0.153  21.160  1.00  0.00     0.149 C 
HETATM   12  O2  UNL     1      26.198  -0.583  20.891  1.00  0.00    -0.296 OA
HETATM   13  C11 UNL     1      24.290   1.121  21.070  1.00  0.00     0.105 C 
HETATM   14  C12 UNL     1      24.385   2.060  22.166  1.00  0.00     0.043 C 
HETATM   15  C13 UNL     1      24.000   3.403  21.714  1.00  0.00     0.029 C 
HETATM   16  C14 UNL     1      23.985   3.595  20.217  1.00  0.00     0.024 C 
HETATM   17  C15 UNL     1      24.601   4.662  22.089  1.00  0.00     0.136 C 
HETATM   18  O3  UNL     1      25.687   4.941  22.483  1.00  0.00    -0.297 OA
HETATM   19  C16 UNL     1      23.487   5.645  21.860  1.00  0.00     0.079 C 
HETATM   20  C17 UNL     1      22.227   4.744  21.626  1.00  0.00     0.015 C 
HETATM   21  C18 UNL     1      22.680   3.671  22.407  1.00  0.00     0.029 C 
HETATM   22  C19 UNL     1      22.225   2.347  22.819  1.00  0.00     0.086 C 
HETATM   23 CL1  UNL     1      20.914   2.697  24.034  1.00  0.00    -0.115 Cl
HETATM   24  C23 UNL     1      23.164   0.219  20.821  1.00  0.00     0.137 C 
HETATM   25  F1  UNL     1      23.402  -0.361  19.530  1.00  0.00    -0.240 F 
HETATM   26  C24 UNL     1      23.467   1.841  23.370  1.00  0.00     0.082 C 
HETATM   27 CL3  UNL     1      24.241   3.163  24.390  1.00  0.00    -0.115 Cl
ENDROOT
BRANCH  22  28
HETATM   28  C20 UNL     1      21.416   1.751  21.782  1.00  0.00     0.068 A 
HETATM   29 CL2  UNL     1      21.803   2.542  20.188  1.00  0.00    -0.117 Cl
HETATM   30  C21 UNL     1      19.893   1.583  21.889  1.00  0.00     0.038 A 
HETATM   31  C22 UNL     1      20.811   0.454  21.803  1.00  0.00     0.055 A 
ENDBRANCH  22  28
TORSDOF 2
ENDMDL
MODEL 5
REMARK VINA RESULT: -3.690722959      4.279      7.229
REMARK  2 active torsions:
REMARK  status: ('A' for Active; 'I' for Inactive)
REMARK    1  A    between atoms: C19_22  and  C20_24 
REMARK    2  A    between atoms: C22_27  and  C23_28 
ROOT
HETATM    1  C1  UNL     1      22.624   3.788  19.995  1.00  0.00     0.011 C 
HETATM    2  C2  UNL     1      22.339   2.624  20.840  1.00  0.00     0.001 C 
HETATM    3  C3  UNL     1      21.639   3.162  22.053  1.00  0.00     0.015 C 
HETATM    4  C4  UNL     1      22.413   2.043  22.786  1.00  0.00    -0.030 C 
HETATM    5  C5  UNL     1      21.374   1.034  23.124  1.00  0.00     0.016 C 
HETATM    6  C6  UNL     1      22.820   2.672  24.130  1.00  0.00     0.016 C 
HETATM    7  C7  UNL     1      23.381   1.944  21.710  1.00  0.00     0.055 C 
HETATM    8  C8  UNL     1      24.526   2.924  21.829  1.00  0.00     0.153 C 
HETATM    9  O1  UNL     1      24.273   3.943  22.503  1.00  0.00    -0.296 OA
HETATM   10  C9  UNL     1      25.891   2.989  21.348  1.00  0.00     0.167 C 
HETATM   11  C10 UNL     1      25.978   3.126  19.838  1.00  0.00     0.149 C 
HETATM   12  O2  UNL     1      26.019   4.033  19.030  1.00  0.00    -0.296 OA
HETATM   13  C11 UNL     1      25.984   1.618  19.893  1.00  0.00     0.105 C 
HETATM   14  C12 UNL     1      24.714   0.932  19.793  1.00  0.00     0.043 C 
HETATM   15  C13 UNL     1      24.923  -0.451  19.344  1.00  0.00     0.029 C 
HETATM   16  C14 UNL     1      26.272  -0.727  18.727  1.00  0.00     0.024 C 
HETATM   17  C15 UNL     1      24.105  -1.208  18.426  1.00  0.00     0.136 C 
HETATM   18  O3  UNL     1      23.365  -0.876  17.556  1.00  0.00    -0.297 OA
HETATM   19  C16 UNL     1      24.396  -2.631  18.814  1.00  0.00     0.079 C 
HETATM   20  C17 UNL     1      25.184  -2.502  20.162  1.00  0.00     0.015 C 
HETATM   21  C18 UNL     1      24.587  -1.296  20.555  1.00  0.00     0.029 C 
HETATM   22  C19 UNL     1      24.648  -0.355  21.668  1.00  0.00     0.086 C 
HETATM   23 CL1  UNL     1      23.805  -1.230  23.024  1.00  0.00    -0.115 Cl
HETATM   24  C23 UNL     1      26.748   1.813  21.127  1.00  0.00     0.137 C 
HETATM   25  F1  UNL     1      28.019   2.343  20.723  1.00  0.00    -0.240 F 
HETATM   26  C24 UNL     1      23.906   0.743  21.079  1.00  0.00     0.082 C 
HETATM   27 CL3  UNL     1      22.425   0.063  20.225  1.00  0.00    -0.115 Cl
ENDROOT
BRANCH  22  28
HETATM   28  C20 UNL     1      25.982  -0.318  22.220  1.00  0.00     0.068 A 
HETATM   29 CL2  UNL     1      27.142  -1.080  21.040  1.00  0.00    -0.117 Cl
HETATM   30  C21 UNL     1      26.326  -0.811  23.633  1.00  0.00     0.038 A 
HETATM   31  C22 UNL     1      26.474   0.578  23.220  1.00  0.00     0.055 A 
ENDBRANCH  22  28
TORSDOF 2
ENDMDL
