MODEL 1
REMARK VINA RESULT: -6.393951780      0.000      0.000
REMARK  6 active torsions:
REMARK  status: ('A' for Active; 'I' for Inactive)
REMARK    1  A    between atoms: N1_1  and  N2_4 
REMARK    2  A    between atoms: N2_4  and  C1_6 
REMARK    3  A    between atoms: C6_12  and  N4_13 
REMARK    4  A    between atoms: N4_13  and  C7_15 
REMARK    5  A    between atoms: C10_18  and  S1_19 
REMARK    6  A    between atoms: S1_19  and  N5_20 
ROOT
HETATM    1  C7  UNL     1      23.667   8.341  23.789  1.00  0.00     0.106 A 
HETATM    2  C8  UNL     1      22.615   8.818  23.027  1.00  0.00     0.050 A 
HETATM    3  C9  UNL     1      22.637  10.160  22.679  1.00  0.00     0.032 A 
HETATM    4  C10 UNL     1      23.654  11.011  23.063  1.00  0.00     0.120 A 
HETATM    5  C11 UNL     1      24.674  10.461  23.826  1.00  0.00     0.141 A 
HETATM    6  N6  UNL     1      25.767  11.275  24.265  1.00  0.00    -0.081 NA
HETATM    7  N7  UNL     1      24.676   9.160  24.178  1.00  0.00    -0.330 N 
ATOM      8  H7  UNL     1      25.442   8.788  24.740  1.00  0.00     0.168 HD
ENDROOT
BRANCH   1   9
HETATM    9  N4  UNL     1      23.720   7.116  24.151  1.00  0.00    -0.341 N 
ATOM     10  H4  UNL     1      22.854   6.689  24.481  1.00  0.00     0.167 HD
BRANCH   9  11
HETATM   11  C6  UNL     1      24.864   6.311  24.133  1.00  0.00     0.062 A 
HETATM   12  C1  UNL     1      25.158   5.511  25.231  1.00  0.00     0.076 A 
HETATM   13  C2  UNL     1      26.301   4.724  25.176  1.00  0.00     0.059 A 
HETATM   14  C3  UNL     1      27.144   4.711  24.086  1.00  0.00     0.048 A 
HETATM   15  N3  UNL     1      28.310   3.906  24.040  1.00  0.00    -0.102 NA
HETATM   16  C4  UNL     1      26.814   5.529  23.006  1.00  0.00     0.029 A 
HETATM   17  C5  UNL     1      25.685   6.324  23.024  1.00  0.00     0.034 A 
BRANCH  12  18
HETATM   18  N2  UNL     1      24.309   5.499  26.373  1.00  0.00    -0.305 N 
ATOM     19  H2  UNL     1      23.350   5.833  26.284  1.00  0.00     0.186 HD
BRANCH  18  20
HETATM   20  N1  UNL     1      24.754   5.044  27.600  1.00  0.00    -0.345 N 
ATOM     21  H12 UNL     1      25.522   4.373  27.615  1.00  0.00     0.176 HD
ATOM     22  H11 UNL     1      24.333   5.364  28.472  1.00  0.00     0.176 HD
ENDBRANCH  18  20
ENDBRANCH  12  18
ENDBRANCH   9  11
ENDBRANCH   1   9
BRANCH   4  23
HETATM   23  S1  UNL     1      23.691  12.696  22.632  1.00  0.00     0.260 S 
HETATM   24  O1  UNL     1      24.472  12.866  21.355  1.00  0.00    -0.201 OA
HETATM   25  O2  UNL     1      22.293  13.241  22.430  1.00  0.00    -0.201 OA
BRANCH  23  26
HETATM   26  N5  UNL     1      24.438  13.608  23.875  1.00  0.00    -0.324 N 
ATOM     27  H52 UNL     1      24.966  13.200  24.646  1.00  0.00     0.169 HD
ATOM     28  H51 UNL     1      24.275  14.604  23.729  1.00  0.00     0.169 HD
ENDBRANCH  23  26
ENDBRANCH   4  23
TORSDOF 6
ENDMDL
MODEL 2
REMARK VINA RESULT: -6.148507263      4.107      7.061
REMARK  6 active torsions:
REMARK  status: ('A' for Active; 'I' for Inactive)
REMARK    1  A    between atoms: N1_1  and  N2_4 
REMARK    2  A    between atoms: N2_4  and  C1_6 
REMARK    3  A    between atoms: C6_12  and  N4_13 
REMARK    4  A    between atoms: N4_13  and  C7_15 
REMARK    5  A    between atoms: C10_18  and  S1_19 
REMARK    6  A    between atoms: S1_19  and  N5_20 
ROOT
HETATM    1  C7  UNL     1      25.012   8.064  24.104  1.00  0.00     0.106 A 
HETATM    2  C8  UNL     1      23.906   8.088  24.935  1.00  0.00     0.050 A 
HETATM    3  C9  UNL     1      23.736   7.019  25.801  1.00  0.00     0.032 A 
HETATM    4  C10 UNL     1      24.618   5.959  25.855  1.00  0.00     0.120 A 
HETATM    5  C11 UNL     1      25.703   6.003  24.992  1.00  0.00     0.141 A 
HETATM    6  N6  UNL     1      26.665   4.943  24.984  1.00  0.00    -0.081 NA
HETATM    7  N7  UNL     1      25.891   7.031  24.140  1.00  0.00    -0.330 N 
ATOM      8  H7  UNL     1      26.699   7.032  23.518  1.00  0.00     0.168 HD
ENDROOT
BRANCH   1   9
HETATM    9  N4  UNL     1      25.239   9.011  23.276  1.00  0.00    -0.341 N 
ATOM     10  H4  UNL     1      25.899   8.824  22.522  1.00  0.00     0.167 HD
BRANCH   9  11
HETATM   11  C6  UNL     1      24.659  10.284  23.318  1.00  0.00     0.062 A 
HETATM   12  C1  UNL     1      23.433  10.501  22.700  1.00  0.00     0.076 A 
HETATM   13  C2  UNL     1      22.889  11.777  22.764  1.00  0.00     0.059 A 
HETATM   14  C3  UNL     1      23.515  12.822  23.408  1.00  0.00     0.048 A 
HETATM   15  N3  UNL     1      22.952  14.122  23.467  1.00  0.00    -0.102 NA
HETATM   16  C4  UNL     1      24.744  12.562  24.014  1.00  0.00     0.029 A 
HETATM   17  C5  UNL     1      25.315  11.307  23.972  1.00  0.00     0.034 A 
BRANCH  12  18
HETATM   18  N2  UNL     1      22.759   9.445  22.027  1.00  0.00    -0.305 N 
ATOM     19  H2  UNL     1      23.014   9.225  21.064  1.00  0.00     0.186 HD
BRANCH  18  20
HETATM   20  N1  UNL     1      21.766   8.710  22.646  1.00  0.00    -0.345 N 
ATOM     21  H12 UNL     1      21.317   9.106  23.472  1.00  0.00     0.176 HD
ATOM     22  H11 UNL     1      21.481   7.795  22.295  1.00  0.00     0.176 HD
ENDBRANCH  18  20
ENDBRANCH  12  18
ENDBRANCH   9  11
ENDBRANCH   1   9
BRANCH   4  23
HETATM   23  S1  UNL     1      24.414   4.612  26.939  1.00  0.00     0.260 S 
HETATM   24  O1  UNL     1      25.283   4.814  28.152  1.00  0.00    -0.201 OA
HETATM   25  O2  UNL     1      22.973   4.480  27.383  1.00  0.00    -0.201 OA
BRANCH  23  26
HETATM   26  N5  UNL     1      24.862   3.153  26.161  1.00  0.00    -0.324 N 
ATOM     27  H52 UNL     1      24.745   2.978  25.163  1.00  0.00     0.169 HD
ATOM     28  H51 UNL     1      25.256   2.500  26.837  1.00  0.00     0.169 HD
ENDBRANCH  23  26
ENDBRANCH   4  23
TORSDOF 6
ENDMDL
MODEL 3
REMARK VINA RESULT: -6.016666116      3.819      7.218
REMARK  6 active torsions:
REMARK  status: ('A' for Active; 'I' for Inactive)
REMARK    1  A    between atoms: N1_1  and  N2_4 
REMARK    2  A    between atoms: N2_4  and  C1_6 
REMARK    3  A    between atoms: C6_12  and  N4_13 
REMARK    4  A    between atoms: N4_13  and  C7_15 
REMARK    5  A    between atoms: C10_18  and  S1_19 
REMARK    6  A    between atoms: S1_19  and  N5_20 
ROOT
HETATM    1  C7  UNL     1      23.727   9.685  23.154  1.00  0.00     0.106 A 
HETATM    2  C8  UNL     1      22.616   8.890  23.376  1.00  0.00     0.050 A 
HETATM    3  C9  UNL     1      22.839   7.589  23.801  1.00  0.00     0.032 A 
HETATM    4  C10 UNL     1      24.106   7.080  24.004  1.00  0.00     0.120 A 
HETATM    5  C11 UNL     1      25.170   7.936  23.762  1.00  0.00     0.141 A 
HETATM    6  N6  UNL     1      26.516   7.486  23.948  1.00  0.00    -0.081 NA
HETATM    7  N7  UNL     1      24.981   9.204  23.347  1.00  0.00    -0.330 N 
ATOM      8  H7  UNL     1      25.785   9.807  23.177  1.00  0.00     0.168 HD
ENDROOT
BRANCH   1   9
HETATM    9  N4  UNL     1      23.606  10.895  22.761  1.00  0.00    -0.341 N 
ATOM     10  H4  UNL     1      23.010  11.065  21.951  1.00  0.00     0.167 HD
BRANCH   9  11
HETATM   11  C6  UNL     1      24.222  12.007  23.346  1.00  0.00     0.062 A 
HETATM   12  C1  UNL     1      24.821  12.965  22.537  1.00  0.00     0.076 A 
HETATM   13  C2  UNL     1      25.421  14.055  23.154  1.00  0.00     0.059 A 
HETATM   14  C3  UNL     1      25.444  14.217  24.522  1.00  0.00     0.048 A 
HETATM   15  N3  UNL     1      26.060  15.332  25.144  1.00  0.00    -0.102 NA
HETATM   16  C4  UNL     1      24.832  13.232  25.298  1.00  0.00     0.029 A 
HETATM   17  C5  UNL     1      24.225  12.135  24.720  1.00  0.00     0.034 A 
BRANCH  12  18
HETATM   18  N2  UNL     1      24.816  12.831  21.121  1.00  0.00    -0.305 N 
ATOM     19  H2  UNL     1      24.390  12.005  20.701  1.00  0.00     0.186 HD
BRANCH  18  20
HETATM   20  N1  UNL     1      25.374  13.794  20.301  1.00  0.00    -0.345 N 
ATOM     21  H12 UNL     1      26.377  13.753  20.124  1.00  0.00     0.176 HD
ATOM     22  H11 UNL     1      24.807  14.529  19.879  1.00  0.00     0.176 HD
ENDBRANCH  18  20
ENDBRANCH  12  18
ENDBRANCH   9  11
ENDBRANCH   1   9
BRANCH   4  23
HETATM   23  S1  UNL     1      24.396   5.449  24.538  1.00  0.00     0.260 S 
HETATM   24  O1  UNL     1      23.099   4.840  25.004  1.00  0.00    -0.201 OA
HETATM   25  O2  UNL     1      24.965   4.600  23.421  1.00  0.00    -0.201 OA
BRANCH  23  26
HETATM   26  N5  UNL     1      25.519   5.441  25.832  1.00  0.00    -0.324 N 
ATOM     27  H52 UNL     1      26.055   6.256  26.129  1.00  0.00     0.169 HD
ATOM     28  H51 UNL     1      25.568   4.512  26.250  1.00  0.00     0.169 HD
ENDBRANCH  23  26
ENDBRANCH   4  23
TORSDOF 6
ENDMDL
MODEL 4
REMARK VINA RESULT: -6.004896482      1.256      1.728
REMARK  6 active torsions:
REMARK  status: ('A' for Active; 'I' for Inactive)
REMARK    1  A    between atoms: N1_1  and  N2_4 
REMARK    2  A    between atoms: N2_4  and  C1_6 
REMARK    3  A    between atoms: C6_12  and  N4_13 
REMARK    4  A    between atoms: N4_13  and  C7_15 
REMARK    5  A    between atoms: C10_18  and  S1_19 
REMARK    6  A    between atoms: S1_19  and  N5_20 
ROOT
HETATM    1  C7  UNL     1      24.024   8.865  23.777  1.00  0.00     0.106 A 
HETATM    2  C8  UNL     1      25.162   9.537  24.190  1.00  0.00     0.050 A 
HETATM    3  C9  UNL     1      25.252  10.886  23.884  1.00  0.00     0.032 A 
HETATM    4  C10 UNL     1      24.262  11.560  23.198  1.00  0.00     0.120 A 
HETATM    5  C11 UNL     1      23.151  10.822  22.816  1.00  0.00     0.141 A 
HETATM    6  N6  UNL     1      22.080  11.445  22.100  1.00  0.00    -0.081 NA
HETATM    7  N7  UNL     1      23.040   9.509  23.100  1.00  0.00    -0.330 N 
ATOM      8  H7  UNL     1      22.210   8.995  22.805  1.00  0.00     0.168 HD
ENDROOT
BRANCH   1   9
HETATM    9  N4  UNL     1      23.866   7.620  24.019  1.00  0.00    -0.341 N 
ATOM     10  H4  UNL     1      22.917   7.297  24.202  1.00  0.00     0.167 HD
BRANCH   9  11
HETATM   11  C6  UNL     1      24.886   6.663  24.055  1.00  0.00     0.062 A 
HETATM   12  C1  UNL     1      24.983   5.803  25.143  1.00  0.00     0.076 A 
HETATM   13  C2  UNL     1      26.008   4.865  25.142  1.00  0.00     0.059 A 
HETATM   14  C3  UNL     1      26.920   4.760  24.115  1.00  0.00     0.048 A 
HETATM   15  N3  UNL     1      27.964   3.800  24.124  1.00  0.00    -0.102 NA
HETATM   16  C4  UNL     1      26.788   5.643  23.043  1.00  0.00     0.029 A 
HETATM   17  C5  UNL     1      25.783   6.587  23.008  1.00  0.00     0.034 A 
BRANCH  12  18
HETATM   18  N2  UNL     1      24.058   5.883  26.220  1.00  0.00    -0.305 N 
ATOM     19  H2  UNL     1      23.251   6.502  26.139  1.00  0.00     0.186 HD
BRANCH  18  20
HETATM   20  N1  UNL     1      24.225   5.140  27.374  1.00  0.00    -0.345 N 
ATOM     21  H12 UNL     1      23.785   4.221  27.423  1.00  0.00     0.176 HD
ATOM     22  H11 UNL     1      24.770   5.493  28.161  1.00  0.00     0.176 HD
ENDBRANCH  18  20
ENDBRANCH  12  18
ENDBRANCH   9  11
ENDBRANCH   1   9
BRANCH   4  23
HETATM   23  S1  UNL     1      24.365  13.253  22.809  1.00  0.00     0.260 S 
HETATM   24  O1  UNL     1      25.513  13.868  23.566  1.00  0.00    -0.201 OA
HETATM   25  O2  UNL     1      24.585  13.463  21.326  1.00  0.00    -0.201 OA
BRANCH  23  26
HETATM   26  N5  UNL     1      22.912  14.050  23.246  1.00  0.00    -0.324 N 
ATOM     27  H52 UNL     1      22.821  14.676  24.045  1.00  0.00     0.169 HD
ATOM     28  H51 UNL     1      22.166  13.805  22.595  1.00  0.00     0.169 HD
ENDBRANCH  23  26
ENDBRANCH   4  23
TORSDOF 6
ENDMDL
MODEL 5
REMARK VINA RESULT: -5.818195190      2.690      3.991
REMARK  6 active torsions:
REMARK  status: ('A' for Active; 'I' for Inactive)
REMARK    1  A    between atoms: N1_1  and  N2_4 
REMARK    2  A    between atoms: N2_4  and  C1_6 
REMARK    3  A    between atoms: C6_12  and  N4_13 
REMARK    4  A    between atoms: N4_13  and  C7_15 
REMARK    5  A    between atoms: C10_18  and  S1_19 
REMARK    6  A    between atoms: S1_19  and  N5_20 
ROOT
HETATM    1  C7  UNL     1      24.200   6.422  24.209  1.00  0.00     0.106 A 
HETATM    2  C8  UNL     1      25.401   7.088  24.378  1.00  0.00     0.050 A 
HETATM    3  C9  UNL     1      25.416   8.451  24.124  1.00  0.00     0.032 A 
HETATM    4  C10 UNL     1      24.293   9.144  23.719  1.00  0.00     0.120 A 
HETATM    5  C11 UNL     1      23.125   8.410  23.571  1.00  0.00     0.141 A 
HETATM    6  N6  UNL     1      21.916   9.052  23.154  1.00  0.00    -0.081 NA
HETATM    7  N7  UNL     1      23.085   7.084  23.810  1.00  0.00    -0.330 N 
ATOM      8  H7  UNL     1      22.210   6.574  23.691  1.00  0.00     0.168 HD
ENDROOT
BRANCH   1   9
HETATM    9  N4  UNL     1      24.105   5.166  24.421  1.00  0.00    -0.341 N 
ATOM     10  H4  UNL     1      24.713   4.553  23.878  1.00  0.00     0.167 HD
BRANCH   9  11
HETATM   11  C6  UNL     1      23.237   4.559  25.336  1.00  0.00     0.062 A 
HETATM   12  C1  UNL     1      23.593   4.486  26.677  1.00  0.00     0.076 A 
HETATM   13  C2  UNL     1      22.704   3.878  27.555  1.00  0.00     0.059 A 
HETATM   14  C3  UNL     1      21.499   3.349  27.147  1.00  0.00     0.048 A 
HETATM   15  N3  UNL     1      20.599   2.728  28.050  1.00  0.00    -0.102 NA
HETATM   16  C4  UNL     1      21.181   3.441  25.792  1.00  0.00     0.029 A 
HETATM   17  C5  UNL     1      22.038   4.039  24.890  1.00  0.00     0.034 A 
BRANCH  12  18
HETATM   18  N2  UNL     1      24.829   5.023  27.134  1.00  0.00    -0.305 N 
ATOM     19  H2  UNL     1      25.505   5.364  26.452  1.00  0.00     0.186 HD
BRANCH  18  20
HETATM   20  N1  UNL     1      25.134   5.092  28.480  1.00  0.00    -0.345 N 
ATOM     21  H12 UNL     1      24.365   5.169  29.145  1.00  0.00     0.176 HD
ATOM     22  H11 UNL     1      26.099   5.067  28.810  1.00  0.00     0.176 HD
ENDBRANCH  18  20
ENDBRANCH  12  18
ENDBRANCH   9  11
ENDBRANCH   1   9
BRANCH   4  23
HETATM   23  S1  UNL     1      24.300  10.854  23.399  1.00  0.00     0.260 S 
HETATM   24  O1  UNL     1      24.099  11.603  24.690  1.00  0.00    -0.201 OA
HETATM   25  O2  UNL     1      25.610  11.289  22.777  1.00  0.00    -0.201 OA
BRANCH  23  26
HETATM   26  N5  UNL     1      23.040  11.258  22.311  1.00  0.00    -0.324 N 
ATOM     27  H52 UNL     1      23.190  11.643  21.379  1.00  0.00     0.169 HD
ATOM     28  H51 UNL     1      22.133  11.058  22.733  1.00  0.00     0.169 HD
ENDBRANCH  23  26
ENDBRANCH   4  23
TORSDOF 6
ENDMDL
