MODEL 1
REMARK VINA RESULT: -8.720013360      0.000      0.000
REMARK  16 active torsions:
REMARK  status: ('A' for Active; 'I' for Inactive)
REMARK    1  A    between atoms: C2_2  and  O1_3 
REMARK    2  A    between atoms: O1_3  and  C3_4 
REMARK    3  A    between atoms: C6_7  and  C7_8 
REMARK    4  A    between atoms: C7_8  and  C8_9 
REMARK    5  A    between atoms: C8_9  and  C9_10 
REMARK       I    between atoms: C9_10  and  N1_12 
REMARK    6  A    between atoms: C10_14  and  C11_15 
REMARK    7  A    between atoms: C10_14  and  C16_25 
REMARK    8  A    between atoms: C11_15  and  N2_16 
REMARK       I    between atoms: N2_16  and  C12_18 
REMARK    9  A    between atoms: C12_18  and  C13_20 
REMARK   10  A    between atoms: C13_20  and  O4_21 
REMARK   11  A    between atoms: O4_21  and  C14_22 
REMARK   12  A    between atoms: C16_25  and  C17_26 
REMARK       I    between atoms: C17_26  and  N3_28 
REMARK   13  A    between atoms: N3_28  and  C18_30 
REMARK   14  A    between atoms: C18_30  and  C19_31 
REMARK   15  A    between atoms: C26_41  and  O9_43 
REMARK   16  A    between atoms: O9_43  and  C28_44 
ROOT
HETATM    1  C7  UNL     1      -6.719  18.655  26.686  1.00  0.00     0.050 C 
ENDROOT
BRANCH   1   2
HETATM    2  C6  UNL     1      -6.801  18.044  25.369  1.00  0.00    -0.030 A 
HETATM    3  C5  UNL     1      -5.631  17.897  24.647  1.00  0.00    -0.011 A 
HETATM    4  C4  UNL     1      -5.743  17.290  23.414  1.00  0.00     0.111 A 
HETATM    5  C25 UNL     1      -4.316  18.361  25.046  1.00  0.00     0.083 C 
HETATM    6  C3  UNL     1      -6.940  16.836  22.880  1.00  0.00     0.114 A 
HETATM    7  O11 UNL     1      -4.544  17.158  22.725  1.00  0.00    -0.334 OA
HETATM    8  C24 UNL     1      -8.132  16.988  23.605  1.00  0.00     0.024 A 
HETATM    9  C20 UNL     1      -8.004  17.590  24.828  1.00  0.00     0.025 A 
HETATM   10  C22 UNL     1      -9.386  16.645  23.218  1.00  0.00    -0.041 A 
HETATM   11  S1  UNL     1      -9.611  17.661  25.399  1.00  0.00    -0.100 SA
HETATM   12  C21 UNL     1     -10.404  16.934  24.093  1.00  0.00     0.058 A 
HETATM   13  C23 UNL     1      -9.768  15.994  21.894  1.00  0.00     0.049 C 
HETATM   14  C30 UNL     1      -3.511  18.159  22.723  1.00  0.00     0.092 C 
HETATM   15  C26 UNL     1      -3.613  19.114  23.868  1.00  0.00     0.102 C 
HETATM   16  C31 UNL     1      -2.186  17.394  22.809  1.00  0.00     0.049 C 
HETATM   17  C32 UNL     1      -3.567  18.788  21.360  1.00  0.00     0.049 C 
HETATM   18  C27 UNL     1      -4.467  20.310  23.594  1.00  0.00     0.050 C 
BRANCH   6  19
HETATM   19  O1  UNL     1      -6.868  16.245  21.630  1.00  0.00    -0.348 OA
BRANCH  19  20
HETATM   20  C2  UNL     1      -6.839  17.142  20.520  1.00  0.00     0.171 C 
HETATM   21  C1  UNL     1      -7.216  16.494  19.228  1.00  0.00     0.034 C 
ENDBRANCH  19  20
ENDBRANCH   6  19
BRANCH  15  22
HETATM   22  O9  UNL     1      -2.360  19.418  24.422  1.00  0.00    -0.307 OA
BRANCH  22  23
HETATM   23  C28 UNL     1      -1.608  20.525  24.195  1.00  0.00     0.255 C 
HETATM   24  C29 UNL     1      -0.300  20.420  23.446  1.00  0.00     0.126 C 
HETATM   25  O10 UNL     1      -1.996  21.637  24.607  1.00  0.00    -0.266 OA
ENDBRANCH  22  23
ENDBRANCH  15  22
ENDBRANCH   1   2
BRANCH   1  26
HETATM   26  C8  UNL     1      -7.467  17.937  27.768  1.00  0.00     0.108 C 
BRANCH  26  27
HETATM   27  C9  UNL     1      -6.939  16.669  28.251  1.00  0.00     0.222 C 
HETATM   28  O2  UNL     1      -5.999  16.091  27.671  1.00  0.00    -0.273 OA
HETATM   29  N1  UNL     1      -7.461  16.001  29.413  1.00  0.00    -0.332 N 
HETATM   30  C10 UNL     1      -8.400  15.110  29.333  1.00  0.00     0.016 C 
ATOM     31  H1  UNL     1      -7.080  16.236  30.330  1.00  0.00     0.168 HD
BRANCH  30  32
HETATM   32  C11 UNL     1      -8.951  14.771  28.001  1.00  0.00     0.175 C 
BRANCH  32  33
HETATM   33  N2  UNL     1     -10.333  15.213  27.918  1.00  0.00    -0.354 N 
HETATM   34  C12 UNL     1     -11.281  14.379  27.264  1.00  0.00     0.242 C 
HETATM   35  O3  UNL     1     -10.890  13.282  26.781  1.00  0.00    -0.271 OA
ATOM     36  H2  UNL     1     -10.618  16.106  28.321  1.00  0.00     0.162 HD
BRANCH  34  37
HETATM   37  C13 UNL     1     -12.687  14.833  27.179  1.00  0.00     0.281 C 
BRANCH  37  38
HETATM   38  O4  UNL     1     -13.141  15.213  28.441  1.00  0.00    -0.312 OA
BRANCH  38  39
HETATM   39  C14 UNL     1     -13.462  14.360  29.446  1.00  0.00     0.255 C 
HETATM   40  C15 UNL     1     -14.861  14.258  30.006  1.00  0.00     0.126 C 
HETATM   41  O5  UNL     1     -12.567  13.613  29.948  1.00  0.00    -0.266 OA
ENDBRANCH  38  39
ENDBRANCH  37  38
ENDBRANCH  34  37
ENDBRANCH  32  33
ENDBRANCH  30  32
BRANCH  30  42
HETATM   42  C16 UNL     1      -8.920  14.423  30.532  1.00  0.00     0.157 C 
BRANCH  42  43
HETATM   43  C17 UNL     1      -9.984  15.169  31.214  1.00  0.00     0.223 C 
HETATM   44  O6  UNL     1     -10.309  16.300  30.842  1.00  0.00    -0.273 OA
HETATM   45  N3  UNL     1     -10.693  14.620  32.339  1.00  0.00    -0.351 N 
ATOM     46  H3  UNL     1     -10.450  13.687  32.675  1.00  0.00     0.163 HD
BRANCH  45  47
HETATM   47  C18 UNL     1     -11.739  15.360  33.004  1.00  0.00     0.235 C 
BRANCH  47  48
HETATM   48  C19 UNL     1     -11.211  15.941  34.259  1.00  0.00     0.191 C 
HETATM   49  O7  UNL     1     -10.212  16.704  34.293  1.00  0.00    -0.647 OA
HETATM   50  O8  UNL     1     -11.883  15.601  35.444  1.00  0.00    -0.647 OA
ENDBRANCH  47  48
ENDBRANCH  45  47
ENDBRANCH  42  43
ENDBRANCH  30  42
ENDBRANCH  26  27
ENDBRANCH   1  26
TORSDOF 16
ENDMDL
MODEL 2
REMARK VINA RESULT: -8.719717558      2.580     11.491
REMARK  16 active torsions:
REMARK  status: ('A' for Active; 'I' for Inactive)
REMARK    1  A    between atoms: C2_2  and  O1_3 
REMARK    2  A    between atoms: O1_3  and  C3_4 
REMARK    3  A    between atoms: C6_7  and  C7_8 
REMARK    4  A    between atoms: C7_8  and  C8_9 
REMARK    5  A    between atoms: C8_9  and  C9_10 
REMARK       I    between atoms: C9_10  and  N1_12 
REMARK    6  A    between atoms: C10_14  and  C11_15 
REMARK    7  A    between atoms: C10_14  and  C16_25 
REMARK    8  A    between atoms: C11_15  and  N2_16 
REMARK       I    between atoms: N2_16  and  C12_18 
REMARK    9  A    between atoms: C12_18  and  C13_20 
REMARK   10  A    between atoms: C13_20  and  O4_21 
REMARK   11  A    between atoms: O4_21  and  C14_22 
REMARK   12  A    between atoms: C16_25  and  C17_26 
REMARK       I    between atoms: C17_26  and  N3_28 
REMARK   13  A    between atoms: N3_28  and  C18_30 
REMARK   14  A    between atoms: C18_30  and  C19_31 
REMARK   15  A    between atoms: C26_41  and  O9_43 
REMARK   16  A    between atoms: O9_43  and  C28_44 
ROOT
HETATM    1  C7  UNL     1     -12.768  15.136  27.951  1.00  0.00     0.050 C 
ENDROOT
BRANCH   1   2
HETATM    2  C6  UNL     1     -12.206  14.919  29.275  1.00  0.00    -0.030 A 
HETATM    3  C5  UNL     1     -12.675  13.849  30.014  1.00  0.00    -0.011 A 
HETATM    4  C4  UNL     1     -12.101  13.660  31.253  1.00  0.00     0.111 A 
HETATM    5  C25 UNL     1     -13.740  12.944  29.626  1.00  0.00     0.083 C 
HETATM    6  C3  UNL     1     -11.105  14.470  31.777  1.00  0.00     0.114 A 
HETATM    7  O11 UNL     1     -12.598  12.572  31.959  1.00  0.00    -0.334 OA
HETATM    8  C24 UNL     1     -10.629  15.563  31.035  1.00  0.00     0.024 A 
HETATM    9  C20 UNL     1     -11.207  15.736  29.806  1.00  0.00     0.025 A 
HETATM   10  C22 UNL     1      -9.699  16.476  31.411  1.00  0.00    -0.041 A 
HETATM   11  S1  UNL     1     -10.451  17.147  29.215  1.00  0.00    -0.100 SA
HETATM   12  C21 UNL     1      -9.428  17.486  30.520  1.00  0.00     0.058 A 
HETATM   13  C23 UNL     1      -8.951  16.499  32.738  1.00  0.00     0.049 C 
HETATM   14  C30 UNL     1     -13.984  12.189  31.961  1.00  0.00     0.092 C 
HETATM   15  C26 UNL     1     -14.751  12.740  30.802  1.00  0.00     0.102 C 
HETATM   16  C31 UNL     1     -13.996  10.657  31.901  1.00  0.00     0.049 C 
HETATM   17  C32 UNL     1     -14.504  12.579  33.315  1.00  0.00     0.049 C 
HETATM   18  C27 UNL     1     -15.350  14.087  31.050  1.00  0.00     0.050 C 
BRANCH   6  19
HETATM   19  O1  UNL     1     -10.638  14.131  33.036  1.00  0.00    -0.348 OA
BRANCH  19  20
HETATM   20  C2  UNL     1     -11.427  14.587  34.135  1.00  0.00     0.171 C 
HETATM   21  C1  UNL     1     -10.687  14.585  35.432  1.00  0.00     0.034 C 
ENDBRANCH  19  20
ENDBRANCH   6  19
BRANCH  15  22
HETATM   22  O9  UNL     1     -15.645  11.805  30.261  1.00  0.00    -0.307 OA
BRANCH  22  23
HETATM   23  C28 UNL     1     -16.965  11.668  30.547  1.00  0.00     0.255 C 
HETATM   24  C29 UNL     1     -17.460  10.466  31.316  1.00  0.00     0.126 C 
HETATM   25  O10 UNL     1     -17.776  12.538  30.173  1.00  0.00    -0.266 OA
ENDBRANCH  22  23
ENDBRANCH  15  22
ENDBRANCH   1   2
BRANCH   1  26
HETATM   26  C8  UNL     1     -11.768  15.446  26.879  1.00  0.00     0.108 C 
BRANCH  26  27
HETATM   27  C9  UNL     1     -10.926  14.366  26.384  1.00  0.00     0.222 C 
HETATM   28  O2  UNL     1     -10.862  13.268  26.971  1.00  0.00    -0.273 OA
HETATM   29  N1  UNL     1     -10.117  14.490  25.202  1.00  0.00    -0.332 N 
HETATM   30  C10 UNL     1      -8.881  14.881  25.249  1.00  0.00     0.016 C 
ATOM     31  H1  UNL     1     -10.529  14.264  24.296  1.00  0.00     0.168 HD
BRANCH  30  32
HETATM   32  C11 UNL     1      -8.286  15.209  26.565  1.00  0.00     0.175 C 
BRANCH  32  33
HETATM   33  N2  UNL     1      -7.903  16.611  26.591  1.00  0.00    -0.354 N 
HETATM   34  C12 UNL     1      -6.842  17.015  27.448  1.00  0.00     0.242 C 
HETATM   35  O3  UNL     1      -6.270  16.142  28.155  1.00  0.00    -0.271 OA
ATOM     36  H2  UNL     1      -8.385  17.293  26.005  1.00  0.00     0.162 HD
BRANCH  34  37
HETATM   37  C13 UNL     1      -6.456  18.443  27.475  1.00  0.00     0.281 C 
BRANCH  37  38
HETATM   38  O4  UNL     1      -6.584  18.993  26.200  1.00  0.00    -0.312 OA
BRANCH  38  39
HETATM   39  C14 UNL     1      -5.679  18.866  25.198  1.00  0.00     0.255 C 
HETATM   40  C15 UNL     1      -4.815  20.014  24.735  1.00  0.00     0.126 C 
HETATM   41  O5  UNL     1      -5.540  17.747  24.615  1.00  0.00    -0.266 OA
ENDBRANCH  38  39
ENDBRANCH  37  38
ENDBRANCH  34  37
ENDBRANCH  32  33
ENDBRANCH  30  32
BRANCH  30  42
HETATM   42  C16 UNL     1      -8.056  14.995  24.029  1.00  0.00     0.157 C 
BRANCH  42  43
HETATM   43  C17 UNL     1      -8.538  16.018  23.095  1.00  0.00     0.223 C 
HETATM   44  O6  UNL     1      -8.573  17.210  23.416  1.00  0.00    -0.273 OA
HETATM   45  N3  UNL     1      -8.986  15.683  21.769  1.00  0.00    -0.351 N 
ATOM     46  H3  UNL     1      -8.971  14.708  21.469  1.00  0.00     0.163 HD
BRANCH  45  47
HETATM   47  C18 UNL     1      -9.457  16.697  20.856  1.00  0.00     0.235 C 
BRANCH  47  48
HETATM   48  C19 UNL     1      -8.394  17.007  19.872  1.00  0.00     0.191 C 
HETATM   49  O7  UNL     1      -7.995  18.177  19.642  1.00  0.00    -0.647 OA
HETATM   50  O8  UNL     1      -7.833  15.919  19.185  1.00  0.00    -0.647 OA
ENDBRANCH  47  48
ENDBRANCH  45  47
ENDBRANCH  42  43
ENDBRANCH  30  42
ENDBRANCH  26  27
ENDBRANCH   1  26
TORSDOF 16
ENDMDL
MODEL 3
REMARK VINA RESULT: -8.562232002      2.126      4.302
REMARK  16 active torsions:
REMARK  status: ('A' for Active; 'I' for Inactive)
REMARK    1  A    between atoms: C2_2  and  O1_3 
REMARK    2  A    between atoms: O1_3  and  C3_4 
REMARK    3  A    between atoms: C6_7  and  C7_8 
REMARK    4  A    between atoms: C7_8  and  C8_9 
REMARK    5  A    between atoms: C8_9  and  C9_10 
REMARK       I    between atoms: C9_10  and  N1_12 
REMARK    6  A    between atoms: C10_14  and  C11_15 
REMARK    7  A    between atoms: C10_14  and  C16_25 
REMARK    8  A    between atoms: C11_15  and  N2_16 
REMARK       I    between atoms: N2_16  and  C12_18 
REMARK    9  A    between atoms: C12_18  and  C13_20 
REMARK   10  A    between atoms: C13_20  and  O4_21 
REMARK   11  A    between atoms: O4_21  and  C14_22 
REMARK   12  A    between atoms: C16_25  and  C17_26 
REMARK       I    between atoms: C17_26  and  N3_28 
REMARK   13  A    between atoms: N3_28  and  C18_30 
REMARK   14  A    between atoms: C18_30  and  C19_31 
REMARK   15  A    between atoms: C26_41  and  O9_43 
REMARK   16  A    between atoms: O9_43  and  C28_44 
ROOT
HETATM    1  C7  UNL     1      -9.523  14.669  24.464  1.00  0.00     0.050 C 
ENDROOT
BRANCH   1   2
HETATM    2  C6  UNL     1      -8.585  15.564  23.805  1.00  0.00    -0.030 A 
HETATM    3  C5  UNL     1      -7.504  16.025  24.534  1.00  0.00    -0.011 A 
HETATM    4  C4  UNL     1      -6.623  16.851  23.869  1.00  0.00     0.111 A 
HETATM    5  C25 UNL     1      -7.241  15.757  25.935  1.00  0.00     0.083 C 
HETATM    6  C3  UNL     1      -6.768  17.231  22.543  1.00  0.00     0.114 A 
HETATM    7  O11 UNL     1      -5.550  17.286  24.635  1.00  0.00    -0.334 OA
HETATM    8  C24 UNL     1      -7.867  16.773  21.800  1.00  0.00     0.024 A 
HETATM    9  C20 UNL     1      -8.731  15.952  22.473  1.00  0.00     0.025 A 
HETATM   10  C22 UNL     1      -8.185  17.079  20.517  1.00  0.00    -0.041 A 
HETATM   11  S1  UNL     1      -9.947  15.633  21.318  1.00  0.00    -0.100 SA
HETATM   12  C21 UNL     1      -9.343  16.534  20.019  1.00  0.00     0.058 A 
HETATM   13  C23 UNL     1      -7.390  17.992  19.591  1.00  0.00     0.049 C 
HETATM   14  C30 UNL     1      -5.655  17.644  26.024  1.00  0.00     0.092 C 
HETATM   15  C26 UNL     1      -6.866  17.075  26.690  1.00  0.00     0.102 C 
HETATM   16  C31 UNL     1      -4.393  17.093  26.697  1.00  0.00     0.049 C 
HETATM   17  C32 UNL     1      -5.553  19.143  26.060  1.00  0.00     0.049 C 
HETATM   18  C27 UNL     1      -8.080  17.943  26.601  1.00  0.00     0.050 C 
BRANCH   6  19
HETATM   19  O1  UNL     1      -5.785  18.062  22.033  1.00  0.00    -0.348 OA
BRANCH  19  20
HETATM   20  C2  UNL     1      -5.960  19.457  22.282  1.00  0.00     0.171 C 
HETATM   21  C1  UNL     1      -4.689  20.157  22.637  1.00  0.00     0.034 C 
ENDBRANCH  19  20
ENDBRANCH   6  19
BRANCH  15  22
HETATM   22  O9  UNL     1      -6.592  16.603  27.983  1.00  0.00    -0.307 OA
BRANCH  22  23
HETATM   23  C28 UNL     1      -7.482  16.123  28.889  1.00  0.00     0.255 C 
HETATM   24  C29 UNL     1      -8.203  17.063  29.825  1.00  0.00     0.126 C 
HETATM   25  O10 UNL     1      -7.707  14.897  28.950  1.00  0.00    -0.266 OA
ENDBRANCH  22  23
ENDBRANCH  15  22
ENDBRANCH   1   2
BRANCH   1  26
HETATM   26  C8  UNL     1     -10.350  15.296  25.544  1.00  0.00     0.108 C 
BRANCH  26  27
HETATM   27  C9  UNL     1     -10.546  14.558  26.784  1.00  0.00     0.222 C 
HETATM   28  O2  UNL     1     -10.773  13.332  26.783  1.00  0.00    -0.273 OA
HETATM   29  N1  UNL     1     -10.496  15.183  28.078  1.00  0.00    -0.332 N 
HETATM   30  C10 UNL     1     -11.558  15.643  28.664  1.00  0.00     0.016 C 
ATOM     31  H1  UNL     1      -9.595  15.268  28.551  1.00  0.00     0.168 HD
BRANCH  30  32
HETATM   32  C11 UNL     1     -12.863  15.517  27.976  1.00  0.00     0.175 C 
BRANCH  32  33
HETATM   33  N2  UNL     1     -13.892  15.169  28.942  1.00  0.00    -0.354 N 
HETATM   34  C12 UNL     1     -13.897  13.858  29.494  1.00  0.00     0.242 C 
HETATM   35  O3  UNL     1     -13.008  13.044  29.127  1.00  0.00    -0.271 OA
ATOM     36  H2  UNL     1     -14.598  15.852  29.220  1.00  0.00     0.162 HD
BRANCH  34  37
HETATM   37  C13 UNL     1     -14.947  13.505  30.476  1.00  0.00     0.281 C 
BRANCH  37  38
HETATM   38  O4  UNL     1     -15.026  14.488  31.461  1.00  0.00    -0.312 OA
BRANCH  38  39
HETATM   39  C14 UNL     1     -14.154  14.637  32.489  1.00  0.00     0.255 C 
HETATM   40  C15 UNL     1     -13.598  13.462  33.257  1.00  0.00     0.126 C 
HETATM   41  O5  UNL     1     -13.781  15.800  32.835  1.00  0.00    -0.266 OA
ENDBRANCH  38  39
ENDBRANCH  37  38
ENDBRANCH  34  37
ENDBRANCH  32  33
ENDBRANCH  30  32
BRANCH  30  42
HETATM   42  C16 UNL     1     -11.496  16.273  29.998  1.00  0.00     0.157 C 
BRANCH  42  43
HETATM   43  C17 UNL     1     -10.894  15.411  31.022  1.00  0.00     0.223 C 
HETATM   44  O6  UNL     1     -10.522  14.265  30.753  1.00  0.00    -0.273 OA
HETATM   45  N3  UNL     1     -10.711  15.859  32.377  1.00  0.00    -0.351 N 
ATOM     46  H3  UNL     1     -11.007  16.800  32.635  1.00  0.00     0.163 HD
BRANCH  45  47
HETATM   47  C18 UNL     1     -10.116  15.005  33.377  1.00  0.00     0.235 C 
BRANCH  47  48
HETATM   48  C19 UNL     1     -10.428  15.533  34.725  1.00  0.00     0.191 C 
HETATM   49  O7  UNL     1     -11.406  16.290  34.954  1.00  0.00    -0.647 OA
HETATM   50  O8  UNL     1      -9.570  15.149  35.767  1.00  0.00    -0.647 OA
ENDBRANCH  47  48
ENDBRANCH  45  47
ENDBRANCH  42  43
ENDBRANCH  30  42
ENDBRANCH  26  27
ENDBRANCH   1  26
TORSDOF 16
ENDMDL
MODEL 4
REMARK VINA RESULT: -8.516729024      4.723     12.466
REMARK  16 active torsions:
REMARK  status: ('A' for Active; 'I' for Inactive)
REMARK    1  A    between atoms: C2_2  and  O1_3 
REMARK    2  A    between atoms: O1_3  and  C3_4 
REMARK    3  A    between atoms: C6_7  and  C7_8 
REMARK    4  A    between atoms: C7_8  and  C8_9 
REMARK    5  A    between atoms: C8_9  and  C9_10 
REMARK       I    between atoms: C9_10  and  N1_12 
REMARK    6  A    between atoms: C10_14  and  C11_15 
REMARK    7  A    between atoms: C10_14  and  C16_25 
REMARK    8  A    between atoms: C11_15  and  N2_16 
REMARK       I    between atoms: N2_16  and  C12_18 
REMARK    9  A    between atoms: C12_18  and  C13_20 
REMARK   10  A    between atoms: C13_20  and  O4_21 
REMARK   11  A    between atoms: O4_21  and  C14_22 
REMARK   12  A    between atoms: C16_25  and  C17_26 
REMARK       I    between atoms: C17_26  and  N3_28 
REMARK   13  A    between atoms: N3_28  and  C18_30 
REMARK   14  A    between atoms: C18_30  and  C19_31 
REMARK   15  A    between atoms: C26_41  and  O9_43 
REMARK   16  A    between atoms: O9_43  and  C28_44 
ROOT
HETATM    1  C7  UNL     1     -12.151  13.683  35.523  1.00  0.00     0.050 C 
ENDROOT
BRANCH   1   2
HETATM    2  C6  UNL     1     -12.199  12.239  35.689  1.00  0.00    -0.030 A 
HETATM    3  C5  UNL     1     -12.442  11.463  34.571  1.00  0.00    -0.011 A 
HETATM    4  C4  UNL     1     -12.456  10.098  34.762  1.00  0.00     0.111 A 
HETATM    5  C25 UNL     1     -12.727  11.954  33.236  1.00  0.00     0.083 C 
HETATM    6  C3  UNL     1     -12.245   9.485  35.988  1.00  0.00     0.114 A 
HETATM    7  O11 UNL     1     -12.698   9.357  33.612  1.00  0.00    -0.334 OA
HETATM    8  C24 UNL     1     -12.005  10.267  37.128  1.00  0.00     0.024 A 
HETATM    9  C20 UNL     1     -11.992  11.620  36.922  1.00  0.00     0.025 A 
HETATM   10  C22 UNL     1     -11.824   9.838  38.403  1.00  0.00    -0.041 A 
HETATM   11  S1  UNL     1     -11.733  12.251  38.487  1.00  0.00    -0.100 SA
HETATM   12  C21 UNL     1     -11.645  10.805  39.361  1.00  0.00     0.058 A 
HETATM   13  C23 UNL     1     -11.829   8.387  38.869  1.00  0.00     0.049 C 
HETATM   14  C30 UNL     1     -13.631   9.752  32.592  1.00  0.00     0.092 C 
HETATM   15  C26 UNL     1     -13.960  11.209  32.623  1.00  0.00     0.102 C 
HETATM   16  C31 UNL     1     -12.964   9.405  31.256  1.00  0.00     0.049 C 
HETATM   17  C32 UNL     1     -14.807   8.829  32.747  1.00  0.00     0.049 C 
HETATM   18  C27 UNL     1     -15.115  11.558  33.506  1.00  0.00     0.050 C 
BRANCH   6  19
HETATM   19  O1  UNL     1     -12.288   8.101  35.996  1.00  0.00    -0.348 OA
BRANCH  19  20
HETATM   20  C2  UNL     1     -13.591   7.520  36.026  1.00  0.00     0.171 C 
HETATM   21  C1  UNL     1     -13.689   6.251  35.246  1.00  0.00     0.034 C 
ENDBRANCH  19  20
ENDBRANCH   6  19
BRANCH  15  22
HETATM   22  O9  UNL     1     -14.030  11.769  31.338  1.00  0.00    -0.307 OA
BRANCH  22  23
HETATM   23  C28 UNL     1     -15.148  12.128  30.658  1.00  0.00     0.255 C 
HETATM   24  C29 UNL     1     -15.496  13.586  30.474  1.00  0.00     0.126 C 
HETATM   25  O10 UNL     1     -15.894  11.250  30.180  1.00  0.00    -0.266 OA
ENDBRANCH  22  23
ENDBRANCH  15  22
ENDBRANCH   1   2
BRANCH   1  26
HETATM   26  C8  UNL     1     -10.774  14.263  35.409  1.00  0.00     0.108 C 
BRANCH  26  27
HETATM   27  C9  UNL     1     -10.555  15.346  34.458  1.00  0.00     0.222 C 
HETATM   28  O2  UNL     1     -11.209  16.405  34.516  1.00  0.00    -0.273 OA
HETATM   29  N1  UNL     1      -9.585  15.266  33.400  1.00  0.00    -0.332 N 
HETATM   30  C10 UNL     1      -9.891  14.838  32.214  1.00  0.00     0.016 C 
ATOM     31  H1  UNL     1      -8.625  15.556  33.587  1.00  0.00     0.168 HD
BRANCH  30  32
HETATM   32  C11 UNL     1     -11.285  14.417  31.945  1.00  0.00     0.175 C 
BRANCH  32  33
HETATM   33  N2  UNL     1     -11.316  13.548  30.780  1.00  0.00    -0.354 N 
HETATM   34  C12 UNL     1     -11.911  14.030  29.582  1.00  0.00     0.242 C 
HETATM   35  O3  UNL     1     -12.390  15.196  29.571  1.00  0.00    -0.271 OA
ATOM     36  H2  UNL     1     -10.918  12.609  30.821  1.00  0.00     0.162 HD
BRANCH  34  37
HETATM   37  C13 UNL     1     -11.943  13.143  28.398  1.00  0.00     0.281 C 
BRANCH  37  38
HETATM   38  O4  UNL     1     -11.715  13.887  27.241  1.00  0.00    -0.312 OA
BRANCH  38  39
HETATM   39  C14 UNL     1     -10.504  14.335  26.825  1.00  0.00     0.255 C 
HETATM   40  C15 UNL     1     -10.355  15.464  25.834  1.00  0.00     0.126 C 
HETATM   41  O5  UNL     1      -9.446  13.796  27.273  1.00  0.00    -0.266 OA
ENDBRANCH  38  39
ENDBRANCH  37  38
ENDBRANCH  34  37
ENDBRANCH  32  33
ENDBRANCH  30  32
BRANCH  30  42
HETATM   42  C16 UNL     1      -8.889  14.771  31.132  1.00  0.00     0.157 C 
BRANCH  42  43
HETATM   43  C17 UNL     1      -8.826  15.993  30.322  1.00  0.00     0.223 C 
HETATM   44  O6  UNL     1      -9.340  17.044  30.712  1.00  0.00    -0.273 OA
HETATM   45  N3  UNL     1      -8.164  16.021  29.045  1.00  0.00    -0.351 N 
ATOM     46  H3  UNL     1      -7.727  15.170  28.690  1.00  0.00     0.163 HD
BRANCH  45  47
HETATM   47  C18 UNL     1      -8.104  17.228  28.255  1.00  0.00     0.235 C 
BRANCH  47  48
HETATM   48  C19 UNL     1      -6.731  17.408  27.730  1.00  0.00     0.191 C 
HETATM   49  O7  UNL     1      -6.328  18.486  27.225  1.00  0.00    -0.647 OA
HETATM   50  O8  UNL     1      -5.873  16.301  27.816  1.00  0.00    -0.647 OA
ENDBRANCH  47  48
ENDBRANCH  45  47
ENDBRANCH  42  43
ENDBRANCH  30  42
ENDBRANCH  26  27
ENDBRANCH   1  26
TORSDOF 16
ENDMDL
MODEL 5
REMARK VINA RESULT: -8.448699411      2.534     10.428
REMARK  16 active torsions:
REMARK  status: ('A' for Active; 'I' for Inactive)
REMARK    1  A    between atoms: C2_2  and  O1_3 
REMARK    2  A    between atoms: O1_3  and  C3_4 
REMARK    3  A    between atoms: C6_7  and  C7_8 
REMARK    4  A    between atoms: C7_8  and  C8_9 
REMARK    5  A    between atoms: C8_9  and  C9_10 
REMARK       I    between atoms: C9_10  and  N1_12 
REMARK    6  A    between atoms: C10_14  and  C11_15 
REMARK    7  A    between atoms: C10_14  and  C16_25 
REMARK    8  A    between atoms: C11_15  and  N2_16 
REMARK       I    between atoms: N2_16  and  C12_18 
REMARK    9  A    between atoms: C12_18  and  C13_20 
REMARK   10  A    between atoms: C13_20  and  O4_21 
REMARK   11  A    between atoms: O4_21  and  C14_22 
REMARK   12  A    between atoms: C16_25  and  C17_26 
REMARK       I    between atoms: C17_26  and  N3_28 
REMARK   13  A    between atoms: N3_28  and  C18_30 
REMARK   14  A    between atoms: C18_30  and  C19_31 
REMARK   15  A    between atoms: C26_41  and  O9_43 
REMARK   16  A    between atoms: O9_43  and  C28_44 
ROOT
HETATM    1  C7  UNL     1      -8.107  15.545  30.423  1.00  0.00     0.050 C 
ENDROOT
BRANCH   1   2
HETATM    2  C6  UNL     1      -9.334  15.170  31.108  1.00  0.00    -0.030 A 
HETATM    3  C5  UNL     1     -10.284  14.459  30.398  1.00  0.00    -0.011 A 
HETATM    4  C4  UNL     1     -11.422  14.099  31.087  1.00  0.00     0.111 A 
HETATM    5  C25 UNL     1     -10.211  14.101  28.995  1.00  0.00     0.083 C 
HETATM    6  C3  UNL     1     -11.653  14.409  32.419  1.00  0.00     0.114 A 
HETATM    7  O11 UNL     1     -12.347  13.382  30.339  1.00  0.00    -0.334 OA
HETATM    8  C24 UNL     1     -10.696  15.137  33.143  1.00  0.00     0.024 A 
HETATM    9  C20 UNL     1      -9.570  15.485  32.446  1.00  0.00     0.025 A 
HETATM   10  C22 UNL     1     -10.778  15.561  34.429  1.00  0.00    -0.041 A 
HETATM   11  S1  UNL     1      -8.668  16.382  33.585  1.00  0.00    -0.100 SA
HETATM   12  C21 UNL     1      -9.722  16.298  34.906  1.00  0.00     0.058 A 
HETATM   13  C23 UNL     1     -11.944  15.318  35.380  1.00  0.00     0.049 C 
HETATM   14  C30 UNL     1     -12.637  13.654  28.956  1.00  0.00     0.092 C 
HETATM   15  C26 UNL     1     -11.558  14.428  28.269  1.00  0.00     0.102 C 
HETATM   16  C31 UNL     1     -12.795  12.286  28.284  1.00  0.00     0.049 C 
HETATM   17  C32 UNL     1     -13.991  14.304  28.952  1.00  0.00     0.049 C 
HETATM   18  C27 UNL     1     -11.713  15.912  28.365  1.00  0.00     0.050 C 
BRANCH   6  19
HETATM   19  O1  UNL     1     -12.849  13.963  32.954  1.00  0.00    -0.348 OA
BRANCH  19  20
HETATM   20  C2  UNL     1     -12.853  12.618  33.432  1.00  0.00     0.171 C 
HETATM   21  C1  UNL     1     -14.026  12.304  34.302  1.00  0.00     0.034 C 
ENDBRANCH  19  20
ENDBRANCH   6  19
BRANCH  15  22
HETATM   22  O9  UNL     1     -11.311  13.960  26.969  1.00  0.00    -0.307 OA
BRANCH  22  23
HETATM   23  C28 UNL     1     -10.456  14.484  26.056  1.00  0.00     0.255 C 
HETATM   24  C29 UNL     1     -10.906  15.591  25.132  1.00  0.00     0.126 C 
HETATM   25  O10 UNL     1      -9.289  14.051  25.976  1.00  0.00    -0.266 OA
ENDBRANCH  22  23
ENDBRANCH  15  22
ENDBRANCH   1   2
BRANCH   1  26
HETATM   26  C8  UNL     1      -8.277  16.534  29.310  1.00  0.00     0.108 C 
BRANCH  26  27
HETATM   27  C9  UNL     1      -7.526  16.327  28.079  1.00  0.00     0.222 C 
HETATM   28  O2  UNL     1      -6.355  15.899  28.095  1.00  0.00    -0.273 OA
HETATM   29  N1  UNL     1      -8.074  16.601  26.778  1.00  0.00    -0.332 N 
HETATM   30  C10 UNL     1      -7.923  17.749  26.194  1.00  0.00     0.016 C 
ATOM     31  H1  UNL     1      -8.600  15.869  26.300  1.00  0.00     0.168 HD
BRANCH  30  32
HETATM   32  C11 UNL     1      -7.159  18.809  26.891  1.00  0.00     0.175 C 
BRANCH  32  33
HETATM   33  N2  UNL     1      -6.440  19.613  25.916  1.00  0.00    -0.354 N 
HETATM   34  C12 UNL     1      -5.251  19.088  25.340  1.00  0.00     0.242 C 
HETATM   35  O3  UNL     1      -4.862  17.942  25.694  1.00  0.00    -0.271 OA
ATOM     36  H2  UNL     1      -6.782  20.536  25.650  1.00  0.00     0.162 HD
BRANCH  34  37
HETATM   37  C13 UNL     1      -4.519  19.909  24.350  1.00  0.00     0.281 C 
BRANCH  37  38
HETATM   38  O4  UNL     1      -5.384  20.308  23.332  1.00  0.00    -0.312 OA
BRANCH  38  39
HETATM   39  C14 UNL     1      -5.670  19.586  22.220  1.00  0.00     0.255 C 
HETATM   40  C15 UNL     1      -4.614  18.827  21.452  1.00  0.00     0.126 C 
HETATM   41  O5  UNL     1      -6.864  19.536  21.792  1.00  0.00    -0.266 OA
ENDBRANCH  38  39
ENDBRANCH  37  38
ENDBRANCH  34  37
ENDBRANCH  32  33
ENDBRANCH  30  32
BRANCH  30  42
HETATM   42  C16 UNL     1      -8.481  18.016  24.853  1.00  0.00     0.157 C 
BRANCH  42  43
HETATM   43  C17 UNL     1      -8.011  17.074  23.830  1.00  0.00     0.223 C 
HETATM   44  O6  UNL     1      -7.117  16.260  24.074  1.00  0.00    -0.273 OA
HETATM   45  N3  UNL     1      -8.570  17.057  22.504  1.00  0.00    -0.351 N 
ATOM     46  H3  UNL     1      -9.311  17.717  22.266  1.00  0.00     0.163 HD
BRANCH  45  47
HETATM   47  C18 UNL     1      -8.103  16.127  21.503  1.00  0.00     0.235 C 
BRANCH  47  48
HETATM   48  C19 UNL     1      -8.337  16.693  20.155  1.00  0.00     0.191 C 
HETATM   49  O7  UNL     1      -8.921  17.791  19.967  1.00  0.00    -0.647 OA
HETATM   50  O8  UNL     1      -7.874  15.940  19.065  1.00  0.00    -0.647 OA
ENDBRANCH  47  48
ENDBRANCH  45  47
ENDBRANCH  42  43
ENDBRANCH  30  42
ENDBRANCH  26  27
ENDBRANCH   1  26
TORSDOF 16
ENDMDL
