MODEL 1
REMARK VINA RESULT: -8.779933476      0.000      0.000
REMARK  9 active torsions:
REMARK  status: ('A' for Active; 'I' for Inactive)
REMARK    1  A    between atoms: C2_2  and  C3_3 
REMARK    2  A    between atoms: C3_3  and  C4_4 
REMARK    3  A    between atoms: C6_8  and  N2_9 
REMARK    4  A    between atoms: N3_12  and  C9_13 
REMARK    5  A    between atoms: C9_13  and  C10_14 
REMARK    6  A    between atoms: C12_18  and  N5_19 
REMARK    7  A    between atoms: C13_24  and  N7_25 
REMARK    8  A    between atoms: C15_29  and  O1_30 
REMARK    9  A    between atoms: O1_30  and  C16_31 
ROOT
HETATM    1  N2  UNL     1       9.899  22.521  13.492  1.00  0.00    -0.338 N 
HETATM    2  C7  UNL     1       9.071  23.120  12.483  1.00  0.00     0.156 C 
HETATM    3  C8  UNL     1       9.243  22.199  11.286  1.00  0.00     0.294 C 
HETATM    4  N3  UNL     1       9.481  20.921  11.862  1.00  0.00     0.111 N 
HETATM    5  C14 UNL     1       9.937  21.098  13.199  1.00  0.00     0.399 C 
ENDROOT
BRANCH   1   6
HETATM    6  C6  UNL     1      10.597  23.077  14.599  1.00  0.00     0.138 A 
HETATM    7  N1  UNL     1       9.980  23.469  15.728  1.00  0.00    -0.350 N 
HETATM    8  C5  UNL     1      10.587  23.996  16.798  1.00  0.00     0.097 A 
ATOM      9  H1  UNL     1       8.967  23.355  15.773  1.00  0.00     0.166 HD
HETATM   10  C4  UNL     1      11.936  24.175  16.803  1.00  0.00    -0.040 A 
HETATM   11  C21 UNL     1      12.640  23.792  15.663  1.00  0.00     0.049 A 
HETATM   12  C15 UNL     1      11.979  23.252  14.581  1.00  0.00     0.113 A 
BRANCH  10  13
HETATM   13  C3  UNL     1      12.615  24.758  17.984  1.00  0.00     0.040 C 
BRANCH  13  14
HETATM   14  C2  UNL     1      12.059  26.136  18.310  1.00  0.00     0.000 C 
HETATM   15  C1  UNL     1      12.538  27.190  17.353  1.00  0.00     0.005 C 
ENDBRANCH  13  14
ENDBRANCH  10  13
BRANCH  12  16
HETATM   16  O1  UNL     1      12.690  22.886  13.481  1.00  0.00    -0.342 OA
BRANCH  16  17
HETATM   17  C16 UNL     1      13.595  23.617  12.732  1.00  0.00     0.129 C 
HETATM   18  C17 UNL     1      14.969  23.722  13.360  1.00  0.00     0.032 C 
HETATM   19  C18 UNL     1      15.776  24.219  12.152  1.00  0.00     0.002 C 
HETATM   20  C19 UNL     1      15.166  23.478  10.982  1.00  0.00     0.002 C 
HETATM   21  C20 UNL     1      13.932  22.778  11.490  1.00  0.00     0.032 C 
ENDBRANCH  16  17
ENDBRANCH  12  16
ENDBRANCH   1   6
BRANCH   4  22
HETATM   22  C9  UNL     1       8.414  20.006  11.703  1.00  0.00     0.318 C 
BRANCH  22  23
HETATM   23  C10 UNL     1       8.756  18.585  11.615  1.00  0.00     0.030 A 
HETATM   24  C11 UNL     1       9.706  17.964  12.386  1.00  0.00     0.118 A 
HETATM   25  N4  UNL     1       9.972  16.632  12.273  1.00  0.00    -0.201 N 
HETATM   26  C12 UNL     1       9.286  15.895  11.382  1.00  0.00     0.677 A 
ATOM     27  H4  UNL     1      10.684  16.198  12.860  1.00  0.00     0.183 HD
HETATM   28  N6  UNL     1       8.340  16.457  10.599  1.00  0.00    -0.177 N 
HETATM   29  C13 UNL     1       8.073  17.765  10.702  1.00  0.00     0.124 A 
ATOM     30  H6  UNL     1       7.828  15.884   9.929  1.00  0.00     0.185 HD
BRANCH  26  31
HETATM   31  N5  UNL     1       9.494  14.618  11.228  1.00  0.00    -0.234 N 
ATOM     32  H52 UNL     1      10.467  14.309  11.209  1.00  0.00     0.174 HD
ATOM     33  H51 UNL     1       8.731  13.948  11.129  1.00  0.00     0.174 HD
ENDBRANCH  26  31
BRANCH  29  34
HETATM   34  N7  UNL     1       7.181  18.332   9.972  1.00  0.00    -0.385 N 
ATOM     35  H72 UNL     1       6.756  19.220  10.237  1.00  0.00     0.157 HD
ATOM     36  H71 UNL     1       6.919  17.851   9.112  1.00  0.00     0.157 HD
ENDBRANCH  29  34
ENDBRANCH  22  23
ENDBRANCH   4  22
TORSDOF 9
ENDMDL
MODEL 2
REMARK VINA RESULT: -8.597024355      0.901      1.210
REMARK  9 active torsions:
REMARK  status: ('A' for Active; 'I' for Inactive)
REMARK    1  A    between atoms: C2_2  and  C3_3 
REMARK    2  A    between atoms: C3_3  and  C4_4 
REMARK    3  A    between atoms: C6_8  and  N2_9 
REMARK    4  A    between atoms: N3_12  and  C9_13 
REMARK    5  A    between atoms: C9_13  and  C10_14 
REMARK    6  A    between atoms: C12_18  and  N5_19 
REMARK    7  A    between atoms: C13_24  and  N7_25 
REMARK    8  A    between atoms: C15_29  and  O1_30 
REMARK    9  A    between atoms: O1_30  and  C16_31 
ROOT
HETATM    1  N2  UNL     1      10.062  22.021  13.322  1.00  0.00    -0.338 N 
HETATM    2  C7  UNL     1       8.956  22.545  12.570  1.00  0.00     0.156 C 
HETATM    3  C8  UNL     1       8.925  21.672  11.325  1.00  0.00     0.294 C 
HETATM    4  N3  UNL     1       9.425  20.417  11.768  1.00  0.00     0.111 N 
HETATM    5  C14 UNL     1      10.173  20.617  12.963  1.00  0.00     0.399 C 
ENDROOT
BRANCH   1   6
HETATM    6  C6  UNL     1      10.948  22.629  14.253  1.00  0.00     0.138 A 
HETATM    7  N1  UNL     1      10.615  22.856  15.536  1.00  0.00    -0.350 N 
HETATM    8  C5  UNL     1      11.408  23.422  16.452  1.00  0.00     0.097 A 
ATOM      9  H1  UNL     1       9.681  22.574  15.834  1.00  0.00     0.166 HD
HETATM   10  C4  UNL     1      12.666  23.822  16.119  1.00  0.00    -0.040 A 
HETATM   11  C21 UNL     1      13.077  23.618  14.803  1.00  0.00     0.049 A 
HETATM   12  C15 UNL     1      12.231  23.031  13.888  1.00  0.00     0.113 A 
BRANCH  10  13
HETATM   13  C3  UNL     1      13.550  24.450  17.129  1.00  0.00     0.040 C 
BRANCH  13  14
HETATM   14  C2  UNL     1      14.089  25.782  16.632  1.00  0.00     0.000 C 
HETATM   15  C1  UNL     1      13.098  26.899  16.794  1.00  0.00     0.005 C 
ENDBRANCH  13  14
ENDBRANCH  10  13
BRANCH  12  16
HETATM   16  O1  UNL     1      12.659  22.844  12.610  1.00  0.00    -0.342 OA
BRANCH  16  17
HETATM   17  C16 UNL     1      13.945  22.715  12.121  1.00  0.00     0.129 C 
HETATM   18  C17 UNL     1      14.018  22.556  10.617  1.00  0.00     0.032 C 
HETATM   19  C18 UNL     1      15.512  22.831  10.392  1.00  0.00     0.002 C 
HETATM   20  C19 UNL     1      15.831  23.924  11.389  1.00  0.00     0.002 C 
HETATM   21  C20 UNL     1      14.624  24.085  12.277  1.00  0.00     0.032 C 
ENDBRANCH  16  17
ENDBRANCH  12  16
ENDBRANCH   1   6
BRANCH   4  22
HETATM   22  C9  UNL     1       8.451  19.393  11.829  1.00  0.00     0.318 C 
BRANCH  22  23
HETATM   23  C10 UNL     1       8.860  18.052  11.409  1.00  0.00     0.030 A 
HETATM   24  C11 UNL     1       9.772  17.272  12.076  1.00  0.00     0.118 A 
HETATM   25  N4  UNL     1      10.103  16.021  11.648  1.00  0.00    -0.201 N 
HETATM   26  C12 UNL     1       9.525  15.526  10.540  1.00  0.00     0.677 A 
ATOM     27  H4  UNL     1      10.785  15.464  12.164  1.00  0.00     0.183 HD
HETATM   28  N6  UNL     1       8.621  16.252   9.847  1.00  0.00    -0.177 N 
HETATM   29  C13 UNL     1       8.289  17.483  10.259  1.00  0.00     0.124 A 
ATOM     30  H6  UNL     1       8.189  15.862   9.009  1.00  0.00     0.185 HD
BRANCH  26  31
HETATM   31  N5  UNL     1       9.800  14.338  10.082  1.00  0.00    -0.234 N 
ATOM     32  H52 UNL     1      10.206  14.288   9.147  1.00  0.00     0.174 HD
ATOM     33  H51 UNL     1       9.622  13.490  10.621  1.00  0.00     0.174 HD
ENDBRANCH  26  31
BRANCH  29  34
HETATM   34  N7  UNL     1       7.435  18.200   9.623  1.00  0.00    -0.385 N 
ATOM     35  H72 UNL     1       6.625  17.786   9.161  1.00  0.00     0.157 HD
ATOM     36  H71 UNL     1       7.604  19.206   9.603  1.00  0.00     0.157 HD
ENDBRANCH  29  34
ENDBRANCH  22  23
ENDBRANCH   4  22
TORSDOF 9
ENDMDL
MODEL 3
REMARK VINA RESULT: -8.367558127      1.213      1.891
REMARK  9 active torsions:
REMARK  status: ('A' for Active; 'I' for Inactive)
REMARK    1  A    between atoms: C2_2  and  C3_3 
REMARK    2  A    between atoms: C3_3  and  C4_4 
REMARK    3  A    between atoms: C6_8  and  N2_9 
REMARK    4  A    between atoms: N3_12  and  C9_13 
REMARK    5  A    between atoms: C9_13  and  C10_14 
REMARK    6  A    between atoms: C12_18  and  N5_19 
REMARK    7  A    between atoms: C13_24  and  N7_25 
REMARK    8  A    between atoms: C15_29  and  O1_30 
REMARK    9  A    between atoms: O1_30  and  C16_31 
ROOT
HETATM    1  N2  UNL     1      10.537  22.658  13.517  1.00  0.00    -0.338 N 
HETATM    2  C7  UNL     1       9.253  22.686  12.874  1.00  0.00     0.156 C 
HETATM    3  C8  UNL     1       9.353  21.588  11.827  1.00  0.00     0.294 C 
HETATM    4  N3  UNL     1      10.248  20.644  12.398  1.00  0.00     0.111 N 
HETATM    5  C14 UNL     1      11.024  21.294  13.400  1.00  0.00     0.399 C 
ENDROOT
BRANCH   1   6
HETATM    6  C6  UNL     1      11.293  23.672  14.168  1.00  0.00     0.138 A 
HETATM    7  N1  UNL     1      10.815  24.388  15.201  1.00  0.00    -0.350 N 
HETATM    8  C5  UNL     1      11.483  25.349  15.849  1.00  0.00     0.097 A 
ATOM      9  H1  UNL     1       9.867  24.182  15.515  1.00  0.00     0.166 HD
HETATM   10  C4  UNL     1      12.752  25.673  15.479  1.00  0.00    -0.040 A 
HETATM   11  C21 UNL     1      13.310  24.970  14.413  1.00  0.00     0.049 A 
HETATM   12  C15 UNL     1      12.591  23.986  13.771  1.00  0.00     0.113 A 
BRANCH  10  13
HETATM   13  C3  UNL     1      13.497  26.736  16.193  1.00  0.00     0.040 C 
BRANCH  13  14
HETATM   14  C2  UNL     1      12.637  27.378  17.271  1.00  0.00     0.000 C 
HETATM   15  C1  UNL     1      13.438  28.232  18.212  1.00  0.00     0.005 C 
ENDBRANCH  13  14
ENDBRANCH  10  13
BRANCH  12  16
HETATM   16  O1  UNL     1      13.160  23.314  12.733  1.00  0.00    -0.342 OA
BRANCH  16  17
HETATM   17  C16 UNL     1      14.113  23.738  11.826  1.00  0.00     0.129 C 
HETATM   18  C17 UNL     1      15.516  23.798  12.391  1.00  0.00     0.032 C 
HETATM   19  C18 UNL     1      16.323  23.908  11.089  1.00  0.00     0.002 C 
HETATM   20  C19 UNL     1      15.574  23.015  10.124  1.00  0.00     0.002 C 
HETATM   21  C20 UNL     1      14.287  22.611  10.797  1.00  0.00     0.032 C 
ENDBRANCH  16  17
ENDBRANCH  12  16
ENDBRANCH   1   6
BRANCH   4  22
HETATM   22  C9  UNL     1       9.637  19.432  12.798  1.00  0.00     0.318 C 
BRANCH  22  23
HETATM   23  C10 UNL     1       8.946  18.657  11.767  1.00  0.00     0.030 A 
HETATM   24  C11 UNL     1       7.953  19.150  10.957  1.00  0.00     0.118 A 
HETATM   25  N4  UNL     1       7.355  18.386   9.999  1.00  0.00    -0.201 N 
HETATM   26  C12 UNL     1       7.744  17.109   9.835  1.00  0.00     0.677 A 
ATOM     27  H4  UNL     1       6.620  18.779   9.413  1.00  0.00     0.183 HD
HETATM   28  N6  UNL     1       8.716  16.576  10.605  1.00  0.00    -0.177 N 
HETATM   29  C13 UNL     1       9.309  17.318  11.549  1.00  0.00     0.124 A 
ATOM     30  H6  UNL     1       9.001  15.606  10.466  1.00  0.00     0.185 HD
BRANCH  26  31
HETATM   31  N5  UNL     1       7.211  16.329   8.937  1.00  0.00    -0.234 N 
ATOM     32  H52 UNL     1       7.820  15.625   8.520  1.00  0.00     0.174 HD
ATOM     33  H51 UNL     1       6.233  16.410   8.655  1.00  0.00     0.174 HD
ENDBRANCH  26  31
BRANCH  29  34
HETATM   34  N7  UNL     1      10.236  16.842  12.299  1.00  0.00    -0.385 N 
ATOM     35  H72 UNL     1      11.218  17.069  12.147  1.00  0.00     0.157 HD
ATOM     36  H71 UNL     1       9.942  16.225  13.057  1.00  0.00     0.157 HD
ENDBRANCH  29  34
ENDBRANCH  22  23
ENDBRANCH   4  22
TORSDOF 9
ENDMDL
MODEL 4
REMARK VINA RESULT: -8.333845206      4.087      8.361
REMARK  9 active torsions:
REMARK  status: ('A' for Active; 'I' for Inactive)
REMARK    1  A    between atoms: C2_2  and  C3_3 
REMARK    2  A    between atoms: C3_3  and  C4_4 
REMARK    3  A    between atoms: C6_8  and  N2_9 
REMARK    4  A    between atoms: N3_12  and  C9_13 
REMARK    5  A    between atoms: C9_13  and  C10_14 
REMARK    6  A    between atoms: C12_18  and  N5_19 
REMARK    7  A    between atoms: C13_24  and  N7_25 
REMARK    8  A    between atoms: C15_29  and  O1_30 
REMARK    9  A    between atoms: O1_30  and  C16_31 
ROOT
HETATM    1  N2  UNL     1      11.951  24.176  15.613  1.00  0.00    -0.338 N 
HETATM    2  C7  UNL     1      10.572  24.568  15.697  1.00  0.00     0.156 C 
HETATM    3  C8  UNL     1      10.108  23.962  17.012  1.00  0.00     0.294 C 
HETATM    4  N3  UNL     1      11.275  23.958  17.823  1.00  0.00     0.111 N 
HETATM    5  C14 UNL     1      12.420  24.032  16.980  1.00  0.00     0.399 C 
ENDROOT
BRANCH   1   6
HETATM    6  C6  UNL     1      12.803  23.940  14.498  1.00  0.00     0.138 A 
HETATM    7  N1  UNL     1      13.977  24.574  14.331  1.00  0.00    -0.350 N 
HETATM    8  C5  UNL     1      14.816  24.390  13.305  1.00  0.00     0.097 A 
ATOM      9  H1  UNL     1      14.251  25.250  15.044  1.00  0.00     0.166 HD
HETATM   10  C4  UNL     1      14.510  23.503  12.319  1.00  0.00    -0.040 A 
HETATM   11  C21 UNL     1      13.306  22.810  12.429  1.00  0.00     0.049 A 
HETATM   12  C15 UNL     1      12.468  23.027  13.501  1.00  0.00     0.113 A 
BRANCH  10  13
HETATM   13  C3  UNL     1      15.435  23.293  11.181  1.00  0.00     0.040 C 
BRANCH  13  14
HETATM   14  C2  UNL     1      14.763  23.637   9.860  1.00  0.00     0.000 C 
HETATM   15  C1  UNL     1      14.759  22.482   8.900  1.00  0.00     0.005 C 
ENDBRANCH  13  14
ENDBRANCH  10  13
BRANCH  12  16
HETATM   16  O1  UNL     1      11.299  22.338  13.583  1.00  0.00    -0.342 OA
BRANCH  16  17
HETATM   17  C16 UNL     1      10.569  21.718  12.585  1.00  0.00     0.129 C 
HETATM   18  C17 UNL     1      10.192  20.285  12.899  1.00  0.00     0.032 C 
HETATM   19  C18 UNL     1       9.115  20.053  11.829  1.00  0.00     0.002 C 
HETATM   20  C19 UNL     1       8.391  21.379  11.752  1.00  0.00     0.002 C 
HETATM   21  C20 UNL     1       9.176  22.366  12.578  1.00  0.00     0.032 C 
ENDBRANCH  16  17
ENDBRANCH  12  16
ENDBRANCH   1   6
BRANCH   4  22
HETATM   22  C9  UNL     1      11.246  24.889  18.887  1.00  0.00     0.318 C 
BRANCH  22  23
HETATM   23  C10 UNL     1      10.090  24.848  19.784  1.00  0.00     0.030 A 
HETATM   24  C11 UNL     1       8.879  25.436  19.519  1.00  0.00     0.118 A 
HETATM   25  N4  UNL     1       7.829  25.351  20.384  1.00  0.00    -0.201 N 
HETATM   26  C12 UNL     1       7.975  24.672  21.536  1.00  0.00     0.677 A 
ATOM     27  H4  UNL     1       6.940  25.798  20.160  1.00  0.00     0.183 HD
HETATM   28  N6  UNL     1       9.146  24.075  21.845  1.00  0.00    -0.177 N 
HETATM   29  C13 UNL     1      10.183  24.154  21.001  1.00  0.00     0.124 A 
ATOM     30  H6  UNL     1       9.240  23.562  22.721  1.00  0.00     0.185 HD
BRANCH  26  31
HETATM   31  N5  UNL     1       7.009  24.555  22.403  1.00  0.00    -0.234 N 
ATOM     32  H52 UNL     1       7.279  24.461  23.382  1.00  0.00     0.174 HD
ATOM     33  H51 UNL     1       6.026  24.555  22.128  1.00  0.00     0.174 HD
ENDBRANCH  26  31
BRANCH  29  34
HETATM   34  N7  UNL     1      11.311  23.599  21.264  1.00  0.00    -0.385 N 
ATOM     35  H72 UNL     1      12.174  23.893  20.806  1.00  0.00     0.157 HD
ATOM     36  H71 UNL     1      11.304  22.849  21.956  1.00  0.00     0.157 HD
ENDBRANCH  29  34
ENDBRANCH  22  23
ENDBRANCH   4  22
TORSDOF 9
ENDMDL
MODEL 5
REMARK VINA RESULT: -8.332886128      2.791      5.760
REMARK  9 active torsions:
REMARK  status: ('A' for Active; 'I' for Inactive)
REMARK    1  A    between atoms: C2_2  and  C3_3 
REMARK    2  A    between atoms: C3_3  and  C4_4 
REMARK    3  A    between atoms: C6_8  and  N2_9 
REMARK    4  A    between atoms: N3_12  and  C9_13 
REMARK    5  A    between atoms: C9_13  and  C10_14 
REMARK    6  A    between atoms: C12_18  and  N5_19 
REMARK    7  A    between atoms: C13_24  and  N7_25 
REMARK    8  A    between atoms: C15_29  and  O1_30 
REMARK    9  A    between atoms: O1_30  and  C16_31 
ROOT
HETATM    1  N2  UNL     1      11.781  24.427  16.193  1.00  0.00    -0.338 N 
HETATM    2  C7  UNL     1      12.036  23.051  16.520  1.00  0.00     0.156 C 
HETATM    3  C8  UNL     1      10.916  22.304  15.814  1.00  0.00     0.294 C 
HETATM    4  N3  UNL     1      10.630  23.102  14.673  1.00  0.00     0.111 N 
HETATM    5  C14 UNL     1      11.104  24.424  14.908  1.00  0.00     0.399 C 
ENDROOT
BRANCH   1   6
HETATM    6  C6  UNL     1      12.073  25.635  16.885  1.00  0.00     0.138 A 
HETATM    7  N1  UNL     1      13.245  26.282  16.760  1.00  0.00    -0.350 N 
HETATM    8  C5  UNL     1      13.571  27.419  17.385  1.00  0.00     0.097 A 
ATOM      9  H1  UNL     1      13.943  25.872  16.139  1.00  0.00     0.166 HD
HETATM   10  C4  UNL     1      12.685  28.017  18.228  1.00  0.00    -0.040 A 
HETATM   11  C21 UNL     1      11.449  27.399  18.405  1.00  0.00     0.049 A 
HETATM   12  C15 UNL     1      11.151  26.228  17.744  1.00  0.00     0.113 A 
BRANCH  10  13
HETATM   13  C3  UNL     1      13.039  29.277  18.923  1.00  0.00     0.040 C 
BRANCH  13  14
HETATM   14  C2  UNL     1      11.817  30.166  19.101  1.00  0.00     0.000 C 
HETATM   15  C1  UNL     1      11.496  30.417  20.546  1.00  0.00     0.005 C 
ENDBRANCH  13  14
ENDBRANCH  10  13
BRANCH  12  16
HETATM   16  O1  UNL     1       9.936  25.646  17.935  1.00  0.00    -0.342 OA
BRANCH  16  17
HETATM   17  C16 UNL     1       9.535  24.740  18.899  1.00  0.00     0.129 C 
HETATM   18  C17 UNL     1      10.635  24.333  19.856  1.00  0.00     0.032 C 
HETATM   19  C18 UNL     1       9.797  23.680  20.964  1.00  0.00     0.002 C 
HETATM   20  C19 UNL     1       8.556  24.543  21.034  1.00  0.00     0.002 C 
HETATM   21  C20 UNL     1       8.606  25.493  19.864  1.00  0.00     0.032 C 
ENDBRANCH  16  17
ENDBRANCH  12  16
ENDBRANCH   1   6
BRANCH   4  22
HETATM   22  C9  UNL     1      11.030  22.525  13.446  1.00  0.00     0.318 C 
BRANCH  22  23
HETATM   23  C10 UNL     1      10.036  21.732  12.721  1.00  0.00     0.030 A 
HETATM   24  C11 UNL     1       9.056  22.259  11.917  1.00  0.00     0.118 A 
HETATM   25  N4  UNL     1       8.166  21.471  11.251  1.00  0.00    -0.201 N 
HETATM   26  C12 UNL     1       8.242  20.135  11.377  1.00  0.00     0.677 A 
ATOM     27  H4  UNL     1       7.448  21.891  10.660  1.00  0.00     0.183 HD
HETATM   28  N6  UNL     1       9.188  19.565  12.155  1.00  0.00    -0.177 N 
HETATM   29  C13 UNL     1      10.067  20.331  12.815  1.00  0.00     0.124 A 
ATOM     30  H6  UNL     1       9.234  18.550  12.240  1.00  0.00     0.185 HD
BRANCH  26  31
HETATM   31  N5  UNL     1       7.421  19.329  10.766  1.00  0.00    -0.234 N 
ATOM     32  H52 UNL     1       7.686  18.344  10.727  1.00  0.00     0.174 HD
ATOM     33  H51 UNL     1       6.552  19.654  10.342  1.00  0.00     0.174 HD
ENDBRANCH  26  31
BRANCH  29  34
HETATM   34  N7  UNL     1      10.977  19.822  13.564  1.00  0.00    -0.385 N 
ATOM     35  H72 UNL     1      10.880  19.788  14.578  1.00  0.00     0.157 HD
ATOM     36  H71 UNL     1      11.804  19.452  13.095  1.00  0.00     0.157 HD
ENDBRANCH  29  34
ENDBRANCH  22  23
ENDBRANCH   4  22
TORSDOF 9
ENDMDL
