MODEL 1
REMARK VINA RESULT: -9.582653055      0.000      0.000
REMARK  10 active torsions:
REMARK  status: ('A' for Active; 'I' for Inactive)
REMARK    1  A    between atoms: N1_1  and  C1_4 
REMARK    2  A    between atoms: C2_7  and  N3_8 
REMARK    3  A    between atoms: N3_8  and  C3_9 
REMARK    4  A    between atoms: N3_8  and  C6_16 
REMARK    5  A    between atoms: C3_9  and  C4_10 
REMARK    6  A    between atoms: C4_10  and  C5_11 
REMARK    7  A    between atoms: C5_11  and  N4_12 
REMARK    8  A    between atoms: C6_16  and  C7_17 
REMARK    9  A    between atoms: C13_25  and  N6_26 
REMARK   10  A    between atoms: N6_26  and  C14_28 
ROOT
HETATM    1  C1  UNL     1      10.502  23.950  13.721  1.00  0.00     0.705 A 
HETATM    2  N2  UNL     1      11.786  24.329  13.576  1.00  0.00    -0.022 N 
ATOM      3  H2  UNL     1      12.013  25.323  13.609  1.00  0.00     0.203 HD
HETATM    4  C2  UNL     1      12.779  23.439  13.390  1.00  0.00     0.709 A 
HETATM    5  N5  UNL     1      12.426  22.149  13.356  1.00  0.00    -0.021 N 
ATOM      6  H5  UNL     1      13.151  21.445  13.217  1.00  0.00     0.203 HD
HETATM    7  C13 UNL     1      11.140  21.746  13.501  1.00  0.00     0.711 A 
HETATM    8  N7  UNL     1      10.166  22.638  13.684  1.00  0.00    -0.021 N 
ATOM      9  H7  UNL     1       9.196  22.341  13.794  1.00  0.00     0.203 HD
ENDROOT
BRANCH   4  10
HETATM   10  N3  UNL     1      14.097  23.911  13.232  1.00  0.00    -0.216 N 
BRANCH  10  11
HETATM   11  C3  UNL     1      14.592  24.719  14.362  1.00  0.00     0.143 C 
BRANCH  11  12
HETATM   12  C4  UNL     1      15.155  23.905  15.477  1.00  0.00     0.048 C 
BRANCH  12  13
HETATM   13  C5  UNL     1      14.172  23.940  16.658  1.00  0.00     0.231 C 
BRANCH  13  14
HETATM   14  N4  UNL     1      13.463  22.706  16.817  1.00  0.00    -0.079 N 
ATOM     15  H43 UNL     1      14.108  21.922  16.918  1.00  0.00     0.274 HD
ATOM     16  H42 UNL     1      13.005  22.660  17.727  1.00  0.00     0.274 HD
ATOM     17  H41 UNL     1      12.799  22.539  16.061  1.00  0.00     0.274 HD
ENDBRANCH  13  14
ENDBRANCH  12  13
ENDBRANCH  11  12
ENDBRANCH  10  11
BRANCH  10  18
HETATM   18  C6  UNL     1      15.003  23.708  12.168  1.00  0.00     0.145 C 
BRANCH  18  19
HETATM   19  C7  UNL     1      14.488  23.361  10.829  1.00  0.00     0.004 C 
HETATM   20  C8  UNL     1      14.804  22.022  10.273  1.00  0.00     0.006 C 
HETATM   21  C9  UNL     1      14.842  22.104   8.734  1.00  0.00     0.000 C 
HETATM   22  C10 UNL     1      16.115  22.747   8.280  1.00  0.00     0.000 C 
HETATM   23  C11 UNL     1      16.455  23.815   9.323  1.00  0.00     0.000 C 
HETATM   24  C12 UNL     1      15.135  24.372   9.857  1.00  0.00     0.006 C 
ENDBRANCH  18  19
ENDBRANCH  10  18
ENDBRANCH   4  10
BRANCH   1  25
HETATM   25  N1  UNL     1       9.535  24.786  13.899  1.00  0.00    -0.234 N 
ATOM     26  H12 UNL     1       9.690  25.737  13.564  1.00  0.00     0.174 HD
ATOM     27  H11 UNL     1       8.655  24.532  14.347  1.00  0.00     0.174 HD
ENDBRANCH   1  25
BRANCH   7  28
HETATM   28  N6  UNL     1      10.849  20.494  13.458  1.00  0.00    -0.191 N 
ATOM     29  H6  UNL     1      11.345  19.864  14.089  1.00  0.00     0.184 HD
BRANCH  28  30
HETATM   30  C14 UNL     1       9.882  19.936  12.587  1.00  0.00     0.051 A 
HETATM   31  C15 UNL     1       9.023  20.744  11.884  1.00  0.00     0.030 A 
HETATM   32  C16 UNL     1       8.080  20.201  11.040  1.00  0.00     0.012 A 
HETATM   33  C17 UNL     1       7.969  18.843  10.874  1.00  0.00    -0.023 A 
HETATM   34  C18 UNL     1       8.814  17.998  11.564  1.00  0.00     0.077 A 
HETATM   35  C21 UNL     1       7.084  17.970  10.069  1.00  0.00     0.068 C 
HETATM   36  C19 UNL     1       9.744  18.572  12.400  1.00  0.00     0.067 A 
HETATM   37  O1  UNL     1       8.538  16.663  11.256  1.00  0.00    -0.350 OA
HETATM   38  C20 UNL     1       7.857  16.665  10.009  1.00  0.00     0.180 C 
ENDBRANCH  28  30
ENDBRANCH   7  28
TORSDOF 10
ENDMDL
MODEL 2
REMARK VINA RESULT: -9.361743727      3.879      6.669
REMARK  10 active torsions:
REMARK  status: ('A' for Active; 'I' for Inactive)
REMARK    1  A    between atoms: N1_1  and  C1_4 
REMARK    2  A    between atoms: C2_7  and  N3_8 
REMARK    3  A    between atoms: N3_8  and  C3_9 
REMARK    4  A    between atoms: N3_8  and  C6_16 
REMARK    5  A    between atoms: C3_9  and  C4_10 
REMARK    6  A    between atoms: C4_10  and  C5_11 
REMARK    7  A    between atoms: C5_11  and  N4_12 
REMARK    8  A    between atoms: C6_16  and  C7_17 
REMARK    9  A    between atoms: C13_25  and  N6_26 
REMARK   10  A    between atoms: N6_26  and  C14_28 
ROOT
HETATM    1  C1  UNL     1      12.535  25.137  14.546  1.00  0.00     0.705 A 
HETATM    2  N2  UNL     1      12.237  25.297  15.849  1.00  0.00    -0.022 N 
ATOM      3  H2  UNL     1      12.947  25.678  16.475  1.00  0.00     0.203 HD
HETATM    4  C2  UNL     1      11.032  24.969  16.354  1.00  0.00     0.709 A 
HETATM    5  N5  UNL     1      10.138  24.475  15.491  1.00  0.00    -0.021 N 
ATOM      6  H5  UNL     1       9.214  24.216  15.835  1.00  0.00     0.203 HD
HETATM    7  C13 UNL     1      10.416  24.307  14.175  1.00  0.00     0.711 A 
HETATM    8  N7  UNL     1      11.614  24.635  13.688  1.00  0.00    -0.021 N 
ATOM      9  H7  UNL     1      11.831  24.512  12.699  1.00  0.00     0.203 HD
ENDROOT
BRANCH   4  10
HETATM   10  N3  UNL     1      10.797  25.151  17.731  1.00  0.00    -0.216 N 
BRANCH  10  11
HETATM   11  C3  UNL     1       9.662  24.374  18.262  1.00  0.00     0.143 C 
BRANCH  11  12
HETATM   12  C4  UNL     1       9.470  24.524  19.733  1.00  0.00     0.048 C 
BRANCH  12  13
HETATM   13  C5  UNL     1       8.240  25.412  19.981  1.00  0.00     0.231 C 
BRANCH  13  14
HETATM   14  N4  UNL     1       7.520  25.031  21.160  1.00  0.00    -0.079 N 
ATOM     15  H43 UNL     1       7.079  25.840  21.598  1.00  0.00     0.274 HD
ATOM     16  H42 UNL     1       6.683  24.498  20.923  1.00  0.00     0.274 HD
ATOM     17  H41 UNL     1       8.103  24.525  21.825  1.00  0.00     0.274 HD
ENDBRANCH  13  14
ENDBRANCH  12  13
ENDBRANCH  11  12
ENDBRANCH  10  11
BRANCH  10  18
HETATM   18  C6  UNL     1      11.497  25.947  18.664  1.00  0.00     0.145 C 
BRANCH  18  19
HETATM   19  C7  UNL     1      11.317  27.412  18.652  1.00  0.00     0.004 C 
HETATM   20  C8  UNL     1      12.371  28.251  18.031  1.00  0.00     0.006 C 
HETATM   21  C9  UNL     1      12.391  29.634  18.713  1.00  0.00     0.000 C 
HETATM   22  C10 UNL     1      13.056  29.542  20.051  1.00  0.00     0.000 C 
HETATM   23  C11 UNL     1      12.680  28.174  20.629  1.00  0.00     0.000 C 
HETATM   24  C12 UNL     1      11.271  27.841  20.135  1.00  0.00     0.006 C 
ENDBRANCH  18  19
ENDBRANCH  10  18
ENDBRANCH   4  10
BRANCH   1  25
HETATM   25  N1  UNL     1      13.683  25.443  14.043  1.00  0.00    -0.234 N 
ATOM     26  H12 UNL     1      13.774  26.383  13.658  1.00  0.00     0.174 HD
ATOM     27  H11 UNL     1      14.471  24.796  14.020  1.00  0.00     0.174 HD
ENDBRANCH   1  25
BRANCH   7  28
HETATM   28  N6  UNL     1       9.525  23.825  13.384  1.00  0.00    -0.191 N 
ATOM     29  H6  UNL     1       8.801  24.454  13.036  1.00  0.00     0.184 HD
BRANCH  28  30
HETATM   30  C14 UNL     1       9.487  22.472  12.966  1.00  0.00     0.051 A 
HETATM   31  C15 UNL     1      10.401  21.565  13.442  1.00  0.00     0.030 A 
HETATM   32  C16 UNL     1      10.366  20.251  13.032  1.00  0.00     0.012 A 
HETATM   33  C17 UNL     1       9.421  19.807  12.141  1.00  0.00    -0.023 A 
HETATM   34  C18 UNL     1       8.486  20.689  11.640  1.00  0.00     0.077 A 
HETATM   35  C21 UNL     1       9.127  18.497  11.517  1.00  0.00     0.068 C 
HETATM   36  C19 UNL     1       8.549  21.995  12.068  1.00  0.00     0.067 A 
HETATM   37  O1  UNL     1       7.621  20.040  10.753  1.00  0.00    -0.350 OA
HETATM   38  C20 UNL     1       7.687  18.655  11.060  1.00  0.00     0.180 C 
ENDBRANCH  28  30
ENDBRANCH   7  28
TORSDOF 10
ENDMDL
MODEL 3
REMARK VINA RESULT: -9.320904852      1.006      1.258
REMARK  10 active torsions:
REMARK  status: ('A' for Active; 'I' for Inactive)
REMARK    1  A    between atoms: N1_1  and  C1_4 
REMARK    2  A    between atoms: C2_7  and  N3_8 
REMARK    3  A    between atoms: N3_8  and  C3_9 
REMARK    4  A    between atoms: N3_8  and  C6_16 
REMARK    5  A    between atoms: C3_9  and  C4_10 
REMARK    6  A    between atoms: C4_10  and  C5_11 
REMARK    7  A    between atoms: C5_11  and  N4_12 
REMARK    8  A    between atoms: C6_16  and  C7_17 
REMARK    9  A    between atoms: C13_25  and  N6_26 
REMARK   10  A    between atoms: N6_26  and  C14_28 
ROOT
HETATM    1  C1  UNL     1      10.765  24.159  13.878  1.00  0.00     0.705 A 
HETATM    2  N2  UNL     1      12.055  24.483  13.671  1.00  0.00    -0.022 N 
ATOM      3  H2  UNL     1      12.325  25.467  13.684  1.00  0.00     0.203 HD
HETATM    4  C2  UNL     1      13.000  23.550  13.446  1.00  0.00     0.709 A 
HETATM    5  N5  UNL     1      12.592  22.277  13.441  1.00  0.00    -0.021 N 
ATOM      6  H5  UNL     1      13.279  21.541  13.275  1.00  0.00     0.203 HD
HETATM    7  C13 UNL     1      11.299  21.929  13.649  1.00  0.00     0.711 A 
HETATM    8  N7  UNL     1      10.372  22.863  13.869  1.00  0.00    -0.021 N 
ATOM      9  H7  UNL     1       9.397  22.608  14.027  1.00  0.00     0.203 HD
ENDROOT
BRANCH   4  10
HETATM   10  N3  UNL     1      14.328  23.965  13.223  1.00  0.00    -0.216 N 
BRANCH  10  11
HETATM   11  C3  UNL     1      14.906  24.764  14.319  1.00  0.00     0.143 C 
BRANCH  11  12
HETATM   12  C4  UNL     1      16.344  25.106  14.114  1.00  0.00     0.048 C 
BRANCH  12  13
HETATM   13  C5  UNL     1      16.623  26.469  14.769  1.00  0.00     0.231 C 
BRANCH  13  14
HETATM   14  N4  UNL     1      15.562  26.887  15.636  1.00  0.00    -0.079 N 
ATOM     15  H43 UNL     1      15.693  27.853  15.936  1.00  0.00     0.274 HD
ATOM     16  H42 UNL     1      14.688  26.992  15.121  1.00  0.00     0.274 HD
ATOM     17  H41 UNL     1      15.446  26.266  16.437  1.00  0.00     0.274 HD
ENDBRANCH  13  14
ENDBRANCH  12  13
ENDBRANCH  11  12
ENDBRANCH  10  11
BRANCH  10  18
HETATM   18  C6  UNL     1      15.175  23.711  12.123  1.00  0.00     0.145 C 
BRANCH  18  19
HETATM   19  C7  UNL     1      14.586  23.426  10.800  1.00  0.00     0.004 C 
HETATM   20  C8  UNL     1      14.766  22.073  10.219  1.00  0.00     0.006 C 
HETATM   21  C9  UNL     1      14.757  22.171   8.681  1.00  0.00     0.000 C 
HETATM   22  C10 UNL     1      16.064  22.710   8.188  1.00  0.00     0.000 C 
HETATM   23  C11 UNL     1      16.530  23.732   9.228  1.00  0.00     0.000 C 
HETATM   24  C12 UNL     1      15.282  24.391   9.815  1.00  0.00     0.006 C 
ENDBRANCH  18  19
ENDBRANCH  10  18
ENDBRANCH   4  10
BRANCH   1  25
HETATM   25  N1  UNL     1       9.843  25.037  14.094  1.00  0.00    -0.234 N 
ATOM     26  H12 UNL     1       9.678  25.292  15.068  1.00  0.00     0.174 HD
ATOM     27  H11 UNL     1       9.298  25.466  13.347  1.00  0.00     0.174 HD
ENDBRANCH   1  25
BRANCH   7  28
HETATM   28  N6  UNL     1      10.953  20.690  13.631  1.00  0.00    -0.191 N 
ATOM     29  H6  UNL     1      11.394  20.059  14.301  1.00  0.00     0.184 HD
BRANCH  28  30
HETATM   30  C14 UNL     1       9.998  20.149  12.737  1.00  0.00     0.051 A 
HETATM   31  C15 UNL     1       9.124  20.966  12.065  1.00  0.00     0.030 A 
HETATM   32  C16 UNL     1       8.192  20.438  11.199  1.00  0.00     0.012 A 
HETATM   33  C17 UNL     1       8.108  19.086  10.979  1.00  0.00    -0.023 A 
HETATM   34  C18 UNL     1       8.970  18.231  11.637  1.00  0.00     0.077 A 
HETATM   35  C21 UNL     1       7.241  18.228  10.139  1.00  0.00     0.068 C 
HETATM   36  C19 UNL     1       9.887  18.790  12.496  1.00  0.00     0.067 A 
HETATM   37  O1  UNL     1       8.720  16.904  11.276  1.00  0.00    -0.350 OA
HETATM   38  C20 UNL     1       8.041  16.942  10.029  1.00  0.00     0.180 C 
ENDBRANCH  28  30
ENDBRANCH   7  28
TORSDOF 10
ENDMDL
MODEL 4
REMARK VINA RESULT: -9.184976594      2.913      3.820
REMARK  10 active torsions:
REMARK  status: ('A' for Active; 'I' for Inactive)
REMARK    1  A    between atoms: N1_1  and  C1_4 
REMARK    2  A    between atoms: C2_7  and  N3_8 
REMARK    3  A    between atoms: N3_8  and  C3_9 
REMARK    4  A    between atoms: N3_8  and  C6_16 
REMARK    5  A    between atoms: C3_9  and  C4_10 
REMARK    6  A    between atoms: C4_10  and  C5_11 
REMARK    7  A    between atoms: C5_11  and  N4_12 
REMARK    8  A    between atoms: C6_16  and  C7_17 
REMARK    9  A    between atoms: C13_25  and  N6_26 
REMARK   10  A    between atoms: N6_26  and  C14_28 
ROOT
HETATM    1  C1  UNL     1       9.588  23.727  13.815  1.00  0.00     0.705 A 
HETATM    2  N2  UNL     1      10.328  24.081  14.883  1.00  0.00    -0.022 N 
ATOM      3  H2  UNL     1      10.209  25.014  15.278  1.00  0.00     0.203 HD
HETATM    4  C2  UNL     1      11.219  23.243  15.447  1.00  0.00     0.709 A 
HETATM    5  N5  UNL     1      11.334  22.032  14.892  1.00  0.00    -0.021 N 
ATOM      6  H5  UNL     1      11.998  21.370  15.291  1.00  0.00     0.203 HD
HETATM    7  C13 UNL     1      10.599  21.655  13.817  1.00  0.00     0.711 A 
HETATM    8  N7  UNL     1       9.720  22.494  13.268  1.00  0.00    -0.021 N 
ATOM      9  H7  UNL     1       9.163  22.217  12.459  1.00  0.00     0.203 HD
ENDROOT
BRANCH   4  10
HETATM   10  N3  UNL     1      11.968  23.689  16.554  1.00  0.00    -0.216 N 
BRANCH  10  11
HETATM   11  C3  UNL     1      11.185  23.843  17.794  1.00  0.00     0.143 C 
BRANCH  11  12
HETATM   12  C4  UNL     1      11.215  25.226  18.352  1.00  0.00     0.048 C 
BRANCH  12  13
HETATM   13  C5  UNL     1       9.793  25.611  18.791  1.00  0.00     0.231 C 
BRANCH  13  14
HETATM   14  N4  UNL     1       8.785  24.901  18.063  1.00  0.00    -0.079 N 
ATOM     15  H43 UNL     1       7.856  25.277  18.259  1.00  0.00     0.274 HD
ATOM     16  H42 UNL     1       8.837  25.108  17.065  1.00  0.00     0.274 HD
ATOM     17  H41 UNL     1       8.817  23.896  18.232  1.00  0.00     0.274 HD
ENDBRANCH  13  14
ENDBRANCH  12  13
ENDBRANCH  11  12
ENDBRANCH  10  11
BRANCH  10  18
HETATM   18  C6  UNL     1      13.345  23.987  16.646  1.00  0.00     0.145 C 
BRANCH  18  19
HETATM   19  C7  UNL     1      14.064  24.484  15.457  1.00  0.00     0.004 C 
HETATM   20  C8  UNL     1      15.546  24.422  15.447  1.00  0.00     0.006 C 
HETATM   21  C9  UNL     1      16.100  25.558  14.564  1.00  0.00     0.000 C 
HETATM   22  C10 UNL     1      16.020  26.865  15.290  1.00  0.00     0.000 C 
HETATM   23  C11 UNL     1      14.740  26.816  16.129  1.00  0.00     0.000 C 
HETATM   24  C12 UNL     1      13.716  25.986  15.355  1.00  0.00     0.006 C 
ENDBRANCH  18  19
ENDBRANCH  10  18
ENDBRANCH   4  10
BRANCH   1  25
HETATM   25  N1  UNL     1       8.730  24.514  13.259  1.00  0.00    -0.234 N 
ATOM     26  H12 UNL     1       7.768  24.178  13.216  1.00  0.00     0.174 HD
ATOM     27  H11 UNL     1       8.978  25.426  12.877  1.00  0.00     0.174 HD
ENDBRANCH   1  25
BRANCH   7  28
HETATM   28  N6  UNL     1      10.747  20.480  13.316  1.00  0.00    -0.191 N 
ATOM     29  H6  UNL     1      11.605  19.971  13.530  1.00  0.00     0.184 HD
BRANCH  28  30
HETATM   30  C14 UNL     1       9.790  19.850  12.483  1.00  0.00     0.051 A 
HETATM   31  C15 UNL     1       8.874  20.592  11.781  1.00  0.00     0.030 A 
HETATM   32  C16 UNL     1       7.941  19.978  10.975  1.00  0.00     0.012 A 
HETATM   33  C17 UNL     1       7.898  18.612  10.846  1.00  0.00    -0.023 A 
HETATM   34  C18 UNL     1       8.803  17.831  11.537  1.00  0.00     0.077 A 
HETATM   35  C21 UNL     1       7.042  17.673  10.087  1.00  0.00     0.068 C 
HETATM   36  C19 UNL     1       9.720  18.475  12.335  1.00  0.00     0.067 A 
HETATM   37  O1  UNL     1       8.589  16.476  11.271  1.00  0.00    -0.350 OA
HETATM   38  C20 UNL     1       7.881  16.408  10.042  1.00  0.00     0.180 C 
ENDBRANCH  28  30
ENDBRANCH   7  28
TORSDOF 10
ENDMDL
MODEL 5
REMARK VINA RESULT: -9.174125459      1.363      4.108
REMARK  10 active torsions:
REMARK  status: ('A' for Active; 'I' for Inactive)
REMARK    1  A    between atoms: N1_1  and  C1_4 
REMARK    2  A    between atoms: C2_7  and  N3_8 
REMARK    3  A    between atoms: N3_8  and  C3_9 
REMARK    4  A    between atoms: N3_8  and  C6_16 
REMARK    5  A    between atoms: C3_9  and  C4_10 
REMARK    6  A    between atoms: C4_10  and  C5_11 
REMARK    7  A    between atoms: C5_11  and  N4_12 
REMARK    8  A    between atoms: C6_16  and  C7_17 
REMARK    9  A    between atoms: C13_25  and  N6_26 
REMARK   10  A    between atoms: N6_26  and  C14_28 
ROOT
HETATM    1  C1  UNL     1      10.431  23.914  13.721  1.00  0.00     0.705 A 
HETATM    2  N2  UNL     1      11.709  24.289  13.525  1.00  0.00    -0.022 N 
ATOM      3  H2  UNL     1      11.939  25.283  13.541  1.00  0.00     0.203 HD
HETATM    4  C2  UNL     1      12.692  23.395  13.310  1.00  0.00     0.709 A 
HETATM    5  N5  UNL     1      12.337  22.106  13.301  1.00  0.00    -0.021 N 
ATOM      6  H5  UNL     1      13.054  21.399  13.141  1.00  0.00     0.203 HD
HETATM    7  C13 UNL     1      11.056  21.707  13.496  1.00  0.00     0.711 A 
HETATM    8  N7  UNL     1      10.091  22.603  13.708  1.00  0.00    -0.021 N 
ATOM      9  H7  UNL     1       9.125  22.309  13.856  1.00  0.00     0.203 HD
ENDROOT
BRANCH   4  10
HETATM   10  N3  UNL     1      14.005  23.863  13.099  1.00  0.00    -0.216 N 
BRANCH  10  11
HETATM   11  C3  UNL     1      14.530  23.609  11.745  1.00  0.00     0.143 C 
BRANCH  11  12
HETATM   12  C4  UNL     1      15.980  23.924  11.598  1.00  0.00     0.048 C 
BRANCH  12  13
HETATM   13  C5  UNL     1      16.247  24.349  10.145  1.00  0.00     0.231 C 
BRANCH  13  14
HETATM   14  N4  UNL     1      15.052  24.746   9.463  1.00  0.00    -0.079 N 
ATOM     15  H43 UNL     1      15.062  24.432   8.492  1.00  0.00     0.274 HD
ATOM     16  H42 UNL     1      14.246  24.218   9.798  1.00  0.00     0.274 HD
ATOM     17  H41 UNL     1      14.885  25.750   9.523  1.00  0.00     0.274 HD
ENDBRANCH  13  14
ENDBRANCH  12  13
ENDBRANCH  11  12
ENDBRANCH  10  11
BRANCH  10  18
HETATM   18  C6  UNL     1      14.868  24.547  13.984  1.00  0.00     0.145 C 
BRANCH  18  19
HETATM   19  C7  UNL     1      14.381  24.934  15.322  1.00  0.00     0.004 C 
HETATM   20  C8  UNL     1      13.818  26.295  15.506  1.00  0.00     0.006 C 
HETATM   21  C9  UNL     1      14.046  26.749  16.962  1.00  0.00     0.000 C 
HETATM   22  C10 UNL     1      15.472  27.160  17.159  1.00  0.00     0.000 C 
HETATM   23  C11 UNL     1      16.316  26.228  16.285  1.00  0.00     0.000 C 
HETATM   24  C12 UNL     1      15.613  24.870  16.251  1.00  0.00     0.006 C 
ENDBRANCH  18  19
ENDBRANCH  10  18
ENDBRANCH   4  10
BRANCH   1  25
HETATM   25  N1  UNL     1       9.473  24.754  13.927  1.00  0.00    -0.234 N 
ATOM     26  H12 UNL     1       8.687  24.417  14.484  1.00  0.00     0.174 HD
ATOM     27  H11 UNL     1       9.479  25.706  13.564  1.00  0.00     0.174 HD
ENDBRANCH   1  25
BRANCH   7  28
HETATM   28  N6  UNL     1      10.761  20.455  13.475  1.00  0.00    -0.191 N 
ATOM     29  H6  UNL     1      11.232  19.840  14.139  1.00  0.00     0.184 HD
BRANCH  28  30
HETATM   30  C14 UNL     1       9.821  19.879  12.586  1.00  0.00     0.051 A 
HETATM   31  C15 UNL     1       8.958  20.670  11.870  1.00  0.00     0.030 A 
HETATM   32  C16 UNL     1       8.042  20.109  11.009  1.00  0.00     0.012 A 
HETATM   33  C17 UNL     1       7.963  18.749  10.838  1.00  0.00    -0.023 A 
HETATM   34  C18 UNL     1       8.814  17.921  11.541  1.00  0.00     0.077 A 
HETATM   35  C21 UNL     1       7.110  17.860  10.016  1.00  0.00     0.068 C 
HETATM   36  C19 UNL     1       9.716  18.513  12.395  1.00  0.00     0.067 A 
HETATM   37  O1  UNL     1       8.571  16.581  11.226  1.00  0.00    -0.350 OA
HETATM   38  C20 UNL     1       7.912  16.571   9.967  1.00  0.00     0.180 C 
ENDBRANCH  28  30
ENDBRANCH   7  28
TORSDOF 10
ENDMDL
