MODEL 1
REMARK VINA RESULT: -8.106706060      0.000      0.000
REMARK  9 active torsions:
REMARK  status: ('A' for Active; 'I' for Inactive)
REMARK    1  A    between atoms: C2_2  and  C3_3 
REMARK    2  A    between atoms: C3_3  and  C4_4 
REMARK    3  A    between atoms: C6_6  and  C7_7 
REMARK    4  A    between atoms: C7_7  and  C8_8 
REMARK    5  A    between atoms: C8_8  and  C9_9 
REMARK       I    between atoms: C9_9  and  N1_11 
REMARK    6  A    between atoms: C14_20  and  O2_21 
REMARK    7  A    between atoms: O2_21  and  C15_22 
REMARK    8  A    between atoms: C19_29  and  N4_30 
REMARK    9  A    between atoms: C20_34  and  O3_35 
ROOT
HETATM    1  C4  UNL     1      -2.501  22.781   9.474  1.00  0.00    -0.022 A 
HETATM    2  C5  UNL     1      -3.672  22.072   9.166  1.00  0.00     0.017 A 
HETATM    3  C6  UNL     1      -4.883  22.352   9.757  1.00  0.00    -0.054 A 
HETATM    4  C13 UNL     1      -4.904  23.391  10.702  1.00  0.00     0.046 A 
HETATM    5  C14 UNL     1      -3.787  24.105  11.030  1.00  0.00     0.103 A 
HETATM    6  C20 UNL     1      -2.578  23.781  10.396  1.00  0.00     0.105 A 
ENDROOT
BRANCH   5   7
HETATM    7  O2  UNL     1      -3.799  25.107  11.935  1.00  0.00    -0.339 OA
BRANCH   7   8
HETATM    8  C15 UNL     1      -4.104  26.443  11.811  1.00  0.00     0.187 C 
HETATM    9  C16 UNL     1      -4.233  26.831  10.355  1.00  0.00     0.038 C 
HETATM   10  C17 UNL     1      -4.594  28.262  10.155  1.00  0.00     0.030 C 
HETATM   11  C18 UNL     1      -3.946  29.224  11.103  1.00  0.00     0.235 C 
HETATM   12  N3  UNL     1      -3.715  28.712  12.418  1.00  0.00    -0.044 N 
HETATM   13  C19 UNL     1      -3.095  27.387  12.428  1.00  0.00     0.409 C 
ATOM     14  H32 UNL     1      -3.168  29.371  12.971  1.00  0.00     0.279 HD
ATOM     15  H31 UNL     1      -4.579  28.710  12.962  1.00  0.00     0.279 HD
BRANCH  13  16
HETATM   16  N4  UNL     1      -1.918  27.478  11.590  1.00  0.00    -0.048 N 
ATOM     17  H43 UNL     1      -1.985  26.873  10.771  1.00  0.00     0.276 HD
ATOM     18  H42 UNL     1      -1.861  28.375  11.108  1.00  0.00     0.276 HD
ATOM     19  H41 UNL     1      -1.079  27.285  12.137  1.00  0.00     0.276 HD
ENDBRANCH  13  16
ENDBRANCH   7   8
ENDBRANCH   5   7
BRANCH   6  20
HETATM   20  O3  UNL     1      -1.466  24.514  10.723  1.00  0.00    -0.357 OA
ATOM     21  H3  UNL     1      -1.289  24.745  11.627  1.00  0.00     0.217 HD
ENDBRANCH   6  20
BRANCH   3  22
HETATM   22  C7  UNL     1      -6.112  21.618   9.427  1.00  0.00     0.048 C 
BRANCH  22  23
HETATM   23  C8  UNL     1      -5.994  20.223   8.951  1.00  0.00     0.108 C 
BRANCH  23  24
HETATM   24  C9  UNL     1      -6.922  19.773   7.923  1.00  0.00     0.223 C 
HETATM   25  O1  UNL     1      -7.879  20.453   7.530  1.00  0.00    -0.273 OA
HETATM   26  N1  UNL     1      -6.742  18.475   7.314  1.00  0.00    -0.308 N 
HETATM   27  C10 UNL     1      -7.170  17.406   7.865  1.00  0.00     0.142 C 
ATOM     28  H1  UNL     1      -6.259  18.411   6.418  1.00  0.00     0.171 HD
HETATM   29  N2  UNL     1      -7.862  17.196   9.080  1.00  0.00    -0.370 N 
HETATM   30  S1  UNL     1      -6.989  15.737   7.184  1.00  0.00    -0.092 SA
HETATM   31  C11 UNL     1      -8.688  16.040   9.101  1.00  0.00     0.132 C 
ATOM     32  H2  UNL     1      -7.775  17.825   9.877  1.00  0.00     0.161 HD
HETATM   33  C12 UNL     1      -7.950  14.871   8.479  1.00  0.00     0.102 C 
ENDBRANCH  23  24
ENDBRANCH  22  23
ENDBRANCH   3  22
BRANCH   1  34
HETATM   34  C3  UNL     1      -1.277  22.284   8.815  1.00  0.00     0.041 C 
BRANCH  34  35
HETATM   35  C2  UNL     1      -1.235  22.397   7.338  1.00  0.00     0.000 C 
HETATM   36  C1  UNL     1      -0.285  21.474   6.682  1.00  0.00     0.005 C 
ENDBRANCH  34  35
ENDBRANCH   1  34
TORSDOF 9
ENDMDL
MODEL 2
REMARK VINA RESULT: -7.973647656      1.284      1.455
REMARK  9 active torsions:
REMARK  status: ('A' for Active; 'I' for Inactive)
REMARK    1  A    between atoms: C2_2  and  C3_3 
REMARK    2  A    between atoms: C3_3  and  C4_4 
REMARK    3  A    between atoms: C6_6  and  C7_7 
REMARK    4  A    between atoms: C7_7  and  C8_8 
REMARK    5  A    between atoms: C8_8  and  C9_9 
REMARK       I    between atoms: C9_9  and  N1_11 
REMARK    6  A    between atoms: C14_20  and  O2_21 
REMARK    7  A    between atoms: O2_21  and  C15_22 
REMARK    8  A    between atoms: C19_29  and  N4_30 
REMARK    9  A    between atoms: C20_34  and  O3_35 
ROOT
HETATM    1  C4  UNL     1      -2.143  23.603   8.804  1.00  0.00    -0.022 A 
HETATM    2  C5  UNL     1      -3.206  22.720   9.045  1.00  0.00     0.017 A 
HETATM    3  C6  UNL     1      -4.442  23.148   9.471  1.00  0.00    -0.054 A 
HETATM    4  C13 UNL     1      -4.604  24.530   9.662  1.00  0.00     0.046 A 
HETATM    5  C14 UNL     1      -3.596  25.424   9.438  1.00  0.00     0.103 A 
HETATM    6  C20 UNL     1      -2.356  24.935   9.002  1.00  0.00     0.105 A 
ENDROOT
BRANCH   5   7
HETATM    7  O2  UNL     1      -3.744  26.754   9.617  1.00  0.00    -0.339 OA
BRANCH   7   8
HETATM    8  C15 UNL     1      -3.666  27.535  10.748  1.00  0.00     0.187 C 
HETATM    9  C16 UNL     1      -3.398  28.978  10.385  1.00  0.00     0.038 C 
HETATM   10  C17 UNL     1      -3.333  29.882  11.567  1.00  0.00     0.030 C 
HETATM   11  C18 UNL     1      -2.663  29.307  12.777  1.00  0.00     0.235 C 
HETATM   12  N3  UNL     1      -2.838  27.898  12.950  1.00  0.00    -0.044 N 
HETATM   13  C19 UNL     1      -2.593  27.124  11.733  1.00  0.00     0.409 C 
ATOM     14  H32 UNL     1      -2.261  27.555  13.718  1.00  0.00     0.279 HD
ATOM     15  H31 UNL     1      -3.763  27.693  13.328  1.00  0.00     0.279 HD
BRANCH  13  16
HETATM   16  N4  UNL     1      -1.289  27.526  11.246  1.00  0.00    -0.048 N 
ATOM     17  H43 UNL     1      -0.854  26.800  10.677  1.00  0.00     0.276 HD
ATOM     18  H42 UNL     1      -1.354  28.254  10.536  1.00  0.00     0.276 HD
ATOM     19  H41 UNL     1      -0.693  27.806  12.026  1.00  0.00     0.276 HD
ENDBRANCH  13  16
ENDBRANCH   7   8
ENDBRANCH   5   7
BRANCH   6  20
HETATM   20  O3  UNL     1      -1.355  25.843   8.767  1.00  0.00    -0.357 OA
ATOM     21  H3  UNL     1      -1.446  26.494   8.082  1.00  0.00     0.217 HD
ENDBRANCH   6  20
BRANCH   3  22
HETATM   22  C7  UNL     1      -5.558  22.225   9.713  1.00  0.00     0.048 C 
BRANCH  22  23
HETATM   23  C8  UNL     1      -5.590  20.946   8.970  1.00  0.00     0.108 C 
BRANCH  23  24
HETATM   24  C9  UNL     1      -6.744  20.679   8.124  1.00  0.00     0.223 C 
HETATM   25  O1  UNL     1      -7.692  21.467   8.001  1.00  0.00    -0.273 OA
HETATM   26  N1  UNL     1      -6.816  19.443   7.379  1.00  0.00    -0.308 N 
HETATM   27  C10 UNL     1      -7.224  18.357   7.911  1.00  0.00     0.142 C 
ATOM     28  H1  UNL     1      -6.531  19.437   6.399  1.00  0.00     0.171 HD
HETATM   29  N2  UNL     1      -7.674  18.073   9.221  1.00  0.00    -0.370 N 
HETATM   30  S1  UNL     1      -7.345  16.761   7.064  1.00  0.00    -0.092 SA
HETATM   31  C11 UNL     1      -8.586  16.987   9.314  1.00  0.00     0.132 C 
ATOM     32  H2  UNL     1      -7.369  18.606  10.035  1.00  0.00     0.161 HD
HETATM   33  C12 UNL     1      -8.103  15.837   8.450  1.00  0.00     0.102 C 
ENDBRANCH  23  24
ENDBRANCH  22  23
ENDBRANCH   3  22
BRANCH   1  34
HETATM   34  C3  UNL     1      -0.864  22.961   8.443  1.00  0.00     0.041 C 
BRANCH  34  35
HETATM   35  C2  UNL     1      -0.955  21.614   7.831  1.00  0.00     0.000 C 
HETATM   36  C1  UNL     1      -0.342  21.510   6.491  1.00  0.00     0.005 C 
ENDBRANCH  34  35
ENDBRANCH   1  34
TORSDOF 9
ENDMDL
MODEL 3
REMARK VINA RESULT: -7.940326308      1.281      1.423
REMARK  9 active torsions:
REMARK  status: ('A' for Active; 'I' for Inactive)
REMARK    1  A    between atoms: C2_2  and  C3_3 
REMARK    2  A    between atoms: C3_3  and  C4_4 
REMARK    3  A    between atoms: C6_6  and  C7_7 
REMARK    4  A    between atoms: C7_7  and  C8_8 
REMARK    5  A    between atoms: C8_8  and  C9_9 
REMARK       I    between atoms: C9_9  and  N1_11 
REMARK    6  A    between atoms: C14_20  and  O2_21 
REMARK    7  A    between atoms: O2_21  and  C15_22 
REMARK    8  A    between atoms: C19_29  and  N4_30 
REMARK    9  A    between atoms: C20_34  and  O3_35 
ROOT
HETATM    1  C4  UNL     1      -2.483  22.806   9.510  1.00  0.00    -0.022 A 
HETATM    2  C5  UNL     1      -3.717  22.198   9.232  1.00  0.00     0.017 A 
HETATM    3  C6  UNL     1      -4.890  22.600   9.828  1.00  0.00    -0.054 A 
HETATM    4  C13 UNL     1      -4.806  23.661  10.744  1.00  0.00     0.046 A 
HETATM    5  C14 UNL     1      -3.626  24.281  11.042  1.00  0.00     0.103 A 
HETATM    6  C20 UNL     1      -2.459  23.834  10.405  1.00  0.00     0.105 A 
ENDROOT
BRANCH   5   7
HETATM    7  O2  UNL     1      -3.537  25.302  11.920  1.00  0.00    -0.339 OA
BRANCH   7   8
HETATM    8  C15 UNL     1      -3.713  26.658  11.762  1.00  0.00     0.187 C 
HETATM    9  C16 UNL     1      -3.961  27.000  10.310  1.00  0.00     0.038 C 
HETATM   10  C17 UNL     1      -4.191  28.453  10.076  1.00  0.00     0.030 C 
HETATM   11  C18 UNL     1      -3.347  29.375  10.900  1.00  0.00     0.235 C 
HETATM   12  N3  UNL     1      -3.026  28.893  12.208  1.00  0.00    -0.044 N 
HETATM   13  C19 UNL     1      -2.550  27.509  12.220  1.00  0.00     0.409 C 
ATOM     14  H32 UNL     1      -2.356  29.509  12.666  1.00  0.00     0.279 HD
ATOM     15  H31 UNL     1      -3.820  29.007  12.839  1.00  0.00     0.279 HD
BRANCH  13  16
HETATM   16  N4  UNL     1      -1.469  27.439  11.258  1.00  0.00    -0.048 N 
ATOM     17  H43 UNL     1      -1.528  26.600  10.681  1.00  0.00     0.276 HD
ATOM     18  H42 UNL     1      -1.569  28.135  10.520  1.00  0.00     0.276 HD
ATOM     19  H41 UNL     1      -0.570  27.512  11.733  1.00  0.00     0.276 HD
ENDBRANCH  13  16
ENDBRANCH   7   8
ENDBRANCH   5   7
BRANCH   6  20
HETATM   20  O3  UNL     1      -1.282  24.472  10.701  1.00  0.00    -0.357 OA
ATOM     21  H3  UNL     1      -1.258  25.416  10.803  1.00  0.00     0.217 HD
ENDBRANCH   6  20
BRANCH   3  22
HETATM   22  C7  UNL     1      -6.184  21.972   9.530  1.00  0.00     0.048 C 
BRANCH  22  23
HETATM   23  C8  UNL     1      -6.194  20.716   8.748  1.00  0.00     0.108 C 
BRANCH  23  24
HETATM   24  C9  UNL     1      -6.734  19.523   9.385  1.00  0.00     0.223 C 
HETATM   25  O1  UNL     1      -6.180  18.952  10.334  1.00  0.00    -0.273 OA
HETATM   26  N1  UNL     1      -7.973  18.954   8.906  1.00  0.00    -0.308 N 
HETATM   27  C10 UNL     1      -8.012  18.173   7.897  1.00  0.00     0.142 C 
ATOM     28  H1  UNL     1      -8.842  19.183   9.388  1.00  0.00     0.171 HD
HETATM   29  N2  UNL     1      -6.986  17.688   7.054  1.00  0.00    -0.370 N 
HETATM   30  S1  UNL     1      -9.512  17.416   7.221  1.00  0.00    -0.092 SA
HETATM   31  C11 UNL     1      -7.256  16.430   6.451  1.00  0.00     0.132 C 
ATOM     32  H2  UNL     1      -6.120  18.202   6.891  1.00  0.00     0.161 HD
HETATM   33  C12 UNL     1      -8.684  16.402   5.942  1.00  0.00     0.102 C 
ENDBRANCH  23  24
ENDBRANCH  22  23
ENDBRANCH   3  22
BRANCH   1  34
HETATM   34  C3  UNL     1      -1.317  22.185   8.851  1.00  0.00     0.041 C 
BRANCH  34  35
HETATM   35  C2  UNL     1      -1.192  22.407   7.392  1.00  0.00     0.000 C 
HETATM   36  C1  UNL     1      -0.285  21.461   6.707  1.00  0.00     0.005 C 
ENDBRANCH  34  35
ENDBRANCH   1  34
TORSDOF 9
ENDMDL
MODEL 4
REMARK VINA RESULT: -7.874866758      2.154      2.487
REMARK  9 active torsions:
REMARK  status: ('A' for Active; 'I' for Inactive)
REMARK    1  A    between atoms: C2_2  and  C3_3 
REMARK    2  A    between atoms: C3_3  and  C4_4 
REMARK    3  A    between atoms: C6_6  and  C7_7 
REMARK    4  A    between atoms: C7_7  and  C8_8 
REMARK    5  A    between atoms: C8_8  and  C9_9 
REMARK       I    between atoms: C9_9  and  N1_11 
REMARK    6  A    between atoms: C14_20  and  O2_21 
REMARK    7  A    between atoms: O2_21  and  C15_22 
REMARK    8  A    between atoms: C19_29  and  N4_30 
REMARK    9  A    between atoms: C20_34  and  O3_35 
ROOT
HETATM    1  C4  UNL     1      -2.027  23.653   8.812  1.00  0.00    -0.022 A 
HETATM    2  C5  UNL     1      -3.053  22.747   9.119  1.00  0.00     0.017 A 
HETATM    3  C6  UNL     1      -4.276  23.152   9.601  1.00  0.00    -0.054 A 
HETATM    4  C13 UNL     1      -4.464  24.533   9.780  1.00  0.00     0.046 A 
HETATM    5  C14 UNL     1      -3.491  25.447   9.493  1.00  0.00     0.103 A 
HETATM    6  C20 UNL     1      -2.262  24.982   9.002  1.00  0.00     0.105 A 
ENDROOT
BRANCH   5   7
HETATM    7  O2  UNL     1      -3.664  26.775   9.661  1.00  0.00    -0.339 OA
BRANCH   7   8
HETATM    8  C15 UNL     1      -3.581  27.570  10.782  1.00  0.00     0.187 C 
HETATM    9  C16 UNL     1      -3.341  29.014  10.400  1.00  0.00     0.038 C 
HETATM   10  C17 UNL     1      -3.273  29.932  11.570  1.00  0.00     0.030 C 
HETATM   11  C18 UNL     1      -2.578  29.380  12.777  1.00  0.00     0.235 C 
HETATM   12  N3  UNL     1      -2.730  27.971  12.968  1.00  0.00    -0.044 N 
HETATM   13  C19 UNL     1      -2.489  27.187  11.756  1.00  0.00     0.409 C 
ATOM     14  H32 UNL     1      -2.138  27.645  13.732  1.00  0.00     0.279 HD
ATOM     15  H31 UNL     1      -3.646  27.756  13.361  1.00  0.00     0.279 HD
BRANCH  13  16
HETATM   16  N4  UNL     1      -1.198  27.603  11.248  1.00  0.00    -0.048 N 
ATOM     17  H43 UNL     1      -1.176  27.615  10.228  1.00  0.00     0.276 HD
ATOM     18  H42 UNL     1      -1.024  28.594  11.413  1.00  0.00     0.276 HD
ATOM     19  H41 UNL     1      -0.461  27.016  11.638  1.00  0.00     0.276 HD
ENDBRANCH  13  16
ENDBRANCH   7   8
ENDBRANCH   5   7
BRANCH   6  20
HETATM   20  O3  UNL     1      -1.298  25.910   8.704  1.00  0.00    -0.357 OA
ATOM     21  H3  UNL     1      -0.665  26.176   9.361  1.00  0.00     0.217 HD
ENDBRANCH   6  20
BRANCH   3  22
HETATM   22  C7  UNL     1      -5.356  22.206   9.913  1.00  0.00     0.048 C 
BRANCH  22  23
HETATM   23  C8  UNL     1      -5.424  20.939   9.152  1.00  0.00     0.108 C 
BRANCH  23  24
HETATM   24  C9  UNL     1      -6.676  20.613   8.484  1.00  0.00     0.223 C 
HETATM   25  O1  UNL     1      -7.116  21.252   7.519  1.00  0.00    -0.273 OA
HETATM   26  N1  UNL     1      -7.465  19.495   8.948  1.00  0.00    -0.308 N 
HETATM   27  C10 UNL     1      -8.268  19.598   9.935  1.00  0.00     0.142 C 
ATOM     28  H1  UNL     1      -7.379  18.596   8.472  1.00  0.00     0.171 HD
HETATM   29  N2  UNL     1      -8.587  20.697  10.765  1.00  0.00    -0.370 N 
HETATM   30  S1  UNL     1      -9.293  18.257  10.591  1.00  0.00    -0.092 SA
HETATM   31  C11 UNL     1      -9.889  20.654  11.334  1.00  0.00     0.132 C 
ATOM     32  H2  UNL     1      -7.935  21.461  10.941  1.00  0.00     0.161 HD
HETATM   33  C12 UNL     1     -10.180  19.255  11.843  1.00  0.00     0.102 C 
ENDBRANCH  23  24
ENDBRANCH  22  23
ENDBRANCH   3  22
BRANCH   1  34
HETATM   34  C3  UNL     1      -0.751  23.036   8.396  1.00  0.00     0.041 C 
BRANCH  34  35
HETATM   35  C2  UNL     1      -0.832  21.657   7.862  1.00  0.00     0.000 C 
HETATM   36  C1  UNL     1      -0.303  21.500   6.492  1.00  0.00     0.005 C 
ENDBRANCH  34  35
ENDBRANCH   1  34
TORSDOF 9
ENDMDL
MODEL 5
REMARK VINA RESULT: -7.799443863      2.777      3.737
REMARK  9 active torsions:
REMARK  status: ('A' for Active; 'I' for Inactive)
REMARK    1  A    between atoms: C2_2  and  C3_3 
REMARK    2  A    between atoms: C3_3  and  C4_4 
REMARK    3  A    between atoms: C6_6  and  C7_7 
REMARK    4  A    between atoms: C7_7  and  C8_8 
REMARK    5  A    between atoms: C8_8  and  C9_9 
REMARK       I    between atoms: C9_9  and  N1_11 
REMARK    6  A    between atoms: C14_20  and  O2_21 
REMARK    7  A    between atoms: O2_21  and  C15_22 
REMARK    8  A    between atoms: C19_29  and  N4_30 
REMARK    9  A    between atoms: C20_34  and  O3_35 
ROOT
HETATM    1  C4  UNL     1      -2.149  22.980   9.274  1.00  0.00    -0.022 A 
HETATM    2  C5  UNL     1      -3.207  22.184   8.809  1.00  0.00     0.017 A 
HETATM    3  C6  UNL     1      -4.479  22.271   9.325  1.00  0.00    -0.054 A 
HETATM    4  C13 UNL     1      -4.685  23.202  10.357  1.00  0.00     0.046 A 
HETATM    5  C14 UNL     1      -3.683  23.995  10.838  1.00  0.00     0.103 A 
HETATM    6  C20 UNL     1      -2.404  23.869  10.275  1.00  0.00     0.105 A 
ENDROOT
BRANCH   5   7
HETATM    7  O2  UNL     1      -3.872  24.894  11.827  1.00  0.00    -0.339 OA
BRANCH   7   8
HETATM    8  C15 UNL     1      -4.298  26.202  11.800  1.00  0.00     0.187 C 
HETATM    9  C16 UNL     1      -4.469  26.682  10.377  1.00  0.00     0.038 C 
HETATM   10  C17 UNL     1      -4.959  28.085  10.281  1.00  0.00     0.030 C 
HETATM   11  C18 UNL     1      -4.398  29.030  11.297  1.00  0.00     0.235 C 
HETATM   12  N3  UNL     1      -4.115  28.446  12.572  1.00  0.00    -0.044 N 
HETATM   13  C19 UNL     1      -3.377  27.186  12.487  1.00  0.00     0.409 C 
ATOM     14  H32 UNL     1      -3.628  29.111  13.173  1.00  0.00     0.279 HD
ATOM     15  H31 UNL     1      -4.972  28.327  13.112  1.00  0.00     0.279 HD
BRANCH  13  16
HETATM   16  N4  UNL     1      -2.216  27.445  11.660  1.00  0.00    -0.048 N 
ATOM     17  H43 UNL     1      -2.442  28.042  10.864  1.00  0.00     0.276 HD
ATOM     18  H42 UNL     1      -1.547  28.059  12.123  1.00  0.00     0.276 HD
ATOM     19  H41 UNL     1      -1.789  26.566  11.368  1.00  0.00     0.276 HD
ENDBRANCH  13  16
ENDBRANCH   7   8
ENDBRANCH   5   7
BRANCH   6  20
HETATM   20  O3  UNL     1      -1.409  24.681  10.756  1.00  0.00    -0.357 OA
ATOM     21  H3  UNL     1      -0.592  24.776  10.281  1.00  0.00     0.217 HD
ENDBRANCH   6  20
BRANCH   3  22
HETATM   22  C7  UNL     1      -5.590  21.446   8.831  1.00  0.00     0.048 C 
BRANCH  22  23
HETATM   23  C8  UNL     1      -6.248  20.514   9.772  1.00  0.00     0.108 C 
BRANCH  23  24
HETATM   24  C9  UNL     1      -7.703  20.528   9.838  1.00  0.00     0.223 C 
HETATM   25  O1  UNL     1      -8.424  19.953   9.011  1.00  0.00    -0.273 OA
HETATM   26  N1  UNL     1      -8.364  21.238  10.908  1.00  0.00    -0.308 N 
HETATM   27  C10 UNL     1      -8.569  22.497  10.858  1.00  0.00     0.142 C 
ATOM     28  H1  UNL     1      -8.677  20.718  11.729  1.00  0.00     0.171 HD
HETATM   29  N2  UNL     1      -8.252  23.453   9.866  1.00  0.00    -0.370 N 
HETATM   30  S1  UNL     1      -9.383  23.474  12.148  1.00  0.00    -0.092 SA
HETATM   31  C11 UNL     1      -9.112  24.584   9.835  1.00  0.00     0.132 C 
ATOM     32  H2  UNL     1      -7.469  23.340   9.223  1.00  0.00     0.161 HD
HETATM   33  C12 UNL     1      -9.373  25.068  11.248  1.00  0.00     0.102 C 
ENDBRANCH  23  24
ENDBRANCH  22  23
ENDBRANCH   3  22
BRANCH   1  34
HETATM   34  C3  UNL     1      -0.833  22.687   8.672  1.00  0.00     0.041 C 
BRANCH  34  35
HETATM   35  C2  UNL     1      -0.771  21.514   7.769  1.00  0.00     0.000 C 
HETATM   36  C1  UNL     1      -0.672  21.852   6.334  1.00  0.00     0.005 C 
ENDBRANCH  34  35
ENDBRANCH   1  34
TORSDOF 9
ENDMDL
