MODEL 1
REMARK VINA RESULT: -9.196121078      0.000      0.000
REMARK  14 active torsions:
REMARK  status: ('A' for Active; 'I' for Inactive)
REMARK    1  A    between atoms: C2_2  and  C3_3 
REMARK    2  A    between atoms: C3_3  and  C4_4 
REMARK    3  A    between atoms: C4_4  and  C5_5 
REMARK    4  A    between atoms: C5_5  and  C6_6 
REMARK    5  A    between atoms: C6_6  and  C7_7 
REMARK    6  A    between atoms: C7_7  and  C8_8 
REMARK    7  A    between atoms: C8_8  and  C9_9 
REMARK    8  A    between atoms: C9_9  and  S1_10 
REMARK    9  A    between atoms: S1_10  and  C10_11 
REMARK   10  A    between atoms: C10_11  and  C11_12 
REMARK   11  A    between atoms: C10_11  and  N4_32 
REMARK   12  A    between atoms: C12_17  and  C13_18 
REMARK   13  A    between atoms: C17_22  and  O1_23 
REMARK   14  A    between atoms: O1_23  and  C18_24 
ROOT
HETATM    1  N4  UNL     1      60.856  84.340  63.307  1.00  0.00    -0.345 N 
HETATM    2  C23 UNL     1      59.536  84.399  63.141  1.00  0.00     0.092 A 
HETATM    3  C24 UNL     1      58.730  83.262  63.304  1.00  0.00     0.019 A 
HETATM    4  C25 UNL     1      59.318  82.082  63.638  1.00  0.00     0.025 A 
HETATM    5  C26 UNL     1      60.685  82.024  63.810  1.00  0.00     0.060 A 
HETATM    6  C27 UNL     1      61.356  80.802  64.164  1.00  0.00     0.101 C 
HETATM    7  N5  UNL     1      61.882  79.813  64.459  1.00  0.00    -0.191 NA
HETATM    8  C28 UNL     1      61.448  83.186  63.636  1.00  0.00     0.114 A 
ENDROOT
BRANCH   1   9
HETATM    9  C10 UNL     1      61.666  85.513  63.135  1.00  0.00     0.209 C 
BRANCH   9  10
HETATM   10  S1  UNL     1      63.211  85.329  64.016  1.00  0.00    -0.137 SA
BRANCH  10  11
HETATM   11  C9  UNL     1      64.532  84.669  62.990  1.00  0.00     0.076 C 
BRANCH  11  12
HETATM   12  C8  UNL     1      65.634  84.178  63.923  1.00  0.00     0.010 C 
BRANCH  12  13
HETATM   13  C7  UNL     1      65.351  82.771  64.344  1.00  0.00     0.001 C 
BRANCH  13  14
HETATM   14  C6  UNL     1      64.882  81.881  63.234  1.00  0.00     0.000 C 
BRANCH  14  15
HETATM   15  C5  UNL     1      65.887  80.793  62.914  1.00  0.00     0.000 C 
BRANCH  15  16
HETATM   16  C4  UNL     1      65.142  79.570  62.415  1.00  0.00     0.000 C 
BRANCH  16  17
HETATM   17  C3  UNL     1      65.432  78.433  63.390  1.00  0.00    -0.000 C 
BRANCH  17  18
HETATM   18  C2  UNL     1      64.673  77.178  62.948  1.00  0.00    -0.005 C 
HETATM   19  C1  UNL     1      65.488  75.944  63.321  1.00  0.00     0.005 C 
ENDBRANCH  17  18
ENDBRANCH  16  17
ENDBRANCH  15  16
ENDBRANCH  14  15
ENDBRANCH  13  14
ENDBRANCH  12  13
ENDBRANCH  11  12
ENDBRANCH  10  11
ENDBRANCH   9  10
BRANCH   9  20
HETATM   20  C11 UNL     1      61.977  85.645  61.673  1.00  0.00     0.101 A 
HETATM   21  N1  UNL     1      62.395  86.708  60.993  1.00  0.00    -0.294 N 
HETATM   22  N2  UNL     1      62.600  86.621  59.751  1.00  0.00    -0.292 N 
ATOM     23  H1  UNL     1      62.551  87.593  61.475  1.00  0.00     0.187 HD
HETATM   24  C12 UNL     1      62.400  85.474  59.119  1.00  0.00     0.101 A 
ATOM     25  H2  UNL     1      62.920  87.437  59.230  1.00  0.00     0.187 HD
HETATM   26  S2  UNL     1      61.889  84.480  60.409  1.00  0.00    -0.052 SA
BRANCH  24  27
HETATM   27  C13 UNL     1      62.574  85.177  57.703  1.00  0.00     0.002 A 
HETATM   28  C14 UNL     1      63.709  84.547  57.249  1.00  0.00     0.014 A 
HETATM   29  C15 UNL     1      63.931  84.238  55.937  1.00  0.00     0.004 A 
HETATM   30  C16 UNL     1      62.929  84.593  55.016  1.00  0.00     0.037 A 
HETATM   31  C17 UNL     1      61.777  85.222  55.411  1.00  0.00     0.070 A 
HETATM   32  C22 UNL     1      61.610  85.513  56.782  1.00  0.00     0.051 A 
BRANCH  31  33
HETATM   33  O1  UNL     1      60.781  85.583  54.556  1.00  0.00    -0.340 OA
BRANCH  33  34
HETATM   34  C18 UNL     1      59.554  84.940  54.434  1.00  0.00     0.170 C 
HETATM   35  C19 UNL     1      59.390  84.527  53.024  1.00  0.00     0.023 C 
HETATM   36  C20 UNL     1      58.676  85.418  52.389  1.00  0.00     0.081 C 
HETATM   37  N3  UNL     1      58.316  86.463  53.280  1.00  0.00    -0.396 N 
HETATM   38  C21 UNL     1      58.482  86.003  54.656  1.00  0.00     0.155 C 
ATOM     39  H3  UNL     1      57.992  87.389  53.003  1.00  0.00     0.158 HD
ENDBRANCH  33  34
ENDBRANCH  31  33
ENDBRANCH  24  27
ENDBRANCH   9  20
ENDBRANCH   1   9
TORSDOF 14
ENDMDL
MODEL 2
REMARK VINA RESULT: -9.171008828      3.044      5.080
REMARK  14 active torsions:
REMARK  status: ('A' for Active; 'I' for Inactive)
REMARK    1  A    between atoms: C2_2  and  C3_3 
REMARK    2  A    between atoms: C3_3  and  C4_4 
REMARK    3  A    between atoms: C4_4  and  C5_5 
REMARK    4  A    between atoms: C5_5  and  C6_6 
REMARK    5  A    between atoms: C6_6  and  C7_7 
REMARK    6  A    between atoms: C7_7  and  C8_8 
REMARK    7  A    between atoms: C8_8  and  C9_9 
REMARK    8  A    between atoms: C9_9  and  S1_10 
REMARK    9  A    between atoms: S1_10  and  C10_11 
REMARK   10  A    between atoms: C10_11  and  C11_12 
REMARK   11  A    between atoms: C10_11  and  N4_32 
REMARK   12  A    between atoms: C12_17  and  C13_18 
REMARK   13  A    between atoms: C17_22  and  O1_23 
REMARK   14  A    between atoms: O1_23  and  C18_24 
ROOT
HETATM    1  N4  UNL     1      59.055  80.442  63.783  1.00  0.00    -0.345 N 
HETATM    2  C23 UNL     1      60.170  79.763  63.516  1.00  0.00     0.092 A 
HETATM    3  C24 UNL     1      60.133  78.551  62.808  1.00  0.00     0.019 A 
HETATM    4  C25 UNL     1      58.931  78.070  62.391  1.00  0.00     0.025 A 
HETATM    5  C26 UNL     1      57.779  78.775  62.667  1.00  0.00     0.060 A 
HETATM    6  C27 UNL     1      56.483  78.311  62.248  1.00  0.00     0.101 C 
HETATM    7  N5  UNL     1      55.448  77.931  61.895  1.00  0.00    -0.191 NA
HETATM    8  C28 UNL     1      57.866  79.980  63.377  1.00  0.00     0.114 A 
ENDROOT
BRANCH   1   9
HETATM    9  C10 UNL     1      59.111  81.679  64.509  1.00  0.00     0.209 C 
BRANCH   9  10
HETATM   10  S1  UNL     1      60.270  81.546  65.863  1.00  0.00    -0.137 SA
BRANCH  10  11
HETATM   11  C9  UNL     1      60.551  83.110  66.705  1.00  0.00     0.076 C 
BRANCH  11  12
HETATM   12  C8  UNL     1      62.051  83.382  66.676  1.00  0.00     0.010 C 
BRANCH  12  13
HETATM   13  C7  UNL     1      62.782  82.146  66.257  1.00  0.00     0.001 C 
BRANCH  13  14
HETATM   14  C6  UNL     1      64.167  82.034  66.816  1.00  0.00     0.000 C 
BRANCH  14  15
HETATM   15  C5  UNL     1      65.218  81.972  65.726  1.00  0.00     0.000 C 
BRANCH  15  16
HETATM   16  C4  UNL     1      65.492  83.379  65.230  1.00  0.00     0.000 C 
BRANCH  16  17
HETATM   17  C3  UNL     1      65.321  83.367  63.714  1.00  0.00    -0.000 C 
BRANCH  17  18
HETATM   18  C2  UNL     1      64.793  84.728  63.252  1.00  0.00    -0.005 C 
HETATM   19  C1  UNL     1      63.971  85.352  64.374  1.00  0.00     0.005 C 
ENDBRANCH  17  18
ENDBRANCH  16  17
ENDBRANCH  15  16
ENDBRANCH  14  15
ENDBRANCH  13  14
ENDBRANCH  12  13
ENDBRANCH  11  12
ENDBRANCH  10  11
ENDBRANCH   9  10
BRANCH   9  20
HETATM   20  C11 UNL     1      59.610  82.738  63.571  1.00  0.00     0.101 A 
HETATM   21  N1  UNL     1      58.953  83.758  63.026  1.00  0.00    -0.294 N 
HETATM   22  N2  UNL     1      59.553  84.550  62.248  1.00  0.00    -0.292 N 
ATOM     23  H1  UNL     1      57.966  83.901  63.238  1.00  0.00     0.187 HD
HETATM   24  C12 UNL     1      60.835  84.371  61.970  1.00  0.00     0.101 A 
ATOM     25  H2  UNL     1      59.048  85.332  61.831  1.00  0.00     0.187 HD
HETATM   26  S2  UNL     1      61.173  82.977  62.894  1.00  0.00    -0.052 SA
BRANCH  24  27
HETATM   27  C13 UNL     1      61.693  85.165  61.100  1.00  0.00     0.002 A 
HETATM   28  C14 UNL     1      61.987  86.474  61.405  1.00  0.00     0.014 A 
HETATM   29  C15 UNL     1      62.786  87.270  60.634  1.00  0.00     0.004 A 
HETATM   30  C16 UNL     1      63.328  86.699  59.469  1.00  0.00     0.037 A 
HETATM   31  C17 UNL     1      63.070  85.400  59.116  1.00  0.00     0.070 A 
HETATM   32  C22 UNL     1      62.236  84.631  59.956  1.00  0.00     0.051 A 
BRANCH  31  33
HETATM   33  O1  UNL     1      63.574  84.806  57.999  1.00  0.00    -0.340 OA
BRANCH  33  34
HETATM   34  C18 UNL     1      63.933  85.467  56.829  1.00  0.00     0.170 C 
HETATM   35  C19 UNL     1      62.762  85.473  55.927  1.00  0.00     0.023 C 
HETATM   36  C20 UNL     1      62.863  84.487  55.075  1.00  0.00     0.081 C 
HETATM   37  N3  UNL     1      64.058  83.764  55.323  1.00  0.00    -0.396 N 
HETATM   38  C21 UNL     1      64.960  84.584  56.128  1.00  0.00     0.155 C 
ATOM     39  H3  UNL     1      64.257  82.821  54.991  1.00  0.00     0.158 HD
ENDBRANCH  33  34
ENDBRANCH  31  33
ENDBRANCH  24  27
ENDBRANCH   9  20
ENDBRANCH   1   9
TORSDOF 14
ENDMDL
MODEL 3
REMARK VINA RESULT: -9.064200289      2.471      4.207
REMARK  14 active torsions:
REMARK  status: ('A' for Active; 'I' for Inactive)
REMARK    1  A    between atoms: C2_2  and  C3_3 
REMARK    2  A    between atoms: C3_3  and  C4_4 
REMARK    3  A    between atoms: C4_4  and  C5_5 
REMARK    4  A    between atoms: C5_5  and  C6_6 
REMARK    5  A    between atoms: C6_6  and  C7_7 
REMARK    6  A    between atoms: C7_7  and  C8_8 
REMARK    7  A    between atoms: C8_8  and  C9_9 
REMARK    8  A    between atoms: C9_9  and  S1_10 
REMARK    9  A    between atoms: S1_10  and  C10_11 
REMARK   10  A    between atoms: C10_11  and  C11_12 
REMARK   11  A    between atoms: C10_11  and  N4_32 
REMARK   12  A    between atoms: C12_17  and  C13_18 
REMARK   13  A    between atoms: C17_22  and  O1_23 
REMARK   14  A    between atoms: O1_23  and  C18_24 
ROOT
HETATM    1  N4  UNL     1      59.229  80.683  63.814  1.00  0.00    -0.345 N 
HETATM    2  C23 UNL     1      60.365  80.027  63.583  1.00  0.00     0.092 A 
HETATM    3  C24 UNL     1      60.372  78.805  62.891  1.00  0.00     0.019 A 
HETATM    4  C25 UNL     1      59.193  78.291  62.454  1.00  0.00     0.025 A 
HETATM    5  C26 UNL     1      58.018  78.972  62.693  1.00  0.00     0.060 A 
HETATM    6  C27 UNL     1      56.744  78.472  62.252  1.00  0.00     0.101 C 
HETATM    7  N5  UNL     1      55.726  78.063  61.880  1.00  0.00    -0.191 NA
HETATM    8  C28 UNL     1      58.061  80.189  63.388  1.00  0.00     0.114 A 
ENDROOT
BRANCH   1   9
HETATM    9  C10 UNL     1      59.239  81.931  64.524  1.00  0.00     0.209 C 
BRANCH   9  10
HETATM   10  S1  UNL     1      60.418  81.867  65.866  1.00  0.00    -0.137 SA
BRANCH  10  11
HETATM   11  C9  UNL     1      60.989  83.492  66.380  1.00  0.00     0.076 C 
BRANCH  11  12
HETATM   12  C8  UNL     1      62.415  83.659  65.866  1.00  0.00     0.010 C 
BRANCH  12  13
HETATM   13  C7  UNL     1      62.542  84.961  65.141  1.00  0.00     0.001 C 
BRANCH  13  14
HETATM   14  C6  UNL     1      63.792  85.089  64.325  1.00  0.00     0.000 C 
BRANCH  14  15
HETATM   15  C5  UNL     1      64.912  84.219  64.859  1.00  0.00     0.000 C 
BRANCH  15  16
HETATM   16  C4  UNL     1      65.599  83.535  63.693  1.00  0.00     0.000 C 
BRANCH  16  17
HETATM   17  C3  UNL     1      64.703  82.382  63.251  1.00  0.00    -0.000 C 
BRANCH  17  18
HETATM   18  C2  UNL     1      65.352  81.053  63.647  1.00  0.00    -0.005 C 
HETATM   19  C1  UNL     1      66.159  80.520  62.467  1.00  0.00     0.005 C 
ENDBRANCH  17  18
ENDBRANCH  16  17
ENDBRANCH  15  16
ENDBRANCH  14  15
ENDBRANCH  13  14
ENDBRANCH  12  13
ENDBRANCH  11  12
ENDBRANCH  10  11
ENDBRANCH   9  10
BRANCH   9  20
HETATM   20  C11 UNL     1      59.682  82.998  63.567  1.00  0.00     0.101 A 
HETATM   21  N1  UNL     1      59.099  84.156  63.267  1.00  0.00    -0.294 N 
HETATM   22  N2  UNL     1      59.630  84.928  62.422  1.00  0.00    -0.292 N 
ATOM     23  H1  UNL     1      58.224  84.418  63.719  1.00  0.00     0.187 HD
HETATM   24  C12 UNL     1      60.767  84.593  61.831  1.00  0.00     0.101 A 
ATOM     25  H2  UNL     1      59.182  85.815  62.192  1.00  0.00     0.187 HD
HETATM   26  S2  UNL     1      61.068  83.075  62.550  1.00  0.00    -0.052 SA
BRANCH  24  27
HETATM   27  C13 UNL     1      61.525  85.339  60.835  1.00  0.00     0.002 A 
HETATM   28  C14 UNL     1      62.228  86.469  61.186  1.00  0.00     0.014 A 
HETATM   29  C15 UNL     1      62.960  87.210  60.303  1.00  0.00     0.004 A 
HETATM   30  C16 UNL     1      62.983  86.776  58.965  1.00  0.00     0.037 A 
HETATM   31  C17 UNL     1      62.303  85.658  58.559  1.00  0.00     0.070 A 
HETATM   32  C22 UNL     1      61.565  84.936  59.522  1.00  0.00     0.051 A 
BRANCH  31  33
HETATM   33  O1  UNL     1      62.297  85.200  57.276  1.00  0.00    -0.340 OA
BRANCH  33  34
HETATM   34  C18 UNL     1      62.126  85.987  56.143  1.00  0.00     0.170 C 
HETATM   35  C19 UNL     1      60.736  86.489  56.136  1.00  0.00     0.023 C 
HETATM   36  C20 UNL     1      59.999  85.721  55.379  1.00  0.00     0.081 C 
HETATM   37  N3  UNL     1      60.797  84.682  54.835  1.00  0.00    -0.396 N 
HETATM   38  C21 UNL     1      62.206  85.048  54.943  1.00  0.00     0.155 C 
ATOM     39  H3  UNL     1      60.442  83.815  54.431  1.00  0.00     0.158 HD
ENDBRANCH  33  34
ENDBRANCH  31  33
ENDBRANCH  24  27
ENDBRANCH   9  20
ENDBRANCH   1   9
TORSDOF 14
ENDMDL
MODEL 4
REMARK VINA RESULT: -9.015353902      1.442      1.803
REMARK  14 active torsions:
REMARK  status: ('A' for Active; 'I' for Inactive)
REMARK    1  A    between atoms: C2_2  and  C3_3 
REMARK    2  A    between atoms: C3_3  and  C4_4 
REMARK    3  A    between atoms: C4_4  and  C5_5 
REMARK    4  A    between atoms: C5_5  and  C6_6 
REMARK    5  A    between atoms: C6_6  and  C7_7 
REMARK    6  A    between atoms: C7_7  and  C8_8 
REMARK    7  A    between atoms: C8_8  and  C9_9 
REMARK    8  A    between atoms: C9_9  and  S1_10 
REMARK    9  A    between atoms: S1_10  and  C10_11 
REMARK   10  A    between atoms: C10_11  and  C11_12 
REMARK   11  A    between atoms: C10_11  and  N4_32 
REMARK   12  A    between atoms: C12_17  and  C13_18 
REMARK   13  A    between atoms: C17_22  and  O1_23 
REMARK   14  A    between atoms: O1_23  and  C18_24 
ROOT
HETATM    1  N4  UNL     1      60.449  82.752  63.927  1.00  0.00    -0.345 N 
HETATM    2  C23 UNL     1      59.127  82.874  64.032  1.00  0.00     0.092 A 
HETATM    3  C24 UNL     1      58.270  81.805  63.729  1.00  0.00     0.019 A 
HETATM    4  C25 UNL     1      58.809  80.626  63.320  1.00  0.00     0.025 A 
HETATM    5  C26 UNL     1      60.178  80.501  63.212  1.00  0.00     0.060 A 
HETATM    6  C27 UNL     1      60.800  79.277  62.784  1.00  0.00     0.101 C 
HETATM    7  N5  UNL     1      61.287  78.281  62.449  1.00  0.00    -0.191 NA
HETATM    8  C28 UNL     1      60.993  81.597  63.526  1.00  0.00     0.114 A 
ENDROOT
BRANCH   1   9
HETATM    9  C10 UNL     1      61.311  83.856  64.240  1.00  0.00     0.209 C 
BRANCH   9  10
HETATM   10  S1  UNL     1      62.923  83.259  64.731  1.00  0.00    -0.137 SA
BRANCH  10  11
HETATM   11  C9  UNL     1      64.256  84.377  64.279  1.00  0.00     0.076 C 
BRANCH  11  12
HETATM   12  C8  UNL     1      65.367  83.537  63.660  1.00  0.00     0.010 C 
BRANCH  12  13
HETATM   13  C7  UNL     1      64.836  82.189  63.287  1.00  0.00     0.001 C 
BRANCH  13  14
HETATM   14  C6  UNL     1      65.893  81.195  62.917  1.00  0.00     0.000 C 
BRANCH  14  15
HETATM   15  C5  UNL     1      65.325  79.803  62.729  1.00  0.00     0.000 C 
BRANCH  15  16
HETATM   16  C4  UNL     1      64.359  79.511  63.861  1.00  0.00     0.000 C 
BRANCH  16  17
HETATM   17  C3  UNL     1      64.477  78.025  64.186  1.00  0.00    -0.000 C 
BRANCH  17  18
HETATM   18  C2  UNL     1      64.776  77.246  62.901  1.00  0.00    -0.005 C 
HETATM   19  C1  UNL     1      65.487  75.946  63.260  1.00  0.00     0.005 C 
ENDBRANCH  17  18
ENDBRANCH  16  17
ENDBRANCH  15  16
ENDBRANCH  14  15
ENDBRANCH  13  14
ENDBRANCH  12  13
ENDBRANCH  11  12
ENDBRANCH  10  11
ENDBRANCH   9  10
BRANCH   9  20
HETATM   20  C11 UNL     1      61.478  84.674  62.993  1.00  0.00     0.101 A 
HETATM   21  N1  UNL     1      61.214  85.961  62.789  1.00  0.00    -0.294 N 
HETATM   22  N2  UNL     1      61.419  86.474  61.654  1.00  0.00    -0.292 N 
ATOM     23  H1  UNL     1      60.845  86.533  63.548  1.00  0.00     0.187 HD
HETATM   24  C12 UNL     1      61.899  85.737  60.664  1.00  0.00     0.101 A 
ATOM     25  H2  UNL     1      61.216  87.461  61.498  1.00  0.00     0.187 HD
HETATM   26  S2  UNL     1      62.054  84.223  61.436  1.00  0.00    -0.052 SA
BRANCH  24  27
HETATM   27  C13 UNL     1      62.196  86.140  59.296  1.00  0.00     0.002 A 
HETATM   28  C14 UNL     1      63.458  86.556  58.942  1.00  0.00     0.014 A 
HETATM   29  C15 UNL     1      63.802  86.943  57.678  1.00  0.00     0.004 A 
HETATM   30  C16 UNL     1      62.793  86.905  56.699  1.00  0.00     0.037 A 
HETATM   31  C17 UNL     1      61.518  86.499  56.993  1.00  0.00     0.070 A 
HETATM   32  C22 UNL     1      61.229  86.112  58.320  1.00  0.00     0.051 A 
BRANCH  31  33
HETATM   33  O1  UNL     1      60.511  86.445  56.078  1.00  0.00    -0.340 OA
BRANCH  33  34
HETATM   34  C18 UNL     1      60.068  85.294  55.437  1.00  0.00     0.170 C 
HETATM   35  C19 UNL     1      61.030  84.966  54.363  1.00  0.00     0.023 C 
HETATM   36  C20 UNL     1      60.592  85.438  53.227  1.00  0.00     0.081 C 
HETATM   37  N3  UNL     1      59.351  86.095  53.430  1.00  0.00    -0.396 N 
HETATM   38  C21 UNL     1      58.782  85.669  54.706  1.00  0.00     0.155 C 
ATOM     39  H3  UNL     1      58.923  86.761  52.787  1.00  0.00     0.158 HD
ENDBRANCH  33  34
ENDBRANCH  31  33
ENDBRANCH  24  27
ENDBRANCH   9  20
ENDBRANCH   1   9
TORSDOF 14
ENDMDL
MODEL 5
REMARK VINA RESULT: -9.010170535      2.165      3.397
REMARK  14 active torsions:
REMARK  status: ('A' for Active; 'I' for Inactive)
REMARK    1  A    between atoms: C2_2  and  C3_3 
REMARK    2  A    between atoms: C3_3  and  C4_4 
REMARK    3  A    between atoms: C4_4  and  C5_5 
REMARK    4  A    between atoms: C5_5  and  C6_6 
REMARK    5  A    between atoms: C6_6  and  C7_7 
REMARK    6  A    between atoms: C7_7  and  C8_8 
REMARK    7  A    between atoms: C8_8  and  C9_9 
REMARK    8  A    between atoms: C9_9  and  S1_10 
REMARK    9  A    between atoms: S1_10  and  C10_11 
REMARK   10  A    between atoms: C10_11  and  C11_12 
REMARK   11  A    between atoms: C10_11  and  N4_32 
REMARK   12  A    between atoms: C12_17  and  C13_18 
REMARK   13  A    between atoms: C17_22  and  O1_23 
REMARK   14  A    between atoms: O1_23  and  C18_24 
ROOT
HETATM    1  N4  UNL     1      59.749  82.366  63.894  1.00  0.00    -0.345 N 
HETATM    2  C23 UNL     1      58.462  82.029  63.942  1.00  0.00     0.092 A 
HETATM    3  C24 UNL     1      58.042  80.717  63.671  1.00  0.00     0.019 A 
HETATM    4  C25 UNL     1      58.975  79.781  63.355  1.00  0.00     0.025 A 
HETATM    5  C26 UNL     1      60.307  80.131  63.307  1.00  0.00     0.060 A 
HETATM    6  C27 UNL     1      61.334  79.179  62.978  1.00  0.00     0.101 C 
HETATM    7  N5  UNL     1      62.151  78.400  62.723  1.00  0.00    -0.191 NA
HETATM    8  C28 UNL     1      60.678  81.454  63.585  1.00  0.00     0.114 A 
ENDROOT
BRANCH   1   9
HETATM    9  C10 UNL     1      60.162  83.713  64.173  1.00  0.00     0.209 C 
BRANCH   9  10
HETATM   10  S1  UNL     1      61.712  83.710  65.064  1.00  0.00    -0.137 SA
BRANCH  10  11
HETATM   11  C9  UNL     1      61.515  83.366  66.817  1.00  0.00     0.076 C 
BRANCH  11  12
HETATM   12  C8  UNL     1      61.900  81.908  67.043  1.00  0.00     0.010 C 
BRANCH  12  13
HETATM   13  C7  UNL     1      63.320  81.688  66.624  1.00  0.00     0.001 C 
BRANCH  13  14
HETATM   14  C6  UNL     1      64.291  81.621  67.762  1.00  0.00     0.000 C 
BRANCH  14  15
HETATM   15  C5  UNL     1      65.639  82.209  67.396  1.00  0.00     0.000 C 
BRANCH  15  16
HETATM   16  C4  UNL     1      65.728  82.326  65.887  1.00  0.00     0.000 C 
BRANCH  16  17
HETATM   17  C3  UNL     1      66.057  83.781  65.564  1.00  0.00    -0.000 C 
BRANCH  17  18
HETATM   18  C2  UNL     1      65.672  84.078  64.112  1.00  0.00    -0.005 C 
HETATM   19  C1  UNL     1      65.053  82.829  63.493  1.00  0.00     0.005 C 
ENDBRANCH  17  18
ENDBRANCH  16  17
ENDBRANCH  15  16
ENDBRANCH  14  15
ENDBRANCH  13  14
ENDBRANCH  12  13
ENDBRANCH  11  12
ENDBRANCH  10  11
ENDBRANCH   9  10
BRANCH   9  20
HETATM   20  C11 UNL     1      60.381  84.405  62.860  1.00  0.00     0.101 A 
HETATM   21  N1  UNL     1      59.499  85.007  62.068  1.00  0.00    -0.294 N 
HETATM   22  N2  UNL     1      59.880  85.535  60.987  1.00  0.00    -0.292 N 
ATOM     23  H1  UNL     1      58.515  85.042  62.334  1.00  0.00     0.187 HD
HETATM   24  C12 UNL     1      61.156  85.494  60.636  1.00  0.00     0.101 A 
ATOM     25  H2  UNL     1      59.202  85.996  60.380  1.00  0.00     0.187 HD
HETATM   26  S2  UNL     1      61.825  84.640  61.954  1.00  0.00    -0.052 SA
BRANCH  24  27
HETATM   27  C13 UNL     1      61.785  86.035  59.438  1.00  0.00     0.002 A 
HETATM   28  C14 UNL     1      63.008  86.661  59.506  1.00  0.00     0.014 A 
HETATM   29  C15 UNL     1      63.651  87.186  58.421  1.00  0.00     0.004 A 
HETATM   30  C16 UNL     1      63.009  87.068  57.175  1.00  0.00     0.037 A 
HETATM   31  C17 UNL     1      61.790  86.454  57.048  1.00  0.00     0.070 A 
HETATM   32  C22 UNL     1      61.179  85.933  58.209  1.00  0.00     0.051 A 
BRANCH  31  33
HETATM   33  O1  UNL     1      61.133  86.317  55.863  1.00  0.00    -0.340 OA
BRANCH  33  34
HETATM   34  C18 UNL     1      60.722  85.111  55.307  1.00  0.00     0.170 C 
HETATM   35  C19 UNL     1      61.598  84.814  54.154  1.00  0.00     0.023 C 
HETATM   36  C20 UNL     1      61.015  85.205  53.052  1.00  0.00     0.081 C 
HETATM   37  N3  UNL     1      59.752  85.774  53.358  1.00  0.00    -0.396 N 
HETATM   38  C21 UNL     1      59.346  85.358  54.697  1.00  0.00     0.155 C 
ATOM     39  H3  UNL     1      59.212  86.380  52.739  1.00  0.00     0.158 HD
ENDBRANCH  33  34
ENDBRANCH  31  33
ENDBRANCH  24  27
ENDBRANCH   9  20
ENDBRANCH   1   9
TORSDOF 14
ENDMDL
