MODEL 1
REMARK VINA RESULT: -8.458308311      0.000      0.000
REMARK  12 active torsions:
REMARK  status: ('A' for Active; 'I' for Inactive)
REMARK    1  A    between atoms: O1_2  and  C2_3 
REMARK    2  A    between atoms: C2_3  and  C3_5 
REMARK    3  A    between atoms: C3_5  and  N1_6 
REMARK    4  A    between atoms: C3_5  and  C4_10 
REMARK    5  A    between atoms: C4_10  and  O3_11 
REMARK    6  A    between atoms: C4_10  and  C5_13 
REMARK    7  A    between atoms: C5_13  and  C6_14 
REMARK    8  A    between atoms: C5_13  and  N2_25 
REMARK    9  A    between atoms: C6_14  and  O5_16 
REMARK   10  A    between atoms: O5_16  and  C7_17 
REMARK   11  A    between atoms: C7_17  and  C9_19 
REMARK   12  A    between atoms: C15_28  and  N4_29 
ROOT
HETATM    1  C5  UNL     1      22.714  47.312   6.133  1.00  0.00     0.244 C 
ENDROOT
BRANCH   1   2
HETATM    2  C4  UNL     1      22.807  46.158   7.058  1.00  0.00     0.193 C 
BRANCH   2   3
HETATM    3  C3  UNL     1      24.154  45.522   7.192  1.00  0.00     0.313 C 
BRANCH   3   4
HETATM    4  C2  UNL     1      23.915  44.105   7.654  1.00  0.00     0.291 C 
HETATM    5  O2  UNL     1      24.084  43.128   6.865  1.00  0.00    -0.263 OA
BRANCH   4   6
HETATM    6  O1  UNL     1      23.505  43.802   8.943  1.00  0.00    -0.325 OA
HETATM    7  C1  UNL     1      23.060  42.503   9.294  1.00  0.00     0.213 C 
ENDBRANCH   4   6
ENDBRANCH   3   4
BRANCH   3   8
HETATM    8  N1  UNL     1      24.739  45.398   5.846  1.00  0.00    -0.063 N 
ATOM      9  H13 UNL     1      25.035  46.287   5.444  1.00  0.00     0.275 HD
ATOM     10  H12 UNL     1      25.655  44.951   5.836  1.00  0.00     0.275 HD
ATOM     11  H11 UNL     1      24.037  44.910   5.290  1.00  0.00     0.275 HD
ENDBRANCH   3   8
ENDBRANCH   2   3
BRANCH   2  12
HETATM   12  O3  UNL     1      21.917  45.123   6.705  1.00  0.00    -0.390 OA
ATOM     13  H3  UNL     1      21.638  44.724   7.521  1.00  0.00     0.210 HD
ENDBRANCH   2  12
ENDBRANCH   1   2
BRANCH   1  14
HETATM   14  C6  UNL     1      23.163  48.594   6.712  1.00  0.00     0.287 C 
HETATM   15  O4  UNL     1      23.309  48.738   7.947  1.00  0.00    -0.263 OA
BRANCH  14  16
HETATM   16  O5  UNL     1      23.448  49.711   5.935  1.00  0.00    -0.310 OA
BRANCH  16  17
HETATM   17  C7  UNL     1      22.571  50.798   5.805  1.00  0.00     0.160 C 
HETATM   18  C8  UNL     1      21.741  50.715   4.539  1.00  0.00     0.045 C 
BRANCH  17  19
HETATM   19  C9  UNL     1      23.243  52.103   5.942  1.00  0.00    -0.029 A 
HETATM   20  C10 UNL     1      23.637  52.594   7.165  1.00  0.00     0.010 A 
HETATM   21  C11 UNL     1      24.267  53.818   7.283  1.00  0.00     0.001 A 
HETATM   22  C12 UNL     1      24.524  54.596   6.176  1.00  0.00     0.000 A 
HETATM   23  C13 UNL     1      24.135  54.117   4.945  1.00  0.00     0.001 A 
HETATM   24  C14 UNL     1      23.504  52.887   4.839  1.00  0.00     0.010 A 
ENDBRANCH  17  19
ENDBRANCH  16  17
ENDBRANCH  14  16
ENDBRANCH   1  14
BRANCH   1  25
HETATM   25  N2  UNL     1      21.290  47.492   5.813  1.00  0.00    -0.211 N 
HETATM   26  N3  UNL     1      20.380  47.898   6.680  1.00  0.00    -0.125 N 
HETATM   27  C15 UNL     1      19.178  47.970   6.122  1.00  0.00     0.694 A 
ATOM     28  H3  UNL     1      20.577  48.128   7.654  1.00  0.00     0.206 HD
HETATM   29  N5  UNL     1      19.327  47.593   4.845  1.00  0.00    -0.139 N 
HETATM   30  C16 UNL     1      20.648  47.298   4.665  1.00  0.00     0.356 A 
ATOM     31  H5  UNL     1      18.592  47.537   4.141  1.00  0.00     0.189 HD
HETATM   32  O6  UNL     1      21.164  46.909   3.598  1.00  0.00    -0.244 OA
BRANCH  27  33
HETATM   33  N4  UNL     1      18.099  48.339   6.732  1.00  0.00    -0.233 N 
ATOM     34  H42 UNL     1      17.755  48.046   7.646  1.00  0.00     0.174 HD
ATOM     35  H41 UNL     1      17.417  49.001   6.363  1.00  0.00     0.174 HD
ENDBRANCH  27  33
ENDBRANCH   1  25
TORSDOF 12
ENDMDL
MODEL 2
REMARK VINA RESULT: -8.225379748      1.248      1.800
REMARK  12 active torsions:
REMARK  status: ('A' for Active; 'I' for Inactive)
REMARK    1  A    between atoms: O1_2  and  C2_3 
REMARK    2  A    between atoms: C2_3  and  C3_5 
REMARK    3  A    between atoms: C3_5  and  N1_6 
REMARK    4  A    between atoms: C3_5  and  C4_10 
REMARK    5  A    between atoms: C4_10  and  O3_11 
REMARK    6  A    between atoms: C4_10  and  C5_13 
REMARK    7  A    between atoms: C5_13  and  C6_14 
REMARK    8  A    between atoms: C5_13  and  N2_25 
REMARK    9  A    between atoms: C6_14  and  O5_16 
REMARK   10  A    between atoms: O5_16  and  C7_17 
REMARK   11  A    between atoms: C7_17  and  C9_19 
REMARK   12  A    between atoms: C15_28  and  N4_29 
ROOT
HETATM    1  C5  UNL     1      22.493  46.096   5.704  1.00  0.00     0.244 C 
ENDROOT
BRANCH   1   2
HETATM    2  C4  UNL     1      22.374  45.347   6.978  1.00  0.00     0.193 C 
BRANCH   2   3
HETATM    3  C3  UNL     1      23.644  44.804   7.550  1.00  0.00     0.313 C 
BRANCH   3   4
HETATM    4  C2  UNL     1      23.274  44.121   8.843  1.00  0.00     0.291 C 
HETATM    5  O2  UNL     1      23.306  44.751   9.942  1.00  0.00    -0.263 OA
BRANCH   4   6
HETATM    6  O1  UNL     1      22.885  42.791   8.899  1.00  0.00    -0.325 OA
HETATM    7  C1  UNL     1      21.856  42.354   9.770  1.00  0.00     0.213 C 
ENDBRANCH   4   6
ENDBRANCH   3   4
BRANCH   3   8
HETATM    8  N1  UNL     1      24.123  43.729   6.665  1.00  0.00    -0.063 N 
ATOM      9  H13 UNL     1      23.847  43.846   5.690  1.00  0.00     0.275 HD
ATOM     10  H12 UNL     1      25.130  43.746   6.507  1.00  0.00     0.275 HD
ATOM     11  H11 UNL     1      23.787  42.863   7.086  1.00  0.00     0.275 HD
ENDBRANCH   3   8
ENDBRANCH   2   3
BRANCH   2  12
HETATM   12  O3  UNL     1      21.492  44.253   6.868  1.00  0.00    -0.390 OA
ATOM     13  H3  UNL     1      21.448  43.861   7.732  1.00  0.00     0.210 HD
ENDBRANCH   2  12
ENDBRANCH   1   2
BRANCH   1  14
HETATM   14  C6  UNL     1      23.593  47.079   5.677  1.00  0.00     0.287 C 
HETATM   15  O4  UNL     1      24.775  46.733   5.447  1.00  0.00    -0.263 OA
BRANCH  14  16
HETATM   16  O5  UNL     1      23.395  48.437   5.903  1.00  0.00    -0.310 OA
BRANCH  16  17
HETATM   17  C7  UNL     1      23.918  49.114   7.015  1.00  0.00     0.160 C 
HETATM   18  C8  UNL     1      23.242  48.699   8.307  1.00  0.00     0.045 C 
BRANCH  17  19
HETATM   19  C9  UNL     1      23.937  50.577   6.844  1.00  0.00    -0.029 A 
HETATM   20  C10 UNL     1      24.306  51.424   7.863  1.00  0.00     0.010 A 
HETATM   21  C11 UNL     1      24.320  52.795   7.693  1.00  0.00     0.001 A 
HETATM   22  C12 UNL     1      23.966  53.368   6.493  1.00  0.00     0.000 A 
HETATM   23  C13 UNL     1      23.595  52.532   5.463  1.00  0.00     0.001 A 
HETATM   24  C14 UNL     1      23.584  51.158   5.645  1.00  0.00     0.010 A 
ENDBRANCH  17  19
ENDBRANCH  16  17
ENDBRANCH  14  16
ENDBRANCH   1  14
BRANCH   1  25
HETATM   25  N2  UNL     1      21.255  46.873   5.546  1.00  0.00    -0.211 N 
HETATM   26  N3  UNL     1      20.532  47.331   6.553  1.00  0.00    -0.125 N 
HETATM   27  C15 UNL     1      19.468  47.996   6.121  1.00  0.00     0.694 A 
ATOM     28  H3  UNL     1      20.764  47.191   7.536  1.00  0.00     0.206 HD
HETATM   29  N5  UNL     1      19.513  47.960   4.782  1.00  0.00    -0.139 N 
HETATM   30  C16 UNL     1      20.631  47.258   4.436  1.00  0.00     0.356 A 
ATOM     31  H5  UNL     1      18.838  48.379   4.142  1.00  0.00     0.189 HD
HETATM   32  O6  UNL     1      21.003  47.017   3.270  1.00  0.00    -0.244 OA
BRANCH  27  33
HETATM   33  N4  UNL     1      18.585  48.555   6.881  1.00  0.00    -0.233 N 
ATOM     34  H42 UNL     1      18.273  49.526   6.884  1.00  0.00     0.174 HD
ATOM     35  H41 UNL     1      18.059  48.080   7.614  1.00  0.00     0.174 HD
ENDBRANCH  27  33
ENDBRANCH   1  25
TORSDOF 12
ENDMDL
MODEL 3
REMARK VINA RESULT: -7.857953889      0.721      1.283
REMARK  12 active torsions:
REMARK  status: ('A' for Active; 'I' for Inactive)
REMARK    1  A    between atoms: O1_2  and  C2_3 
REMARK    2  A    between atoms: C2_3  and  C3_5 
REMARK    3  A    between atoms: C3_5  and  N1_6 
REMARK    4  A    between atoms: C3_5  and  C4_10 
REMARK    5  A    between atoms: C4_10  and  O3_11 
REMARK    6  A    between atoms: C4_10  and  C5_13 
REMARK    7  A    between atoms: C5_13  and  C6_14 
REMARK    8  A    between atoms: C5_13  and  N2_25 
REMARK    9  A    between atoms: C6_14  and  O5_16 
REMARK   10  A    between atoms: O5_16  and  C7_17 
REMARK   11  A    between atoms: C7_17  and  C9_19 
REMARK   12  A    between atoms: C15_28  and  N4_29 
ROOT
HETATM    1  C5  UNL     1      22.502  47.296   6.452  1.00  0.00     0.244 C 
ENDROOT
BRANCH   1   2
HETATM    2  C4  UNL     1      22.561  45.989   7.149  1.00  0.00     0.193 C 
BRANCH   2   3
HETATM    3  C3  UNL     1      23.922  45.397   7.335  1.00  0.00     0.313 C 
BRANCH   3   4
HETATM    4  C2  UNL     1      23.713  43.940   7.669  1.00  0.00     0.291 C 
HETATM    5  O2  UNL     1      24.172  43.030   6.917  1.00  0.00    -0.263 OA
BRANCH   4   6
HETATM    6  O1  UNL     1      23.021  43.527   8.797  1.00  0.00    -0.325 OA
HETATM    7  C1  UNL     1      22.931  42.158   9.153  1.00  0.00     0.213 C 
ENDBRANCH   4   6
ENDBRANCH   3   4
BRANCH   3   8
HETATM    8  N1  UNL     1      24.606  45.403   6.031  1.00  0.00    -0.063 N 
ATOM      9  H13 UNL     1      24.745  46.337   5.645  1.00  0.00     0.275 HD
ATOM     10  H12 UNL     1      25.592  45.148   6.084  1.00  0.00     0.275 HD
ATOM     11  H11 UNL     1      24.054  44.789   5.433  1.00  0.00     0.275 HD
ENDBRANCH   3   8
ENDBRANCH   2   3
BRANCH   2  12
HETATM   12  O3  UNL     1      21.790  45.005   6.496  1.00  0.00    -0.390 OA
ATOM     13  H3  UNL     1      20.884  45.278   6.583  1.00  0.00     0.210 HD
ENDBRANCH   2  12
ENDBRANCH   1   2
BRANCH   1  14
HETATM   14  C6  UNL     1      22.765  48.461   7.319  1.00  0.00     0.287 C 
HETATM   15  O4  UNL     1      23.036  48.323   8.534  1.00  0.00    -0.263 OA
BRANCH  14  16
HETATM   16  O5  UNL     1      22.728  49.770   6.853  1.00  0.00    -0.310 OA
BRANCH  16  17
HETATM   17  C7  UNL     1      23.719  50.315   6.023  1.00  0.00     0.160 C 
HETATM   18  C8  UNL     1      25.019  49.537   6.096  1.00  0.00     0.045 C 
BRANCH  17  19
HETATM   19  C9  UNL     1      23.925  51.758   6.240  1.00  0.00    -0.029 A 
HETATM   20  C10 UNL     1      23.995  52.649   5.194  1.00  0.00     0.010 A 
HETATM   21  C11 UNL     1      24.188  54.000   5.408  1.00  0.00     0.001 A 
HETATM   22  C12 UNL     1      24.319  54.508   6.681  1.00  0.00     0.000 A 
HETATM   23  C13 UNL     1      24.251  53.628   7.738  1.00  0.00     0.001 A 
HETATM   24  C14 UNL     1      24.057  52.274   7.511  1.00  0.00     0.010 A 
ENDBRANCH  17  19
ENDBRANCH  16  17
ENDBRANCH  14  16
ENDBRANCH   1  14
BRANCH   1  25
HETATM   25  N2  UNL     1      21.124  47.460   5.964  1.00  0.00    -0.211 N 
HETATM   26  N3  UNL     1      20.113  47.856   6.717  1.00  0.00    -0.125 N 
HETATM   27  C15 UNL     1      18.985  47.915   6.020  1.00  0.00     0.694 A 
ATOM     28  H3  UNL     1      20.190  48.087   7.707  1.00  0.00     0.206 HD
HETATM   29  N5  UNL     1      19.289  47.540   4.770  1.00  0.00    -0.139 N 
HETATM   30  C16 UNL     1      20.625  47.259   4.748  1.00  0.00     0.356 A 
ATOM     31  H5  UNL     1      18.644  47.476   3.982  1.00  0.00     0.189 HD
HETATM   32  O6  UNL     1      21.269  46.877   3.750  1.00  0.00    -0.244 OA
BRANCH  27  33
HETATM   33  N4  UNL     1      17.837  48.272   6.495  1.00  0.00    -0.233 N 
ATOM     34  H42 UNL     1      17.264  47.797   7.192  1.00  0.00     0.174 HD
ATOM     35  H41 UNL     1      17.328  49.114   6.226  1.00  0.00     0.174 HD
ENDBRANCH  27  33
ENDBRANCH   1  25
TORSDOF 12
ENDMDL
MODEL 4
REMARK VINA RESULT: -7.719283746      1.142      1.519
REMARK  12 active torsions:
REMARK  status: ('A' for Active; 'I' for Inactive)
REMARK    1  A    between atoms: O1_2  and  C2_3 
REMARK    2  A    between atoms: C2_3  and  C3_5 
REMARK    3  A    between atoms: C3_5  and  N1_6 
REMARK    4  A    between atoms: C3_5  and  C4_10 
REMARK    5  A    between atoms: C4_10  and  O3_11 
REMARK    6  A    between atoms: C4_10  and  C5_13 
REMARK    7  A    between atoms: C5_13  and  C6_14 
REMARK    8  A    between atoms: C5_13  and  N2_25 
REMARK    9  A    between atoms: C6_14  and  O5_16 
REMARK   10  A    between atoms: O5_16  and  C7_17 
REMARK   11  A    between atoms: C7_17  and  C9_19 
REMARK   12  A    between atoms: C15_28  and  N4_29 
ROOT
HETATM    1  C5  UNL     1      22.498  46.728   6.818  1.00  0.00     0.244 C 
ENDROOT
BRANCH   1   2
HETATM    2  C4  UNL     1      22.290  45.365   7.362  1.00  0.00     0.193 C 
BRANCH   2   3
HETATM    3  C3  UNL     1      23.523  44.591   7.703  1.00  0.00     0.313 C 
BRANCH   3   4
HETATM    4  C2  UNL     1      23.164  43.703   8.868  1.00  0.00     0.291 C 
HETATM    5  O2  UNL     1      23.444  44.045  10.056  1.00  0.00    -0.263 OA
BRANCH   4   6
HETATM    6  O1  UNL     1      22.518  42.487   8.707  1.00  0.00    -0.325 OA
HETATM    7  C1  UNL     1      21.215  42.264   9.217  1.00  0.00     0.213 C 
ENDBRANCH   4   6
ENDBRANCH   3   4
BRANCH   3   8
HETATM    8  N1  UNL     1      23.812  43.674   6.588  1.00  0.00    -0.063 N 
ATOM      9  H13 UNL     1      23.211  42.850   6.568  1.00  0.00     0.275 HD
ATOM     10  H12 UNL     1      23.543  44.040   5.675  1.00  0.00     0.275 HD
ATOM     11  H11 UNL     1      24.805  43.456   6.668  1.00  0.00     0.275 HD
ENDBRANCH   3   8
ENDBRANCH   2   3
BRANCH   2  12
HETATM   12  O3  UNL     1      21.546  44.552   6.483  1.00  0.00    -0.390 OA
ATOM     13  H3  UNL     1      21.500  43.695   6.890  1.00  0.00     0.210 HD
ENDBRANCH   2  12
ENDBRANCH   1   2
BRANCH   1  14
HETATM   14  C6  UNL     1      22.821  47.747   7.837  1.00  0.00     0.287 C 
HETATM   15  O4  UNL     1      23.049  47.432   9.027  1.00  0.00    -0.263 OA
BRANCH  14  16
HETATM   16  O5  UNL     1      22.894  49.104   7.546  1.00  0.00    -0.310 OA
BRANCH  16  17
HETATM   17  C7  UNL     1      23.540  49.612   6.409  1.00  0.00     0.160 C 
HETATM   18  C8  UNL     1      24.816  48.856   6.092  1.00  0.00     0.045 C 
BRANCH  17  19
HETATM   19  C9  UNL     1      23.760  51.067   6.470  1.00  0.00    -0.029 A 
HETATM   20  C10 UNL     1      24.115  51.702   7.638  1.00  0.00     0.010 A 
HETATM   21  C11 UNL     1      24.319  53.068   7.684  1.00  0.00     0.001 A 
HETATM   22  C12 UNL     1      24.174  53.849   6.560  1.00  0.00     0.000 A 
HETATM   23  C13 UNL     1      23.819  53.226   5.383  1.00  0.00     0.001 A 
HETATM   24  C14 UNL     1      23.617  51.855   5.349  1.00  0.00     0.010 A 
ENDBRANCH  17  19
ENDBRANCH  16  17
ENDBRANCH  14  16
ENDBRANCH   1  14
BRANCH   1  25
HETATM   25  N2  UNL     1      21.223  47.150   6.218  1.00  0.00    -0.211 N 
HETATM   26  N3  UNL     1      20.200  47.624   6.907  1.00  0.00    -0.125 N 
HETATM   27  C15 UNL     1      19.180  47.924   6.113  1.00  0.00     0.694 A 
ATOM     28  H3  UNL     1      20.195  47.744   7.920  1.00  0.00     0.206 HD
HETATM   29  N5  UNL     1      19.568  47.627   4.865  1.00  0.00    -0.139 N 
HETATM   30  C16 UNL     1      20.843  47.146   4.944  1.00  0.00     0.356 A 
ATOM     31  H5  UNL     1      19.015  47.740   4.015  1.00  0.00     0.189 HD
HETATM   32  O6  UNL     1      21.536  46.766   3.979  1.00  0.00    -0.244 OA
BRANCH  27  33
HETATM   33  N4  UNL     1      18.048  48.406   6.510  1.00  0.00    -0.233 N 
ATOM     34  H42 UNL     1      17.436  49.064   6.028  1.00  0.00     0.174 HD
ATOM     35  H41 UNL     1      17.597  48.185   7.397  1.00  0.00     0.174 HD
ENDBRANCH  27  33
ENDBRANCH   1  25
TORSDOF 12
ENDMDL
MODEL 5
REMARK VINA RESULT: -7.163591755      1.503      2.322
REMARK  12 active torsions:
REMARK  status: ('A' for Active; 'I' for Inactive)
REMARK    1  A    between atoms: O1_2  and  C2_3 
REMARK    2  A    between atoms: C2_3  and  C3_5 
REMARK    3  A    between atoms: C3_5  and  N1_6 
REMARK    4  A    between atoms: C3_5  and  C4_10 
REMARK    5  A    between atoms: C4_10  and  O3_11 
REMARK    6  A    between atoms: C4_10  and  C5_13 
REMARK    7  A    between atoms: C5_13  and  C6_14 
REMARK    8  A    between atoms: C5_13  and  N2_25 
REMARK    9  A    between atoms: C6_14  and  O5_16 
REMARK   10  A    between atoms: O5_16  and  C7_17 
REMARK   11  A    between atoms: C7_17  and  C9_19 
REMARK   12  A    between atoms: C15_28  and  N4_29 
ROOT
HETATM    1  C5  UNL     1      22.678  46.283   5.615  1.00  0.00     0.244 C 
ENDROOT
BRANCH   1   2
HETATM    2  C4  UNL     1      22.402  45.532   6.863  1.00  0.00     0.193 C 
BRANCH   2   3
HETATM    3  C3  UNL     1      23.588  44.946   7.561  1.00  0.00     0.313 C 
BRANCH   3   4
HETATM    4  C2  UNL     1      23.046  44.096   8.685  1.00  0.00     0.291 C 
HETATM    5  O2  UNL     1      22.347  44.611   9.608  1.00  0.00    -0.263 OA
BRANCH   4   6
HETATM    6  O1  UNL     1      23.280  42.732   8.767  1.00  0.00    -0.325 OA
HETATM    7  C1  UNL     1      22.216  41.795   8.760  1.00  0.00     0.213 C 
ENDBRANCH   4   6
ENDBRANCH   3   4
BRANCH   3   8
HETATM    8  N1  UNL     1      24.242  44.002   6.640  1.00  0.00    -0.063 N 
ATOM      9  H13 UNL     1      23.838  43.066   6.656  1.00  0.00     0.275 HD
ATOM     10  H12 UNL     1      24.059  44.195   5.656  1.00  0.00     0.275 HD
ATOM     11  H11 UNL     1      25.231  44.026   6.887  1.00  0.00     0.275 HD
ENDBRANCH   3   8
ENDBRANCH   2   3
BRANCH   2  12
HETATM   12  O3  UNL     1      21.503  44.467   6.653  1.00  0.00    -0.390 OA
ATOM     13  H3  UNL     1      21.739  43.793   7.279  1.00  0.00     0.210 HD
ENDBRANCH   2  12
ENDBRANCH   1   2
BRANCH   1  14
HETATM   14  C6  UNL     1      23.813  47.222   5.709  1.00  0.00     0.287 C 
HETATM   15  O4  UNL     1      24.999  46.823   5.651  1.00  0.00    -0.263 OA
BRANCH  14  16
HETATM   16  O5  UNL     1      23.644  48.593   5.866  1.00  0.00    -0.310 OA
BRANCH  16  17
HETATM   17  C7  UNL     1      24.109  49.299   6.985  1.00  0.00     0.160 C 
HETATM   18  C8  UNL     1      23.416  48.867   8.262  1.00  0.00     0.045 C 
BRANCH  17  19
HETATM   19  C9  UNL     1      24.072  50.761   6.802  1.00  0.00    -0.029 A 
HETATM   20  C10 UNL     1      23.777  51.336   5.588  1.00  0.00     0.010 A 
HETATM   21  C11 UNL     1      23.745  52.708   5.427  1.00  0.00     0.001 A 
HETATM   22  C12 UNL     1      24.009  53.555   6.480  1.00  0.00     0.000 A 
HETATM   23  C13 UNL     1      24.305  52.993   7.702  1.00  0.00     0.001 A 
HETATM   24  C14 UNL     1      24.334  51.615   7.851  1.00  0.00     0.010 A 
ENDBRANCH  17  19
ENDBRANCH  16  17
ENDBRANCH  14  16
ENDBRANCH   1  14
BRANCH   1  25
HETATM   25  N2  UNL     1      21.493  47.109   5.340  1.00  0.00    -0.211 N 
HETATM   26  N3  UNL     1      21.110  47.477   4.131  1.00  0.00    -0.125 N 
HETATM   27  C15 UNL     1      20.010  48.217   4.177  1.00  0.00     0.694 A 
ATOM     28  H3  UNL     1      21.598  47.224   3.272  1.00  0.00     0.206 HD
HETATM   29  N5  UNL     1      19.677  48.327   5.470  1.00  0.00    -0.139 N 
HETATM   30  C16 UNL     1      20.609  47.631   6.185  1.00  0.00     0.356 A 
ATOM     31  H5  UNL     1      18.878  48.834   5.850  1.00  0.00     0.189 HD
HETATM   32  O6  UNL     1      20.626  47.508   7.426  1.00  0.00    -0.244 OA
BRANCH  27  33
HETATM   33  N4  UNL     1      19.408  48.716   3.147  1.00  0.00    -0.233 N 
ATOM     34  H42 UNL     1      19.458  49.667   2.783  1.00  0.00     0.174 HD
ATOM     35  H41 UNL     1      18.776  48.203   2.533  1.00  0.00     0.174 HD
ENDBRANCH  27  33
ENDBRANCH   1  25
TORSDOF 12
ENDMDL
