MODEL 1
REMARK VINA RESULT: -6.785055848      0.000      0.000
REMARK  6 active torsions:
REMARK  status: ('A' for Active; 'I' for Inactive)
REMARK    1  A    between atoms: O1_2  and  C2_3 
REMARK    2  A    between atoms: C2_3  and  C3_5 
REMARK    3  A    between atoms: C4_6  and  O3_7 
REMARK    4  A    between atoms: N1_11  and  O4_12 
REMARK    5  A    between atoms: C7_14  and  N2_15 
REMARK    6  A    between atoms: C11_21  and  O5_22 
ROOT
HETATM    1  C3  UNL     1       1.620  12.015  24.648  1.00  0.00     0.148 C 
HETATM    2  C4  UNL     1       0.240  12.614  24.526  1.00  0.00     0.154 C 
HETATM    3  C5  UNL     1      -0.525  12.460  25.817  1.00  0.00     0.114 C 
HETATM    4  C6  UNL     1      -1.830  13.242  25.648  1.00  0.00     0.031 C 
HETATM    5  N1  UNL     1       0.155  13.047  26.938  1.00  0.00    -0.165 NA
HETATM    6  C7  UNL     1       1.519  12.626  27.082  1.00  0.00     0.236 C 
HETATM    7  C11 UNL     1       1.997  11.675  26.055  1.00  0.00     0.175 C 
ENDROOT
BRANCH   6   8
HETATM    8  N2  UNL     1       1.648  12.002  28.388  1.00  0.00    -0.281 N 
HETATM    9  C8  UNL     1       1.642  12.555  29.610  1.00  0.00     0.113 A 
HETATM   10  C9  UNL     1       1.802  11.502  30.518  1.00  0.00     0.037 A 
HETATM   11  C10 UNL     1       1.900  10.338  29.790  1.00  0.00     0.108 A 
HETATM   12  N3  UNL     1       1.803  10.673  28.509  1.00  0.00    -0.308 N 
ATOM     13  H3  UNL     1       1.841  10.016  27.730  1.00  0.00     0.186 HD
ENDBRANCH   6   8
BRANCH   5  14
HETATM   14  O4  UNL     1       0.043  14.390  26.887  1.00  0.00    -0.310 OA
ATOM     15  H4  UNL     1       0.692  14.788  27.456  1.00  0.00     0.237 HD
ENDBRANCH   5  14
BRANCH   7  16
HETATM   16  O5  UNL     1       3.407  11.634  26.133  1.00  0.00    -0.391 OA
ATOM     17  H5  UNL     1       3.696  12.391  26.627  1.00  0.00     0.210 HD
ENDBRANCH   7  16
BRANCH   1  18
HETATM   18  C2  UNL     1       1.776  10.797  23.817  1.00  0.00     0.267 C 
HETATM   19  O2  UNL     1       2.656   9.944  24.083  1.00  0.00    -0.265 OA
BRANCH  18  20
HETATM   20  O1  UNL     1       0.976  10.530  22.716  1.00  0.00    -0.326 OA
HETATM   21  C1  UNL     1       1.511  10.474  21.386  1.00  0.00     0.213 C 
ENDBRANCH  18  20
ENDBRANCH   1  18
BRANCH   2  22
HETATM   22  O3  UNL     1       0.302  13.976  24.241  1.00  0.00    -0.393 OA
ATOM     23  H3  UNL     1      -0.244  14.198  23.495  1.00  0.00     0.210 HD
ENDBRANCH   2  22
TORSDOF 6
ENDMDL
MODEL 2
REMARK VINA RESULT: -6.655769208      2.153      5.292
REMARK  6 active torsions:
REMARK  status: ('A' for Active; 'I' for Inactive)
REMARK    1  A    between atoms: O1_2  and  C2_3 
REMARK    2  A    between atoms: C2_3  and  C3_5 
REMARK    3  A    between atoms: C4_6  and  O3_7 
REMARK    4  A    between atoms: N1_11  and  O4_12 
REMARK    5  A    between atoms: C7_14  and  N2_15 
REMARK    6  A    between atoms: C11_21  and  O5_22 
ROOT
HETATM    1  C3  UNL     1      -0.505  13.751  25.616  1.00  0.00     0.148 C 
HETATM    2  C4  UNL     1       0.005  13.191  26.921  1.00  0.00     0.154 C 
HETATM    3  C5  UNL     1       0.659  11.848  26.706  1.00  0.00     0.114 C 
HETATM    4  C6  UNL     1       1.288  11.448  28.043  1.00  0.00     0.031 C 
HETATM    5  N1  UNL     1       1.734  11.901  25.754  1.00  0.00    -0.165 NA
HETATM    6  C7  UNL     1       1.385  12.521  24.509  1.00  0.00     0.236 C 
HETATM    7  C11 UNL     1      -0.010  13.007  24.416  1.00  0.00     0.175 C 
ENDROOT
BRANCH   6   8
HETATM    8  N2  UNL     1       1.604  11.543  23.457  1.00  0.00    -0.281 N 
HETATM    9  C8  UNL     1       1.901  10.237  23.545  1.00  0.00     0.113 A 
HETATM   10  C9  UNL     1       2.004   9.769  22.230  1.00  0.00     0.037 A 
HETATM   11  C10 UNL     1       1.760  10.833  21.391  1.00  0.00     0.108 A 
HETATM   12  N3  UNL     1       1.522  11.887  22.161  1.00  0.00    -0.308 N 
ATOM     13  H3  UNL     1       1.309  12.824  21.818  1.00  0.00     0.186 HD
ENDBRANCH   6   8
BRANCH   5  14
HETATM   14  O4  UNL     1       2.815  12.477  26.319  1.00  0.00    -0.310 OA
ATOM     15  H4  UNL     1       2.638  13.394  26.490  1.00  0.00     0.237 HD
ENDBRANCH   5  14
BRANCH   7  16
HETATM   16  O5  UNL     1      -0.088  13.872  23.302  1.00  0.00    -0.391 OA
ATOM     17  H5  UNL     1       0.472  14.620  23.470  1.00  0.00     0.210 HD
ENDBRANCH   7  16
BRANCH   1  18
HETATM   18  C2  UNL     1      -1.986  13.787  25.563  1.00  0.00     0.267 C 
HETATM   19  O2  UNL     1      -2.587  14.703  24.953  1.00  0.00    -0.265 OA
BRANCH  18  20
HETATM   20  O1  UNL     1      -2.783  12.830  26.173  1.00  0.00    -0.326 OA
HETATM   21  C1  UNL     1      -3.775  13.179  27.148  1.00  0.00     0.213 C 
ENDBRANCH  18  20
ENDBRANCH   1  18
BRANCH   2  22
HETATM   22  O3  UNL     1       0.957  14.028  27.496  1.00  0.00    -0.393 OA
ATOM     23  H3  UNL     1       0.860  14.067  28.440  1.00  0.00     0.210 HD
ENDBRANCH   2  22
TORSDOF 6
ENDMDL
MODEL 3
REMARK VINA RESULT: -6.619088022      2.192      5.429
REMARK  6 active torsions:
REMARK  status: ('A' for Active; 'I' for Inactive)
REMARK    1  A    between atoms: O1_2  and  C2_3 
REMARK    2  A    between atoms: C2_3  and  C3_5 
REMARK    3  A    between atoms: C4_6  and  O3_7 
REMARK    4  A    between atoms: N1_11  and  O4_12 
REMARK    5  A    between atoms: C7_14  and  N2_15 
REMARK    6  A    between atoms: C11_21  and  O5_22 
ROOT
HETATM    1  C3  UNL     1      -0.867  13.369  26.440  1.00  0.00     0.148 C 
HETATM    2  C4  UNL     1       0.114  12.861  27.468  1.00  0.00     0.154 C 
HETATM    3  C5  UNL     1       0.963  11.754  26.894  1.00  0.00     0.114 C 
HETATM    4  C6  UNL     1       2.028  11.429  27.944  1.00  0.00     0.031 C 
HETATM    5  N1  UNL     1       1.672  12.155  25.710  1.00  0.00    -0.165 NA
HETATM    6  C7  UNL     1       0.844  12.756  24.706  1.00  0.00     0.236 C 
HETATM    7  C11 UNL     1      -0.590  12.872  25.057  1.00  0.00     0.175 C 
ENDROOT
BRANCH   6   8
HETATM    8  N2  UNL     1       0.961  11.951  23.502  1.00  0.00    -0.281 N 
HETATM    9  C8  UNL     1       1.552  10.760  23.318  1.00  0.00     0.113 A 
HETATM   10  C9  UNL     1       1.373  10.438  21.968  1.00  0.00     0.037 A 
HETATM   11  C10 UNL     1       0.669  11.468  21.386  1.00  0.00     0.108 A 
HETATM   12  N3  UNL     1       0.436  12.364  22.336  1.00  0.00    -0.308 N 
ATOM     13  H3  UNL     1      -0.068  13.240  22.201  1.00  0.00     0.186 HD
ENDBRANCH   6   8
BRANCH   5  14
HETATM   14  O4  UNL     1       2.712  12.945  26.047  1.00  0.00    -0.310 OA
ATOM     15  H4  UNL     1       2.678  13.751  25.545  1.00  0.00     0.237 HD
ENDBRANCH   5  14
BRANCH   7  16
HETATM   16  O5  UNL     1      -1.184  13.769  24.141  1.00  0.00    -0.391 OA
ATOM     17  H5  UNL     1      -0.666  13.762  23.345  1.00  0.00     0.210 HD
ENDBRANCH   7  16
BRANCH   1  18
HETATM   18  C2  UNL     1      -2.267  13.024  26.786  1.00  0.00     0.267 C 
HETATM   19  O2  UNL     1      -2.610  12.846  27.979  1.00  0.00    -0.265 OA
BRANCH  18  20
HETATM   20  O1  UNL     1      -3.264  12.880  25.833  1.00  0.00    -0.326 OA
HETATM   21  C1  UNL     1      -4.561  13.469  25.998  1.00  0.00     0.213 C 
ENDBRANCH  18  20
ENDBRANCH   1  18
BRANCH   2  22
HETATM   22  O3  UNL     1       0.978  13.870  27.886  1.00  0.00    -0.393 OA
ATOM     23  H3  UNL     1       1.568  13.562  28.565  1.00  0.00     0.210 HD
ENDBRANCH   2  22
TORSDOF 6
ENDMDL
MODEL 4
REMARK VINA RESULT: -6.491300587      2.494      3.972
REMARK  6 active torsions:
REMARK  status: ('A' for Active; 'I' for Inactive)
REMARK    1  A    between atoms: O1_2  and  C2_3 
REMARK    2  A    between atoms: C2_3  and  C3_5 
REMARK    3  A    between atoms: C4_6  and  O3_7 
REMARK    4  A    between atoms: N1_11  and  O4_12 
REMARK    5  A    between atoms: C7_14  and  N2_15 
REMARK    6  A    between atoms: C11_21  and  O5_22 
ROOT
HETATM    1  C3  UNL     1       1.940  11.932  24.694  1.00  0.00     0.148 C 
HETATM    2  C4  UNL     1       1.482  11.649  23.284  1.00  0.00     0.154 C 
HETATM    3  C5  UNL     1      -0.024  11.637  23.205  1.00  0.00     0.114 C 
HETATM    4  C6  UNL     1      -0.384  11.514  21.722  1.00  0.00     0.031 C 
HETATM    5  N1  UNL     1      -0.613  12.865  23.663  1.00  0.00    -0.165 NA
HETATM    6  C7  UNL     1      -0.159  13.286  24.956  1.00  0.00     0.236 C 
HETATM    7  C11 UNL     1       0.840  12.400  25.593  1.00  0.00     0.175 C 
ENDROOT
BRANCH   6   8
HETATM    8  N2  UNL     1      -1.322  13.371  25.823  1.00  0.00    -0.281 N 
HETATM    9  C8  UNL     1      -2.582  12.960  25.613  1.00  0.00     0.113 A 
HETATM   10  C9  UNL     1      -3.298  13.284  26.771  1.00  0.00     0.037 A 
HETATM   11  C10 UNL     1      -2.422  13.889  27.645  1.00  0.00     0.108 A 
HETATM   12  N3  UNL     1      -1.239  13.925  27.044  1.00  0.00    -0.308 N 
ATOM     13  H3  UNL     1      -0.390  14.318  27.450  1.00  0.00     0.186 HD
ENDBRANCH   6   8
BRANCH   5  14
HETATM   14  O4  UNL     1      -0.448  13.826  22.731  1.00  0.00    -0.310 OA
ATOM     15  H4  UNL     1      -1.287  14.219  22.523  1.00  0.00     0.237 HD
ENDBRANCH   5  14
BRANCH   7  16
HETATM   16  O5  UNL     1       1.424  13.113  26.665  1.00  0.00    -0.391 OA
ATOM     17  H5  UNL     1       1.050  13.986  26.675  1.00  0.00     0.210 HD
ENDBRANCH   7  16
BRANCH   1  18
HETATM   18  C2  UNL     1       2.584  10.752  25.320  1.00  0.00     0.267 C 
HETATM   19  O2  UNL     1       2.608   9.644  24.733  1.00  0.00    -0.265 OA
BRANCH  18  20
HETATM   20  O1  UNL     1       3.186  10.798  26.569  1.00  0.00    -0.326 OA
HETATM   21  C1  UNL     1       4.314   9.975  26.897  1.00  0.00     0.213 C 
ENDBRANCH  18  20
ENDBRANCH   1  18
BRANCH   2  22
HETATM   22  O3  UNL     1       1.937  12.622  22.398  1.00  0.00    -0.393 OA
ATOM     23  H3  UNL     1       2.273  12.232  21.599  1.00  0.00     0.210 HD
ENDBRANCH   2  22
TORSDOF 6
ENDMDL
MODEL 5
REMARK VINA RESULT: -6.485243763      0.716      1.019
REMARK  6 active torsions:
REMARK  status: ('A' for Active; 'I' for Inactive)
REMARK    1  A    between atoms: O1_2  and  C2_3 
REMARK    2  A    between atoms: C2_3  and  C3_5 
REMARK    3  A    between atoms: C4_6  and  O3_7 
REMARK    4  A    between atoms: N1_11  and  O4_12 
REMARK    5  A    between atoms: C7_14  and  N2_15 
REMARK    6  A    between atoms: C11_21  and  O5_22 
ROOT
HETATM    1  C3  UNL     1       1.178  12.178  24.419  1.00  0.00     0.148 C 
HETATM    2  C4  UNL     1      -0.137  12.906  24.558  1.00  0.00     0.154 C 
HETATM    3  C5  UNL     1      -0.771  12.612  25.895  1.00  0.00     0.114 C 
HETATM    4  C6  UNL     1      -1.998  13.520  26.008  1.00  0.00     0.031 C 
HETATM    5  N1  UNL     1       0.084  12.948  27.000  1.00  0.00    -0.165 NA
HETATM    6  C7  UNL     1       1.404  12.395  26.911  1.00  0.00     0.236 C 
HETATM    7  C11 UNL     1       1.667  11.584  25.701  1.00  0.00     0.175 C 
ENDROOT
BRANCH   6   8
HETATM    8  N2  UNL     1       1.607  11.558  28.082  1.00  0.00    -0.281 N 
HETATM    9  C8  UNL     1       1.453  11.848  29.382  1.00  0.00     0.113 A 
HETATM   10  C9  UNL     1       1.783  10.683  30.085  1.00  0.00     0.037 A 
HETATM   11  C10 UNL     1       2.128   9.724  29.160  1.00  0.00     0.108 A 
HETATM   12  N3  UNL     1       2.012  10.282  27.961  1.00  0.00    -0.308 N 
ATOM     13  H3  UNL     1       2.202   9.811  27.077  1.00  0.00     0.186 HD
ENDBRANCH   6   8
BRANCH   5  14
HETATM   14  O4  UNL     1       0.108  14.287  27.167  1.00  0.00    -0.310 OA
ATOM     15  H4  UNL     1       0.537  14.695  26.424  1.00  0.00     0.237 HD
ENDBRANCH   5  14
BRANCH   7  16
HETATM   16  O5  UNL     1       3.065  11.410  25.598  1.00  0.00    -0.391 OA
ATOM     17  H5  UNL     1       3.402  12.077  25.013  1.00  0.00     0.210 HD
ENDBRANCH   7  16
BRANCH   1  18
HETATM   18  C2  UNL     1       1.115  11.102  23.401  1.00  0.00     0.267 C 
HETATM   19  O2  UNL     1       0.143  11.016  22.613  1.00  0.00    -0.265 OA
BRANCH  18  20
HETATM   20  O1  UNL     1       2.107  10.144  23.258  1.00  0.00    -0.326 OA
HETATM   21  C1  UNL     1       2.080   9.177  22.198  1.00  0.00     0.213 C 
ENDBRANCH  18  20
ENDBRANCH   1  18
BRANCH   2  22
HETATM   22  O3  UNL     1       0.035  14.285  24.476  1.00  0.00    -0.393 OA
ATOM     23  H3  UNL     1      -0.795  14.731  24.354  1.00  0.00     0.210 HD
ENDBRANCH   2  22
TORSDOF 6
ENDMDL
