MODEL 1
REMARK VINA RESULT: -6.187330062      0.000      0.000
REMARK  18 active torsions:
REMARK  status: ('A' for Active; 'I' for Inactive)
REMARK    1  A    between atoms: N1_2  and  C3_4 
REMARK    2  A    between atoms: N1_2  and  C4_9 
REMARK    3  A    between atoms: N2_5  and  O1_7 
REMARK    4  A    between atoms: C4_9  and  N3_10 
REMARK    5  A    between atoms: N3_10  and  C5_13 
REMARK    6  A    between atoms: C5_13  and  C6_14 
REMARK    7  A    between atoms: C6_14  and  C7_15 
REMARK    8  A    between atoms: C7_15  and  C8_16 
REMARK    9  A    between atoms: C8_16  and  C9_17 
REMARK   10  A    between atoms: C9_17  and  C10_18 
REMARK   11  A    between atoms: C10_18  and  C11_19 
REMARK   12  A    between atoms: C11_19  and  C12_20 
REMARK   13  A    between atoms: C12_20  and  C13_21 
REMARK   14  A    between atoms: C13_21  and  C14_22 
REMARK   15  A    between atoms: C14_22  and  N4_23 
REMARK   16  A    between atoms: C15_25  and  C16_26 
REMARK   17  A    between atoms: C16_26  and  C17_27 
REMARK   18  A    between atoms: C17_27  and  O2_28 
ROOT
HETATM    1  C10 UNL     1      -9.360  57.608  32.381  1.00  0.00     0.000 C 
ENDROOT
BRANCH   1   2
HETATM    2  C9  UNL     1     -10.389  57.058  31.358  1.00  0.00     0.000 C 
BRANCH   2   3
HETATM    3  C8  UNL     1     -11.460  56.271  31.989  1.00  0.00     0.000 C 
BRANCH   3   4
HETATM    4  C7  UNL     1     -11.237  55.892  33.391  1.00  0.00     0.002 C 
BRANCH   4   5
HETATM    5  C6  UNL     1     -11.923  54.785  34.040  1.00  0.00     0.027 C 
BRANCH   5   6
HETATM    6  C5  UNL     1     -11.487  54.390  35.394  1.00  0.00     0.234 C 
BRANCH   6   7
HETATM    7  N3  UNL     1     -12.503  54.747  36.373  1.00  0.00    -0.050 N 
ATOM      8  H32 UNL     1     -13.358  54.204  36.257  1.00  0.00     0.279 HD
ATOM      9  H31 UNL     1     -12.894  55.673  36.202  1.00  0.00     0.279 HD
BRANCH   7  10
HETATM   10  C4  UNL     1     -11.961  54.624  37.687  1.00  0.00     0.474 C 
BRANCH  10  11
HETATM   11  N1  UNL     1     -13.000  54.204  38.600  1.00  0.00    -0.016 N 
HETATM   12  C1  UNL     1     -13.403  52.854  38.221  1.00  0.00     0.281 C 
HETATM   13  C2  UNL     1     -14.112  55.132  38.480  1.00  0.00     0.281 C 
BRANCH  11  14
HETATM   14  C3  UNL     1     -12.595  54.230  39.958  1.00  0.00     0.317 C 
HETATM   15  N2  UNL     1     -12.354  55.353  40.536  1.00  0.00    -0.258 N 
ATOM     16  H2  UNL     1     -12.460  56.211  39.994  1.00  0.00     0.194 HD
BRANCH  15  17
HETATM   17  O1  UNL     1     -11.962  55.452  41.836  1.00  0.00    -0.289 OA
ATOM     18  H1  UNL     1     -12.512  55.820  42.518  1.00  0.00     0.244 HD
ENDBRANCH  15  17
ENDBRANCH  11  14
ENDBRANCH  10  11
ENDBRANCH   7  10
ENDBRANCH   6   7
ENDBRANCH   5   6
ENDBRANCH   4   5
ENDBRANCH   3   4
ENDBRANCH   2   3
ENDBRANCH   1   2
BRANCH   1  19
HETATM   19  C11 UNL     1      -9.473  59.088  32.423  1.00  0.00     0.000 C 
BRANCH  19  20
HETATM   20  C12 UNL     1      -8.164  59.764  31.978  1.00  0.00     0.002 C 
BRANCH  20  21
HETATM   21  C13 UNL     1      -8.457  60.977  31.138  1.00  0.00     0.022 C 
BRANCH  21  22
HETATM   22  C14 UNL     1      -9.298  61.952  31.942  1.00  0.00     0.163 C 
BRANCH  22  23
HETATM   23  N4  UNL     1      -8.377  62.783  32.708  1.00  0.00    -0.128 N 
HETATM   24  N5  UNL     1      -7.432  63.564  32.077  1.00  0.00    -0.117 NA
HETATM   25  C15 UNL     1      -6.353  63.993  32.955  1.00  0.00     0.120 C 
HETATM   26  C18 UNL     1      -6.878  64.684  34.169  1.00  0.00     0.161 C 
HETATM   27  N6  UNL     1      -7.921  63.911  34.817  1.00  0.00    -0.224 N 
HETATM   28  C19 UNL     1      -8.472  62.781  34.117  1.00  0.00     0.685 C 
ATOM     29  H6  UNL     1      -8.256  64.162  35.747  1.00  0.00     0.177 HD
HETATM   30  N7  UNL     1      -9.021  61.823  34.787  1.00  0.00    -0.234 N 
ATOM     31  H72 UNL     1      -9.412  61.022  34.290  1.00  0.00     0.174 HD
ATOM     32  H71 UNL     1      -9.091  61.821  35.804  1.00  0.00     0.174 HD
BRANCH  25  33
HETATM   33  C16 UNL     1      -5.485  62.807  33.180  1.00  0.00     0.051 C 
BRANCH  33  34
HETATM   34  C17 UNL     1      -4.735  62.742  34.458  1.00  0.00     0.165 C 
BRANCH  34  35
HETATM   35  O2  UNL     1      -3.542  63.402  34.518  1.00  0.00    -0.401 OA
ATOM     36  H2  UNL     1      -2.924  63.249  33.812  1.00  0.00     0.209 HD
ENDBRANCH  34  35
ENDBRANCH  33  34
ENDBRANCH  25  33
ENDBRANCH  22  23
ENDBRANCH  21  22
ENDBRANCH  20  21
ENDBRANCH  19  20
ENDBRANCH   1  19
TORSDOF 18
ENDMDL
MODEL 2
REMARK VINA RESULT: -6.130104353      1.400      1.538
REMARK  18 active torsions:
REMARK  status: ('A' for Active; 'I' for Inactive)
REMARK    1  A    between atoms: N1_2  and  C3_4 
REMARK    2  A    between atoms: N1_2  and  C4_9 
REMARK    3  A    between atoms: N2_5  and  O1_7 
REMARK    4  A    between atoms: C4_9  and  N3_10 
REMARK    5  A    between atoms: N3_10  and  C5_13 
REMARK    6  A    between atoms: C5_13  and  C6_14 
REMARK    7  A    between atoms: C6_14  and  C7_15 
REMARK    8  A    between atoms: C7_15  and  C8_16 
REMARK    9  A    between atoms: C8_16  and  C9_17 
REMARK   10  A    between atoms: C9_17  and  C10_18 
REMARK   11  A    between atoms: C10_18  and  C11_19 
REMARK   12  A    between atoms: C11_19  and  C12_20 
REMARK   13  A    between atoms: C12_20  and  C13_21 
REMARK   14  A    between atoms: C13_21  and  C14_22 
REMARK   15  A    between atoms: C14_22  and  N4_23 
REMARK   16  A    between atoms: C15_25  and  C16_26 
REMARK   17  A    between atoms: C16_26  and  C17_27 
REMARK   18  A    between atoms: C17_27  and  O2_28 
ROOT
HETATM    1  C10 UNL     1      -8.768  58.211  31.997  1.00  0.00     0.000 C 
ENDROOT
BRANCH   1   2
HETATM    2  C9  UNL     1      -9.278  56.809  31.569  1.00  0.00     0.000 C 
BRANCH   2   3
HETATM    3  C8  UNL     1     -10.699  56.597  31.881  1.00  0.00     0.000 C 
BRANCH   3   4
HETATM    4  C7  UNL     1     -11.006  56.245  33.274  1.00  0.00     0.002 C 
BRANCH   4   5
HETATM    5  C6  UNL     1     -11.804  55.089  33.650  1.00  0.00     0.027 C 
BRANCH   5   6
HETATM    6  C5  UNL     1     -11.496  54.411  34.926  1.00  0.00     0.234 C 
BRANCH   6   7
HETATM    7  N3  UNL     1     -12.482  54.768  35.935  1.00  0.00    -0.050 N 
ATOM      8  H32 UNL     1     -13.349  54.242  35.829  1.00  0.00     0.279 HD
ATOM      9  H31 UNL     1     -12.860  55.704  35.791  1.00  0.00     0.279 HD
BRANCH   7  10
HETATM   10  C4  UNL     1     -11.911  54.611  37.233  1.00  0.00     0.474 C 
BRANCH  10  11
HETATM   11  N1  UNL     1     -12.959  54.339  38.191  1.00  0.00    -0.016 N 
HETATM   12  C1  UNL     1     -12.984  52.898  38.423  1.00  0.00     0.281 C 
HETATM   13  C2  UNL     1     -14.219  54.797  37.629  1.00  0.00     0.281 C 
BRANCH  11  14
HETATM   14  C3  UNL     1     -12.788  55.028  39.418  1.00  0.00     0.317 C 
HETATM   15  N2  UNL     1     -13.708  55.820  39.843  1.00  0.00    -0.258 N 
ATOM     16  H2  UNL     1     -14.550  55.935  39.278  1.00  0.00     0.194 HD
BRANCH  15  17
HETATM   17  O1  UNL     1     -13.611  56.512  41.012  1.00  0.00    -0.289 OA
ATOM     18  H1  UNL     1     -14.362  56.886  41.458  1.00  0.00     0.244 HD
ENDBRANCH  15  17
ENDBRANCH  11  14
ENDBRANCH  10  11
ENDBRANCH   7  10
ENDBRANCH   6   7
ENDBRANCH   5   6
ENDBRANCH   4   5
ENDBRANCH   3   4
ENDBRANCH   2   3
ENDBRANCH   1   2
BRANCH   1  19
HETATM   19  C11 UNL     1      -9.692  59.241  31.462  1.00  0.00     0.000 C 
BRANCH  19  20
HETATM   20  C12 UNL     1      -9.169  59.834  30.141  1.00  0.00     0.002 C 
BRANCH  20  21
HETATM   21  C13 UNL     1      -7.868  60.557  30.367  1.00  0.00     0.022 C 
BRANCH  21  22
HETATM   22  C14 UNL     1      -8.125  62.053  30.387  1.00  0.00     0.163 C 
BRANCH  22  23
HETATM   23  N4  UNL     1      -7.817  62.523  31.732  1.00  0.00    -0.128 N 
HETATM   24  N5  UNL     1      -6.526  62.494  32.217  1.00  0.00    -0.117 NA
HETATM   25  C15 UNL     1      -6.449  62.596  33.667  1.00  0.00     0.120 C 
HETATM   26  C18 UNL     1      -7.170  63.801  34.170  1.00  0.00     0.161 C 
HETATM   27  N6  UNL     1      -8.512  63.889  33.624  1.00  0.00    -0.224 N 
HETATM   28  C19 UNL     1      -8.867  63.017  32.536  1.00  0.00     0.685 C 
ATOM     29  H6  UNL     1      -9.187  64.553  34.002  1.00  0.00     0.177 HD
HETATM   30  N7  UNL     1     -10.109  62.721  32.337  1.00  0.00    -0.234 N 
ATOM     31  H72 UNL     1     -10.361  62.103  31.566  1.00  0.00     0.174 HD
ATOM     32  H71 UNL     1     -10.868  63.078  32.917  1.00  0.00     0.174 HD
BRANCH  25  33
HETATM   33  C16 UNL     1      -6.874  61.280  34.214  1.00  0.00     0.051 C 
BRANCH  33  34
HETATM   34  C17 UNL     1      -6.647  61.035  35.659  1.00  0.00     0.165 C 
BRANCH  34  35
HETATM   35  O2  UNL     1      -5.458  61.450  36.184  1.00  0.00    -0.401 OA
ATOM     36  H2  UNL     1      -5.489  61.939  36.999  1.00  0.00     0.209 HD
ENDBRANCH  34  35
ENDBRANCH  33  34
ENDBRANCH  25  33
ENDBRANCH  22  23
ENDBRANCH  21  22
ENDBRANCH  20  21
ENDBRANCH  19  20
ENDBRANCH   1  19
TORSDOF 18
ENDMDL
MODEL 3
REMARK VINA RESULT: -6.128547356      7.090      8.136
REMARK  18 active torsions:
REMARK  status: ('A' for Active; 'I' for Inactive)
REMARK    1  A    between atoms: N1_2  and  C3_4 
REMARK    2  A    between atoms: N1_2  and  C4_9 
REMARK    3  A    between atoms: N2_5  and  O1_7 
REMARK    4  A    between atoms: C4_9  and  N3_10 
REMARK    5  A    between atoms: N3_10  and  C5_13 
REMARK    6  A    between atoms: C5_13  and  C6_14 
REMARK    7  A    between atoms: C6_14  and  C7_15 
REMARK    8  A    between atoms: C7_15  and  C8_16 
REMARK    9  A    between atoms: C8_16  and  C9_17 
REMARK   10  A    between atoms: C9_17  and  C10_18 
REMARK   11  A    between atoms: C10_18  and  C11_19 
REMARK   12  A    between atoms: C11_19  and  C12_20 
REMARK   13  A    between atoms: C12_20  and  C13_21 
REMARK   14  A    between atoms: C13_21  and  C14_22 
REMARK   15  A    between atoms: C14_22  and  N4_23 
REMARK   16  A    between atoms: C15_25  and  C16_26 
REMARK   17  A    between atoms: C16_26  and  C17_27 
REMARK   18  A    between atoms: C17_27  and  O2_28 
ROOT
HETATM    1  C10 UNL     1      -1.042  57.259  35.034  1.00  0.00     0.000 C 
ENDROOT
BRANCH   1   2
HETATM    2  C9  UNL     1      -1.617  56.984  33.619  1.00  0.00     0.000 C 
BRANCH   2   3
HETATM    3  C8  UNL     1      -1.999  55.577  33.420  1.00  0.00     0.000 C 
BRANCH   3   4
HETATM    4  C7  UNL     1      -3.175  55.117  34.171  1.00  0.00     0.002 C 
BRANCH   4   5
HETATM    5  C6  UNL     1      -3.094  54.228  35.320  1.00  0.00     0.027 C 
BRANCH   5   6
HETATM    6  C5  UNL     1      -1.810  53.550  35.590  1.00  0.00     0.234 C 
BRANCH   6   7
HETATM    7  N3  UNL     1      -1.677  53.275  37.013  1.00  0.00    -0.050 N 
ATOM      8  H32 UNL     1      -0.717  53.381  37.338  1.00  0.00     0.279 HD
ATOM      9  H31 UNL     1      -1.795  52.285  37.227  1.00  0.00     0.279 HD
BRANCH   7  10
HETATM   10  C4  UNL     1      -2.587  54.096  37.742  1.00  0.00     0.474 C 
BRANCH  10  11
HETATM   11  N1  UNL     1      -3.098  53.361  38.877  1.00  0.00    -0.016 N 
HETATM   12  C1  UNL     1      -2.145  52.296  39.180  1.00  0.00     0.281 C 
HETATM   13  C2  UNL     1      -4.393  52.811  38.516  1.00  0.00     0.281 C 
BRANCH  11  14
HETATM   14  C3  UNL     1      -3.305  54.170  40.022  1.00  0.00     0.317 C 
HETATM   15  N2  UNL     1      -2.990  55.416  39.993  1.00  0.00    -0.258 N 
ATOM     16  H2  UNL     1      -2.591  55.797  39.135  1.00  0.00     0.194 HD
BRANCH  15  17
HETATM   17  O1  UNL     1      -3.162  56.251  41.055  1.00  0.00    -0.289 OA
ATOM     18  H1  UNL     1      -3.698  56.031  41.808  1.00  0.00     0.244 HD
ENDBRANCH  15  17
ENDBRANCH  11  14
ENDBRANCH  10  11
ENDBRANCH   7  10
ENDBRANCH   6   7
ENDBRANCH   5   6
ENDBRANCH   4   5
ENDBRANCH   3   4
ENDBRANCH   2   3
ENDBRANCH   1   2
BRANCH   1  19
HETATM   19  C11 UNL     1      -1.557  58.566  35.513  1.00  0.00     0.000 C 
BRANCH  19  20
HETATM   20  C12 UNL     1      -2.833  58.979  34.758  1.00  0.00     0.002 C 
BRANCH  20  21
HETATM   21  C13 UNL     1      -4.039  58.845  35.647  1.00  0.00     0.022 C 
BRANCH  21  22
HETATM   22  C14 UNL     1      -4.877  60.107  35.546  1.00  0.00     0.163 C 
BRANCH  22  23
HETATM   23  N4  UNL     1      -5.404  60.379  36.877  1.00  0.00    -0.128 N 
HETATM   24  N5  UNL     1      -4.775  59.893  38.004  1.00  0.00    -0.117 NA
HETATM   25  C15 UNL     1      -5.623  59.892  39.187  1.00  0.00     0.120 C 
HETATM   26  C18 UNL     1      -6.196  61.245  39.450  1.00  0.00     0.161 C 
HETATM   27  N6  UNL     1      -6.809  61.808  38.261  1.00  0.00    -0.224 N 
HETATM   28  C19 UNL     1      -6.574  61.161  36.998  1.00  0.00     0.685 C 
ATOM     29  H6  UNL     1      -7.393  62.642  38.319  1.00  0.00     0.177 HD
HETATM   30  N7  UNL     1      -7.425  61.311  36.037  1.00  0.00    -0.234 N 
ATOM     31  H72 UNL     1      -7.259  60.853  35.142  1.00  0.00     0.174 HD
ATOM     32  H71 UNL     1      -8.270  61.876  36.124  1.00  0.00     0.174 HD
BRANCH  25  33
HETATM   33  C16 UNL     1      -6.589  58.774  39.024  1.00  0.00     0.051 C 
BRANCH  33  34
HETATM   34  C17 UNL     1      -6.091  57.399  39.277  1.00  0.00     0.165 C 
BRANCH  34  35
HETATM   35  O2  UNL     1      -4.933  57.029  38.658  1.00  0.00    -0.401 OA
ATOM     36  H2  UNL     1      -4.459  57.702  38.182  1.00  0.00     0.209 HD
ENDBRANCH  34  35
ENDBRANCH  33  34
ENDBRANCH  25  33
ENDBRANCH  22  23
ENDBRANCH  21  22
ENDBRANCH  20  21
ENDBRANCH  19  20
ENDBRANCH   1  19
TORSDOF 18
ENDMDL
MODEL 4
REMARK VINA RESULT: -5.967188312      7.028      9.677
REMARK  18 active torsions:
REMARK  status: ('A' for Active; 'I' for Inactive)
REMARK    1  A    between atoms: N1_2  and  C3_4 
REMARK    2  A    between atoms: N1_2  and  C4_9 
REMARK    3  A    between atoms: N2_5  and  O1_7 
REMARK    4  A    between atoms: C4_9  and  N3_10 
REMARK    5  A    between atoms: N3_10  and  C5_13 
REMARK    6  A    between atoms: C5_13  and  C6_14 
REMARK    7  A    between atoms: C6_14  and  C7_15 
REMARK    8  A    between atoms: C7_15  and  C8_16 
REMARK    9  A    between atoms: C8_16  and  C9_17 
REMARK   10  A    between atoms: C9_17  and  C10_18 
REMARK   11  A    between atoms: C10_18  and  C11_19 
REMARK   12  A    between atoms: C11_19  and  C12_20 
REMARK   13  A    between atoms: C12_20  and  C13_21 
REMARK   14  A    between atoms: C13_21  and  C14_22 
REMARK   15  A    between atoms: C14_22  and  N4_23 
REMARK   16  A    between atoms: C15_25  and  C16_26 
REMARK   17  A    between atoms: C16_26  and  C17_27 
REMARK   18  A    between atoms: C17_27  and  O2_28 
ROOT
HETATM    1  C10 UNL     1      -6.144  52.437  36.444  1.00  0.00     0.000 C 
ENDROOT
BRANCH   1   2
HETATM    2  C9  UNL     1      -6.568  52.850  35.009  1.00  0.00     0.000 C 
BRANCH   2   3
HETATM    3  C8  UNL     1      -5.807  53.998  34.494  1.00  0.00     0.000 C 
BRANCH   3   4
HETATM    4  C7  UNL     1      -5.726  54.112  33.031  1.00  0.00     0.002 C 
BRANCH   4   5
HETATM    5  C6  UNL     1      -5.099  55.233  32.349  1.00  0.00     0.027 C 
BRANCH   5   6
HETATM    6  C5  UNL     1      -3.652  55.160  32.066  1.00  0.00     0.234 C 
BRANCH   6   7
HETATM    7  N3  UNL     1      -2.964  56.291  32.670  1.00  0.00    -0.050 N 
ATOM      8  H32 UNL     1      -3.568  57.107  32.761  1.00  0.00     0.279 HD
ATOM      9  H31 UNL     1      -2.266  56.695  32.047  1.00  0.00     0.279 HD
BRANCH   7  10
HETATM   10  C4  UNL     1      -2.404  55.893  33.921  1.00  0.00     0.474 C 
BRANCH  10  11
HETATM   11  N1  UNL     1      -2.136  57.065  34.724  1.00  0.00    -0.016 N 
HETATM   12  C1  UNL     1      -3.415  57.556  35.231  1.00  0.00     0.281 C 
HETATM   13  C2  UNL     1      -1.497  58.058  33.878  1.00  0.00     0.281 C 
BRANCH  11  14
HETATM   14  C3  UNL     1      -1.249  56.815  35.800  1.00  0.00     0.317 C 
HETATM   15  N2  UNL     1      -1.444  55.806  36.573  1.00  0.00    -0.258 N 
ATOM     16  H2  UNL     1      -2.247  55.203  36.391  1.00  0.00     0.194 HD
BRANCH  15  17
HETATM   17  O1  UNL     1      -0.632  55.506  37.624  1.00  0.00    -0.289 OA
ATOM     18  H1  UNL     1      -0.017  54.782  37.615  1.00  0.00     0.244 HD
ENDBRANCH  15  17
ENDBRANCH  11  14
ENDBRANCH  10  11
ENDBRANCH   7  10
ENDBRANCH   6   7
ENDBRANCH   5   6
ENDBRANCH   4   5
ENDBRANCH   3   4
ENDBRANCH   2   3
ENDBRANCH   1   2
BRANCH   1  19
HETATM   19  C11 UNL     1      -4.725  52.003  36.416  1.00  0.00     0.000 C 
BRANCH  19  20
HETATM   20  C12 UNL     1      -3.915  52.658  37.549  1.00  0.00     0.002 C 
BRANCH  20  21
HETATM   21  C13 UNL     1      -4.263  54.117  37.671  1.00  0.00     0.022 C 
BRANCH  21  22
HETATM   22  C14 UNL     1      -3.856  54.615  39.047  1.00  0.00     0.163 C 
BRANCH  22  23
HETATM   23  N4  UNL     1      -4.783  55.680  39.409  1.00  0.00    -0.128 N 
HETATM   24  N5  UNL     1      -5.826  56.027  38.577  1.00  0.00    -0.117 NA
HETATM   25  C15 UNL     1      -6.387  57.339  38.867  1.00  0.00     0.120 C 
HETATM   26  C18 UNL     1      -6.797  57.455  40.296  1.00  0.00     0.161 C 
HETATM   27  N6  UNL     1      -5.737  57.033  41.194  1.00  0.00    -0.224 N 
HETATM   28  C19 UNL     1      -4.599  56.352  40.637  1.00  0.00     0.685 C 
ATOM     29  H6  UNL     1      -5.797  57.216  42.195  1.00  0.00     0.177 HD
HETATM   30  N7  UNL     1      -3.470  56.380  41.265  1.00  0.00    -0.234 N 
ATOM     31  H72 UNL     1      -2.663  55.897  40.870  1.00  0.00     0.174 HD
ATOM     32  H71 UNL     1      -3.337  56.865  42.152  1.00  0.00     0.174 HD
BRANCH  25  33
HETATM   33  C16 UNL     1      -5.414  58.344  38.363  1.00  0.00     0.051 C 
BRANCH  33  34
HETATM   34  C17 UNL     1      -5.658  59.765  38.710  1.00  0.00     0.165 C 
BRANCH  34  35
HETATM   35  O2  UNL     1      -4.825  60.337  39.627  1.00  0.00    -0.401 OA
ATOM     36  H2  UNL     1      -4.350  61.116  39.358  1.00  0.00     0.209 HD
ENDBRANCH  34  35
ENDBRANCH  33  34
ENDBRANCH  25  33
ENDBRANCH  22  23
ENDBRANCH  21  22
ENDBRANCH  20  21
ENDBRANCH  19  20
ENDBRANCH   1  19
TORSDOF 18
ENDMDL
MODEL 5
REMARK VINA RESULT: -5.965790403      4.662      6.072
REMARK  18 active torsions:
REMARK  status: ('A' for Active; 'I' for Inactive)
REMARK    1  A    between atoms: N1_2  and  C3_4 
REMARK    2  A    between atoms: N1_2  and  C4_9 
REMARK    3  A    between atoms: N2_5  and  O1_7 
REMARK    4  A    between atoms: C4_9  and  N3_10 
REMARK    5  A    between atoms: N3_10  and  C5_13 
REMARK    6  A    between atoms: C5_13  and  C6_14 
REMARK    7  A    between atoms: C6_14  and  C7_15 
REMARK    8  A    between atoms: C7_15  and  C8_16 
REMARK    9  A    between atoms: C8_16  and  C9_17 
REMARK   10  A    between atoms: C9_17  and  C10_18 
REMARK   11  A    between atoms: C10_18  and  C11_19 
REMARK   12  A    between atoms: C11_19  and  C12_20 
REMARK   13  A    between atoms: C12_20  and  C13_21 
REMARK   14  A    between atoms: C13_21  and  C14_22 
REMARK   15  A    between atoms: C14_22  and  N4_23 
REMARK   16  A    between atoms: C15_25  and  C16_26 
REMARK   17  A    between atoms: C16_26  and  C17_27 
REMARK   18  A    between atoms: C17_27  and  O2_28 
ROOT
HETATM    1  C10 UNL     1      -8.636  57.121  32.263  1.00  0.00     0.000 C 
ENDROOT
BRANCH   1   2
HETATM    2  C9  UNL     1      -9.781  56.678  31.313  1.00  0.00     0.000 C 
BRANCH   2   3
HETATM    3  C8  UNL     1     -11.064  56.499  32.008  1.00  0.00     0.000 C 
BRANCH   3   4
HETATM    4  C7  UNL     1     -10.982  56.054  33.406  1.00  0.00     0.002 C 
BRANCH   4   5
HETATM    5  C6  UNL     1     -11.886  55.075  33.989  1.00  0.00     0.027 C 
BRANCH   5   6
HETATM    6  C5  UNL     1     -11.492  54.427  35.256  1.00  0.00     0.234 C 
BRANCH   6   7
HETATM    7  N3  UNL     1     -12.440  54.763  36.308  1.00  0.00    -0.050 N 
ATOM      8  H32 UNL     1     -13.346  54.317  36.166  1.00  0.00     0.279 HD
ATOM      9  H31 UNL     1     -12.746  55.734  36.256  1.00  0.00     0.279 HD
BRANCH   7  10
HETATM   10  C4  UNL     1     -11.875  54.443  37.577  1.00  0.00     0.474 C 
BRANCH  10  11
HETATM   11  N1  UNL     1     -12.932  54.117  38.509  1.00  0.00    -0.016 N 
HETATM   12  C1  UNL     1     -13.403  52.773  38.190  1.00  0.00     0.281 C 
HETATM   13  C2  UNL     1     -13.996  55.093  38.346  1.00  0.00     0.281 C 
BRANCH  11  14
HETATM   14  C3  UNL     1     -12.524  54.183  39.864  1.00  0.00     0.317 C 
HETATM   15  N2  UNL     1     -12.325  55.326  40.420  1.00  0.00    -0.258 N 
ATOM     16  H2  UNL     1     -12.468  56.169  39.863  1.00  0.00     0.194 HD
BRANCH  15  17
HETATM   17  O1  UNL     1     -11.934  55.464  41.717  1.00  0.00    -0.289 OA
ATOM     18  H1  UNL     1     -12.363  56.051  42.329  1.00  0.00     0.244 HD
ENDBRANCH  15  17
ENDBRANCH  11  14
ENDBRANCH  10  11
ENDBRANCH   7  10
ENDBRANCH   6   7
ENDBRANCH   5   6
ENDBRANCH   4   5
ENDBRANCH   3   4
ENDBRANCH   2   3
ENDBRANCH   1   2
BRANCH   1  19
HETATM   19  C11 UNL     1      -7.350  56.597  31.739  1.00  0.00     0.000 C 
BRANCH  19  20
HETATM   20  C12 UNL     1      -6.594  55.789  32.808  1.00  0.00     0.002 C 
BRANCH  20  21
HETATM   21  C13 UNL     1      -5.324  55.219  32.239  1.00  0.00     0.022 C 
BRANCH  21  22
HETATM   22  C14 UNL     1      -4.142  56.026  32.746  1.00  0.00     0.163 C 
BRANCH  22  23
HETATM   23  N4  UNL     1      -3.887  55.599  34.116  1.00  0.00    -0.128 N 
HETATM   24  N5  UNL     1      -3.628  54.278  34.412  1.00  0.00    -0.117 NA
HETATM   25  C15 UNL     1      -3.806  53.953  35.820  1.00  0.00     0.120 C 
HETATM   26  C18 UNL     1      -3.000  54.853  36.696  1.00  0.00     0.161 C 
HETATM   27  N6  UNL     1      -3.207  56.251  36.362  1.00  0.00    -0.224 N 
HETATM   28  C19 UNL     1      -3.903  56.568  35.143  1.00  0.00     0.685 C 
ATOM     29  H6  UNL     1      -2.866  56.990  36.976  1.00  0.00     0.177 HD
HETATM   30  N7  UNL     1      -4.509  57.704  35.034  1.00  0.00    -0.234 N 
ATOM     31  H72 UNL     1      -5.003  57.929  34.171  1.00  0.00     0.174 HD
ATOM     32  H71 UNL     1      -4.521  58.404  35.776  1.00  0.00     0.174 HD
BRANCH  25  33
HETATM   33  C16 UNL     1      -5.271  53.908  36.068  1.00  0.00     0.051 C 
BRANCH  33  34
HETATM   34  C17 UNL     1      -5.727  53.960  37.480  1.00  0.00     0.165 C 
BRANCH  34  35
HETATM   35  O2  UNL     1      -6.870  53.285  37.793  1.00  0.00    -0.401 OA
ATOM     36  H2  UNL     1      -7.375  52.926  37.072  1.00  0.00     0.209 HD
ENDBRANCH  34  35
ENDBRANCH  33  34
ENDBRANCH  25  33
ENDBRANCH  22  23
ENDBRANCH  21  22
ENDBRANCH  20  21
ENDBRANCH  19  20
ENDBRANCH   1  19
TORSDOF 18
ENDMDL
