MODEL 1
REMARK VINA RESULT: -6.229101239      0.000      0.000
REMARK  16 active torsions:
REMARK  status: ('A' for Active; 'I' for Inactive)
REMARK    1  A    between atoms: N1_2  and  C3_5 
REMARK    2  A    between atoms: C3_5  and  C4_6 
REMARK    3  A    between atoms: C4_6  and  N2_7 
REMARK    4  A    between atoms: N2_7  and  C5_9 
REMARK    5  A    between atoms: C5_9  and  C6_10 
REMARK    6  A    between atoms: C6_10  and  C7_11 
REMARK    7  A    between atoms: C7_11  and  C8_12 
REMARK    8  A    between atoms: C8_12  and  C9_13 
REMARK    9  A    between atoms: C9_13  and  N3_14 
REMARK   10  A    between atoms: C9_13  and  C10_18 
REMARK   11  A    between atoms: C10_18  and  O2_19 
REMARK   12  A    between atoms: O2_19  and  C11_20 
REMARK   13  A    between atoms: C14_23  and  C15_24 
REMARK   14  A    between atoms: C15_24  and  C16_25 
REMARK   15  A    between atoms: C16_25  and  C17_26 
REMARK   16  A    between atoms: C16_25  and  N4_28 
ROOT
HETATM    1  C9  UNL     1      -7.092  56.840  31.553  1.00  0.00     0.207 C 
ENDROOT
BRANCH   1   2
HETATM    2  C8  UNL     1      -8.539  56.882  31.221  1.00  0.00     0.035 C 
BRANCH   2   3
HETATM    3  C7  UNL     1      -9.536  56.683  32.277  1.00  0.00     0.004 C 
BRANCH   3   4
HETATM    4  C6  UNL     1     -10.972  56.659  31.951  1.00  0.00     0.019 C 
BRANCH   4   5
HETATM    5  C5  UNL     1     -11.743  55.614  32.746  1.00  0.00     0.113 C 
BRANCH   5   6
HETATM    6  N2  UNL     1     -11.214  55.572  34.067  1.00  0.00    -0.419 N 
ATOM      7  H2  UNL     1     -10.735  56.378  34.471  1.00  0.00     0.153 HD
BRANCH   6   8
HETATM    8  C4  UNL     1     -11.378  54.368  34.802  1.00  0.00     0.150 C 
BRANCH   8   9
HETATM    9  C3  UNL     1     -12.351  54.583  35.941  1.00  0.00     0.330 C 
BRANCH   9  10
HETATM   10  N1  UNL     1     -11.830  53.957  37.134  1.00  0.00     0.007 N 
HETATM   11  C1  UNL     1     -12.939  53.463  37.935  1.00  0.00     0.355 C 
HETATM   12  C2  UNL     1     -11.020  54.842  37.945  1.00  0.00     0.355 C 
HETATM   13  O1  UNL     1     -11.044  52.925  36.757  1.00  0.00    -0.065 OA
ENDBRANCH   9  10
ENDBRANCH   8   9
ENDBRANCH   6   8
ENDBRANCH   5   6
ENDBRANCH   4   5
ENDBRANCH   3   4
ENDBRANCH   2   3
ENDBRANCH   1   2
BRANCH   1  14
HETATM   14  N3  UNL     1      -6.804  57.742  32.600  1.00  0.00    -0.073 N 
ATOM     15  H33 UNL     1      -5.904  58.202  32.469  1.00  0.00     0.274 HD
ATOM     16  H32 UNL     1      -7.402  58.567  32.567  1.00  0.00     0.274 HD
ATOM     17  H31 UNL     1      -6.860  57.268  33.501  1.00  0.00     0.274 HD
ENDBRANCH   1  14
BRANCH   1  18
HETATM   18  C10 UNL     1      -6.417  55.520  31.564  1.00  0.00     0.208 C 
BRANCH  18  19
HETATM   19  O2  UNL     1      -6.512  54.702  32.623  1.00  0.00    -0.349 OA
BRANCH  19  20
HETATM   20  C11 UNL     1      -6.006  54.363  33.794  1.00  0.00     0.068 A 
HETATM   21  C12 UNL     1      -4.872  55.059  34.278  1.00  0.00     0.037 A 
HETATM   22  C13 UNL     1      -4.265  54.802  35.454  1.00  0.00     0.010 A 
HETATM   23  C14 UNL     1      -4.754  53.807  36.256  1.00  0.00    -0.056 A 
HETATM   24  C19 UNL     1      -5.847  53.082  35.866  1.00  0.00     0.010 A 
HETATM   25  C20 UNL     1      -6.456  53.373  34.637  1.00  0.00     0.037 A 
BRANCH  23  26
HETATM   26  C15 UNL     1      -4.088  53.525  37.569  1.00  0.00     0.070 C 
BRANCH  26  27
HETATM   27  C16 UNL     1      -4.285  54.633  38.563  1.00  0.00     0.149 C 
BRANCH  27  28
HETATM   28  C17 UNL     1      -3.481  54.480  39.802  1.00  0.00     0.256 C 
HETATM   29  O3  UNL     1      -3.742  53.693  40.670  1.00  0.00    -0.305 OA
ENDBRANCH  27  28
BRANCH  27  30
HETATM   30  N4  UNL     1      -5.646  54.891  38.873  1.00  0.00    -0.356 N 
HETATM   31  C18 UNL     1      -6.213  56.019  38.807  1.00  0.00     0.197 C 
HETATM   32  N5  UNL     1      -7.614  56.095  39.162  1.00  0.00    -0.067 NA
HETATM   33  N6  UNL     1      -5.581  57.222  38.413  1.00  0.00    -0.067 NA
ATOM     34  H4  UNL     1      -6.214  54.100  39.174  1.00  0.00     0.162 HD
ENDBRANCH  27  30
ENDBRANCH  26  27
ENDBRANCH  23  26
ENDBRANCH  19  20
ENDBRANCH  18  19
ENDBRANCH   1  18
TORSDOF 16
ENDMDL
MODEL 2
REMARK VINA RESULT: -6.204078942      3.450      4.364
REMARK  16 active torsions:
REMARK  status: ('A' for Active; 'I' for Inactive)
REMARK    1  A    between atoms: N1_2  and  C3_5 
REMARK    2  A    between atoms: C3_5  and  C4_6 
REMARK    3  A    between atoms: C4_6  and  N2_7 
REMARK    4  A    between atoms: N2_7  and  C5_9 
REMARK    5  A    between atoms: C5_9  and  C6_10 
REMARK    6  A    between atoms: C6_10  and  C7_11 
REMARK    7  A    between atoms: C7_11  and  C8_12 
REMARK    8  A    between atoms: C8_12  and  C9_13 
REMARK    9  A    between atoms: C9_13  and  N3_14 
REMARK   10  A    between atoms: C9_13  and  C10_18 
REMARK   11  A    between atoms: C10_18  and  O2_19 
REMARK   12  A    between atoms: O2_19  and  C11_20 
REMARK   13  A    between atoms: C14_23  and  C15_24 
REMARK   14  A    between atoms: C15_24  and  C16_25 
REMARK   15  A    between atoms: C16_25  and  C17_26 
REMARK   16  A    between atoms: C16_25  and  N4_28 
ROOT
HETATM    1  C9  UNL     1      -9.070  60.000  31.318  1.00  0.00     0.207 C 
ENDROOT
BRANCH   1   2
HETATM    2  C8  UNL     1      -9.824  58.721  31.371  1.00  0.00     0.035 C 
BRANCH   2   3
HETATM    3  C7  UNL     1      -9.863  57.950  32.616  1.00  0.00     0.004 C 
BRANCH   3   4
HETATM    4  C6  UNL     1     -10.140  56.504  32.589  1.00  0.00     0.019 C 
BRANCH   4   5
HETATM    5  C5  UNL     1     -11.506  56.150  33.162  1.00  0.00     0.113 C 
BRANCH   5   6
HETATM    6  N2  UNL     1     -11.525  54.757  33.455  1.00  0.00    -0.419 N 
ATOM      7  H2  UNL     1     -11.805  54.072  32.752  1.00  0.00     0.153 HD
BRANCH   6   8
HETATM    8  C4  UNL     1     -11.140  54.356  34.762  1.00  0.00     0.150 C 
BRANCH   8   9
HETATM    9  C3  UNL     1     -12.254  54.645  35.744  1.00  0.00     0.330 C 
BRANCH   9  10
HETATM   10  N1  UNL     1     -11.925  54.054  37.021  1.00  0.00     0.007 N 
HETATM   11  C1  UNL     1     -13.157  53.722  37.720  1.00  0.00     0.355 C 
HETATM   12  C2  UNL     1     -11.119  54.910  37.864  1.00  0.00     0.355 C 
HETATM   13  O1  UNL     1     -11.213  52.930  36.791  1.00  0.00    -0.065 OA
ENDBRANCH   9  10
ENDBRANCH   8   9
ENDBRANCH   6   8
ENDBRANCH   5   6
ENDBRANCH   4   5
ENDBRANCH   3   4
ENDBRANCH   2   3
ENDBRANCH   1   2
BRANCH   1  14
HETATM   14  N3  UNL     1      -9.836  61.044  31.880  1.00  0.00    -0.073 N 
ATOM     15  H33 UNL     1     -10.469  61.461  31.198  1.00  0.00     0.274 HD
ATOM     16  H32 UNL     1     -10.533  60.693  32.537  1.00  0.00     0.274 HD
ATOM     17  H31 UNL     1      -9.226  61.740  32.308  1.00  0.00     0.274 HD
ENDBRANCH   1  14
BRANCH   1  18
HETATM   18  C10 UNL     1      -7.616  59.965  31.610  1.00  0.00     0.208 C 
BRANCH  18  19
HETATM   19  O2  UNL     1      -7.112  60.586  32.687  1.00  0.00    -0.349 OA
BRANCH  19  20
HETATM   20  C11 UNL     1      -6.612  60.442  33.899  1.00  0.00     0.068 A 
HETATM   21  C12 UNL     1      -7.227  61.120  34.980  1.00  0.00     0.037 A 
HETATM   22  C13 UNL     1      -6.806  61.056  36.259  1.00  0.00     0.010 A 
HETATM   23  C14 UNL     1      -5.713  60.290  36.565  1.00  0.00    -0.056 A 
HETATM   24  C19 UNL     1      -5.056  59.602  35.582  1.00  0.00     0.010 A 
HETATM   25  C20 UNL     1      -5.518  59.690  34.262  1.00  0.00     0.037 A 
BRANCH  23  26
HETATM   26  C15 UNL     1      -5.248  60.208  37.988  1.00  0.00     0.070 C 
BRANCH  26  27
HETATM   27  C16 UNL     1      -6.104  59.296  38.819  1.00  0.00     0.149 C 
BRANCH  27  28
HETATM   28  C17 UNL     1      -7.002  60.008  39.763  1.00  0.00     0.256 C 
HETATM   29  O3  UNL     1      -8.194  59.873  39.776  1.00  0.00    -0.305 OA
ENDBRANCH  27  28
BRANCH  27  30
HETATM   30  N4  UNL     1      -5.377  58.276  39.487  1.00  0.00    -0.356 N 
HETATM   31  C18 UNL     1      -5.677  57.048  39.499  1.00  0.00     0.197 C 
HETATM   32  N5  UNL     1      -4.816  56.147  40.236  1.00  0.00    -0.067 NA
HETATM   33  N6  UNL     1      -6.796  56.481  38.847  1.00  0.00    -0.067 NA
ATOM     34  H4  UNL     1      -4.542  58.558  40.000  1.00  0.00     0.162 HD
ENDBRANCH  27  30
ENDBRANCH  26  27
ENDBRANCH  23  26
ENDBRANCH  19  20
ENDBRANCH  18  19
ENDBRANCH   1  18
TORSDOF 16
ENDMDL
MODEL 3
REMARK VINA RESULT: -6.194335310      5.145      7.650
REMARK  16 active torsions:
REMARK  status: ('A' for Active; 'I' for Inactive)
REMARK    1  A    between atoms: N1_2  and  C3_5 
REMARK    2  A    between atoms: C3_5  and  C4_6 
REMARK    3  A    between atoms: C4_6  and  N2_7 
REMARK    4  A    between atoms: N2_7  and  C5_9 
REMARK    5  A    between atoms: C5_9  and  C6_10 
REMARK    6  A    between atoms: C6_10  and  C7_11 
REMARK    7  A    between atoms: C7_11  and  C8_12 
REMARK    8  A    between atoms: C8_12  and  C9_13 
REMARK    9  A    between atoms: C9_13  and  N3_14 
REMARK   10  A    between atoms: C9_13  and  C10_18 
REMARK   11  A    between atoms: C10_18  and  O2_19 
REMARK   12  A    between atoms: O2_19  and  C11_20 
REMARK   13  A    between atoms: C14_23  and  C15_24 
REMARK   14  A    between atoms: C15_24  and  C16_25 
REMARK   15  A    between atoms: C16_25  and  C17_26 
REMARK   16  A    between atoms: C16_25  and  N4_28 
ROOT
HETATM    1  C9  UNL     1      -3.263  52.815  39.882  1.00  0.00     0.207 C 
ENDROOT
BRANCH   1   2
HETATM    2  C8  UNL     1      -4.544  52.909  39.137  1.00  0.00     0.035 C 
BRANCH   2   3
HETATM    3  C7  UNL     1      -4.923  54.170  38.495  1.00  0.00     0.004 C 
BRANCH   3   4
HETATM    4  C6  UNL     1      -4.443  55.454  39.032  1.00  0.00     0.019 C 
BRANCH   4   5
HETATM    5  C5  UNL     1      -5.562  56.316  39.600  1.00  0.00     0.113 C 
BRANCH   5   6
HETATM    6  N2  UNL     1      -5.103  57.662  39.670  1.00  0.00    -0.419 N 
ATOM      7  H2  UNL     1      -4.431  57.955  40.379  1.00  0.00     0.153 HD
BRANCH   6   8
HETATM    8  C4  UNL     1      -5.616  58.581  38.716  1.00  0.00     0.150 C 
BRANCH   8   9
HETATM    9  C3  UNL     1      -5.497  59.996  39.240  1.00  0.00     0.330 C 
BRANCH   9  10
HETATM   10  N1  UNL     1      -6.816  60.503  39.541  1.00  0.00     0.007 N 
HETATM   11  C1  UNL     1      -7.532  60.729  38.295  1.00  0.00     0.355 C 
HETATM   12  C2  UNL     1      -6.803  61.730  40.307  1.00  0.00     0.355 C 
HETATM   13  O1  UNL     1      -7.463  59.574  40.278  1.00  0.00    -0.065 OA
ENDBRANCH   9  10
ENDBRANCH   8   9
ENDBRANCH   6   8
ENDBRANCH   5   6
ENDBRANCH   4   5
ENDBRANCH   3   4
ENDBRANCH   2   3
ENDBRANCH   1   2
BRANCH   1  14
HETATM   14  N3  UNL     1      -3.507  52.535  41.244  1.00  0.00    -0.073 N 
ATOM     15  H33 UNL     1      -3.655  53.385  41.787  1.00  0.00     0.274 HD
ATOM     16  H32 UNL     1      -4.421  52.104  41.386  1.00  0.00     0.274 HD
ATOM     17  H31 UNL     1      -2.755  51.964  41.629  1.00  0.00     0.274 HD
ENDBRANCH   1  14
BRANCH   1  18
HETATM   18  C10 UNL     1      -2.121  52.134  39.224  1.00  0.00     0.208 C 
BRANCH  18  19
HETATM   19  O2  UNL     1      -1.498  52.688  38.173  1.00  0.00    -0.349 OA
BRANCH  19  20
HETATM   20  C11 UNL     1      -1.618  53.466  37.114  1.00  0.00     0.068 A 
HETATM   21  C12 UNL     1      -1.340  54.849  37.244  1.00  0.00     0.037 A 
HETATM   22  C13 UNL     1      -1.430  55.742  36.238  1.00  0.00     0.010 A 
HETATM   23  C14 UNL     1      -1.813  55.313  34.996  1.00  0.00    -0.056 A 
HETATM   24  C19 UNL     1      -2.103  53.994  34.781  1.00  0.00     0.010 A 
HETATM   25  C20 UNL     1      -2.000  53.089  35.847  1.00  0.00     0.037 A 
BRANCH  23  26
HETATM   26  C15 UNL     1      -1.906  56.302  33.873  1.00  0.00     0.070 C 
BRANCH  26  27
HETATM   27  C16 UNL     1      -2.699  57.521  34.245  1.00  0.00     0.149 C 
BRANCH  27  28
HETATM   28  C17 UNL     1      -3.923  57.715  33.426  1.00  0.00     0.256 C 
HETATM   29  O3  UNL     1      -5.022  57.394  33.787  1.00  0.00    -0.305 OA
ENDBRANCH  27  28
BRANCH  27  30
HETATM   30  N4  UNL     1      -1.931  58.713  34.295  1.00  0.00    -0.356 N 
HETATM   31  C18 UNL     1      -2.081  59.649  35.132  1.00  0.00     0.197 C 
HETATM   32  N5  UNL     1      -1.203  60.795  35.032  1.00  0.00    -0.067 NA
HETATM   33  N6  UNL     1      -3.047  59.664  36.165  1.00  0.00    -0.067 NA
ATOM     34  H4  UNL     1      -1.197  58.825  33.596  1.00  0.00     0.162 HD
ENDBRANCH  27  30
ENDBRANCH  26  27
ENDBRANCH  23  26
ENDBRANCH  19  20
ENDBRANCH  18  19
ENDBRANCH   1  18
TORSDOF 16
ENDMDL
MODEL 4
REMARK VINA RESULT: -6.192262763      4.082      7.555
REMARK  16 active torsions:
REMARK  status: ('A' for Active; 'I' for Inactive)
REMARK    1  A    between atoms: N1_2  and  C3_5 
REMARK    2  A    between atoms: C3_5  and  C4_6 
REMARK    3  A    between atoms: C4_6  and  N2_7 
REMARK    4  A    between atoms: N2_7  and  C5_9 
REMARK    5  A    between atoms: C5_9  and  C6_10 
REMARK    6  A    between atoms: C6_10  and  C7_11 
REMARK    7  A    between atoms: C7_11  and  C8_12 
REMARK    8  A    between atoms: C8_12  and  C9_13 
REMARK    9  A    between atoms: C9_13  and  N3_14 
REMARK   10  A    between atoms: C9_13  and  C10_18 
REMARK   11  A    between atoms: C10_18  and  O2_19 
REMARK   12  A    between atoms: O2_19  and  C11_20 
REMARK   13  A    between atoms: C14_23  and  C15_24 
REMARK   14  A    between atoms: C15_24  and  C16_25 
REMARK   15  A    between atoms: C16_25  and  C17_26 
REMARK   16  A    between atoms: C16_25  and  N4_28 
ROOT
HETATM    1  C9  UNL     1      -2.922  54.652  39.399  1.00  0.00     0.207 C 
ENDROOT
BRANCH   1   2
HETATM    2  C8  UNL     1      -4.000  53.632  39.330  1.00  0.00     0.035 C 
BRANCH   2   3
HETATM    3  C7  UNL     1      -4.917  53.617  38.186  1.00  0.00     0.004 C 
BRANCH   3   4
HETATM    4  C6  UNL     1      -5.445  54.878  37.638  1.00  0.00     0.019 C 
BRANCH   4   5
HETATM    5  C5  UNL     1      -6.238  55.683  38.659  1.00  0.00     0.113 C 
BRANCH   5   6
HETATM    6  N2  UNL     1      -5.834  57.045  38.571  1.00  0.00    -0.419 N 
ATOM      7  H2  UNL     1      -5.088  57.335  37.938  1.00  0.00     0.153 HD
BRANCH   6   8
HETATM    8  C4  UNL     1      -6.506  57.984  39.397  1.00  0.00     0.150 C 
BRANCH   8   9
HETATM    9  C3  UNL     1      -5.859  59.346  39.270  1.00  0.00     0.330 C 
BRANCH   9  10
HETATM   10  N1  UNL     1      -6.882  60.364  39.325  1.00  0.00     0.007 N 
HETATM   11  C1  UNL     1      -7.180  60.811  37.973  1.00  0.00     0.355 C 
HETATM   12  C2  UNL     1      -6.517  61.509  40.131  1.00  0.00     0.355 C 
HETATM   13  O1  UNL     1      -7.987  59.818  39.879  1.00  0.00    -0.065 OA
ENDBRANCH   9  10
ENDBRANCH   8   9
ENDBRANCH   6   8
ENDBRANCH   5   6
ENDBRANCH   4   5
ENDBRANCH   3   4
ENDBRANCH   2   3
ENDBRANCH   1   2
BRANCH   1  14
HETATM   14  N3  UNL     1      -3.050  55.420  40.577  1.00  0.00    -0.073 N 
ATOM     15  H33 UNL     1      -2.158  55.530  41.058  1.00  0.00     0.274 HD
ATOM     16  H32 UNL     1      -3.233  56.402  40.373  1.00  0.00     0.274 HD
ATOM     17  H31 UNL     1      -3.763  55.019  41.186  1.00  0.00     0.274 HD
ENDBRANCH   1  14
BRANCH   1  18
HETATM   18  C10 UNL     1      -1.559  54.257  38.968  1.00  0.00     0.208 C 
BRANCH  18  19
HETATM   19  O2  UNL     1      -1.167  54.403  37.694  1.00  0.00    -0.349 OA
BRANCH  19  20
HETATM   20  C11 UNL     1      -1.529  54.728  36.467  1.00  0.00     0.068 A 
HETATM   21  C12 UNL     1      -1.436  56.082  36.061  1.00  0.00     0.037 A 
HETATM   22  C13 UNL     1      -1.779  56.537  34.840  1.00  0.00     0.010 A 
HETATM   23  C14 UNL     1      -2.251  55.654  33.906  1.00  0.00    -0.056 A 
HETATM   24  C19 UNL     1      -2.374  54.327  34.213  1.00  0.00     0.010 A 
HETATM   25  C20 UNL     1      -2.011  53.885  35.492  1.00  0.00     0.037 A 
BRANCH  23  26
HETATM   26  C15 UNL     1      -2.623  56.155  32.543  1.00  0.00     0.070 C 
BRANCH  26  27
HETATM   27  C16 UNL     1      -3.547  55.217  31.820  1.00  0.00     0.149 C 
BRANCH  27  28
HETATM   28  C17 UNL     1      -2.996  54.693  30.545  1.00  0.00     0.256 C 
HETATM   29  O3  UNL     1      -1.868  54.301  30.420  1.00  0.00    -0.305 OA
ENDBRANCH  27  28
BRANCH  27  30
HETATM   30  N4  UNL     1      -4.856  55.733  31.630  1.00  0.00    -0.356 N 
HETATM   31  C18 UNL     1      -5.927  55.175  32.004  1.00  0.00     0.197 C 
HETATM   32  N5  UNL     1      -7.176  55.850  31.724  1.00  0.00    -0.067 NA
HETATM   33  N6  UNL     1      -6.001  53.933  32.676  1.00  0.00    -0.067 NA
ATOM     34  H4  UNL     1      -4.939  56.630  31.151  1.00  0.00     0.162 HD
ENDBRANCH  27  30
ENDBRANCH  26  27
ENDBRANCH  23  26
ENDBRANCH  19  20
ENDBRANCH  18  19
ENDBRANCH   1  18
TORSDOF 16
ENDMDL
MODEL 5
REMARK VINA RESULT: -6.130309249      3.757      7.243
REMARK  16 active torsions:
REMARK  status: ('A' for Active; 'I' for Inactive)
REMARK    1  A    between atoms: N1_2  and  C3_5 
REMARK    2  A    between atoms: C3_5  and  C4_6 
REMARK    3  A    between atoms: C4_6  and  N2_7 
REMARK    4  A    between atoms: N2_7  and  C5_9 
REMARK    5  A    between atoms: C5_9  and  C6_10 
REMARK    6  A    between atoms: C6_10  and  C7_11 
REMARK    7  A    between atoms: C7_11  and  C8_12 
REMARK    8  A    between atoms: C8_12  and  C9_13 
REMARK    9  A    between atoms: C9_13  and  N3_14 
REMARK   10  A    between atoms: C9_13  and  C10_18 
REMARK   11  A    between atoms: C10_18  and  O2_19 
REMARK   12  A    between atoms: O2_19  and  C11_20 
REMARK   13  A    between atoms: C14_23  and  C15_24 
REMARK   14  A    between atoms: C15_24  and  C16_25 
REMARK   15  A    between atoms: C16_25  and  C17_26 
REMARK   16  A    between atoms: C16_25  and  N4_28 
ROOT
HETATM    1  C9  UNL     1      -4.805  52.288  38.876  1.00  0.00     0.207 C 
ENDROOT
BRANCH   1   2
HETATM    2  C8  UNL     1      -3.762  52.489  37.839  1.00  0.00     0.035 C 
BRANCH   2   3
HETATM    3  C7  UNL     1      -4.066  52.207  36.434  1.00  0.00     0.004 C 
BRANCH   3   4
HETATM    4  C6  UNL     1      -4.248  53.308  35.474  1.00  0.00     0.019 C 
BRANCH   4   5
HETATM    5  C5  UNL     1      -2.954  54.052  35.172  1.00  0.00     0.113 C 
BRANCH   5   6
HETATM    6  N2  UNL     1      -3.281  55.296  34.562  1.00  0.00    -0.419 N 
ATOM      7  H2  UNL     1      -3.084  56.182  35.028  1.00  0.00     0.153 HD
BRANCH   6   8
HETATM    8  C4  UNL     1      -3.892  55.258  33.280  1.00  0.00     0.150 C 
BRANCH   8   9
HETATM    9  C3  UNL     1      -5.159  56.088  33.283  1.00  0.00     0.330 C 
BRANCH   9  10
HETATM   10  N1  UNL     1      -6.206  55.355  32.610  1.00  0.00     0.007 N 
HETATM   11  C1  UNL     1      -5.603  54.402  31.691  1.00  0.00     0.355 C 
HETATM   12  C2  UNL     1      -7.125  56.200  31.878  1.00  0.00     0.355 C 
HETATM   13  O1  UNL     1      -6.924  54.696  33.546  1.00  0.00    -0.065 OA
ENDBRANCH   9  10
ENDBRANCH   8   9
ENDBRANCH   6   8
ENDBRANCH   5   6
ENDBRANCH   4   5
ENDBRANCH   3   4
ENDBRANCH   2   3
ENDBRANCH   1   2
BRANCH   1  14
HETATM   14  N3  UNL     1      -4.223  52.285  40.162  1.00  0.00    -0.073 N 
ATOM     15  H33 UNL     1      -4.439  51.430  40.675  1.00  0.00     0.274 HD
ATOM     16  H32 UNL     1      -3.209  52.184  40.121  1.00  0.00     0.274 HD
ATOM     17  H31 UNL     1      -4.502  53.118  40.679  1.00  0.00     0.274 HD
ENDBRANCH   1  14
BRANCH   1  18
HETATM   18  C10 UNL     1      -6.106  52.979  38.701  1.00  0.00     0.208 C 
BRANCH  18  19
HETATM   19  O2  UNL     1      -6.245  54.279  39.002  1.00  0.00    -0.349 OA
BRANCH  19  20
HETATM   20  C11 UNL     1      -5.900  55.516  38.700  1.00  0.00     0.068 A 
HETATM   21  C12 UNL     1      -6.324  56.572  39.544  1.00  0.00     0.037 A 
HETATM   22  C13 UNL     1      -6.039  57.873  39.339  1.00  0.00     0.010 A 
HETATM   23  C14 UNL     1      -5.291  58.230  38.249  1.00  0.00    -0.056 A 
HETATM   24  C19 UNL     1      -4.840  57.274  37.380  1.00  0.00     0.010 A 
HETATM   25  C20 UNL     1      -5.154  55.929  37.620  1.00  0.00     0.037 A 
BRANCH  23  26
HETATM   26  C15 UNL     1      -4.964  59.675  38.023  1.00  0.00     0.070 C 
BRANCH  26  27
HETATM   27  C16 UNL     1      -6.190  60.539  37.962  1.00  0.00     0.149 C 
BRANCH  27  28
HETATM   28  C17 UNL     1      -6.458  61.109  36.618  1.00  0.00     0.256 C 
HETATM   29  O3  UNL     1      -5.734  61.897  36.074  1.00  0.00    -0.305 OA
ENDBRANCH  27  28
BRANCH  27  30
HETATM   30  N4  UNL     1      -6.231  61.550  38.957  1.00  0.00    -0.356 N 
HETATM   31  C18 UNL     1      -7.074  61.622  39.897  1.00  0.00     0.197 C 
HETATM   32  N5  UNL     1      -6.962  62.728  40.824  1.00  0.00    -0.067 NA
HETATM   33  N6  UNL     1      -8.127  60.703  40.113  1.00  0.00    -0.067 NA
ATOM     34  H4  UNL     1      -5.520  62.279  38.910  1.00  0.00     0.162 HD
ENDBRANCH  27  30
ENDBRANCH  26  27
ENDBRANCH  23  26
ENDBRANCH  19  20
ENDBRANCH  18  19
ENDBRANCH   1  18
TORSDOF 16
ENDMDL
