MODEL 1
REMARK VINA RESULT: -6.247772795      0.000      0.000
REMARK  19 active torsions:
REMARK  status: ('A' for Active; 'I' for Inactive)
REMARK    1  A    between atoms: C2_2  and  C3_3 
REMARK    2  A    between atoms: C3_3  and  N1_4 
REMARK    3  A    between atoms: N1_4  and  C4_6 
REMARK    4  A    between atoms: C5_9  and  N3_10 
REMARK    5  A    between atoms: N3_10  and  C6_12 
REMARK    6  A    between atoms: C6_12  and  C7_13 
REMARK    7  A    between atoms: C7_13  and  C8_14 
REMARK    8  A    between atoms: C8_14  and  C9_15 
REMARK    9  A    between atoms: C9_15  and  C10_16 
REMARK   10  A    between atoms: C10_16  and  C11_17 
REMARK   11  A    between atoms: C11_17  and  N4_18 
REMARK   12  A    between atoms: C14_23  and  N6_24 
REMARK   13  A    between atoms: N6_24  and  C15_26 
REMARK   14  A    between atoms: C15_26  and  C16_27 
REMARK   15  A    between atoms: C16_27  and  C17_28 
REMARK   16  A    between atoms: C17_28  and  N7_29 
REMARK   17  A    between atoms: N7_29  and  C18_31 
REMARK   18  A    between atoms: C18_31  and  C19_32 
REMARK   19  A    between atoms: C19_32  and  O1_33 
ROOT
HETATM    1  C4  UNL     1      -6.106  61.345  39.607  1.00  0.00     0.707 A 
HETATM    2  N2  UNL     1      -6.556  61.887  38.464  1.00  0.00    -0.022 N 
ATOM      3  H2  UNL     1      -6.980  62.814  38.453  1.00  0.00     0.203 HD
HETATM    4  C5  UNL     1      -6.428  61.157  37.315  1.00  0.00     0.707 A 
HETATM    5  N5  UNL     1      -5.872  59.958  37.370  1.00  0.00    -0.022 N 
ATOM      6  H5  UNL     1      -5.786  59.430  36.502  1.00  0.00     0.203 HD
HETATM    7  C14 UNL     1      -5.407  59.385  38.518  1.00  0.00     0.707 A 
HETATM    8  N8  UNL     1      -5.536  60.109  39.639  1.00  0.00    -0.022 N 
ATOM      9  H8  UNL     1      -5.206  59.729  40.526  1.00  0.00     0.203 HD
ENDROOT
BRANCH   4  10
HETATM   10  N3  UNL     1      -6.880  61.746  36.270  1.00  0.00    -0.225 N 
ATOM     11  H3  UNL     1      -7.869  61.996  36.239  1.00  0.00     0.177 HD
BRANCH  10  12
HETATM   12  C6  UNL     1      -6.063  62.066  35.155  1.00  0.00     0.138 C 
BRANCH  12  13
HETATM   13  C7  UNL     1      -5.772  63.555  35.049  1.00  0.00     0.020 C 
BRANCH  13  14
HETATM   14  C8  UNL     1      -7.030  64.314  34.652  1.00  0.00     0.002 C 
BRANCH  14  15
HETATM   15  C9  UNL     1      -6.636  65.807  34.562  1.00  0.00     0.002 C 
BRANCH  15  16
HETATM   16  C10 UNL     1      -6.323  66.142  33.137  1.00  0.00     0.030 C 
BRANCH  16  17
HETATM   17  C11 UNL     1      -4.942  66.484  32.817  1.00  0.00     0.271 C 
BRANCH  17  18
HETATM   18  N4  UNL     1      -3.996  66.775  33.830  1.00  0.00     0.080 N 
HETATM   19  C12 UNL     1      -3.329  68.068  33.551  1.00  0.00     0.309 C 
HETATM   20  C13 UNL     1      -2.972  65.767  34.049  1.00  0.00     0.309 C 
ENDBRANCH  17  18
ENDBRANCH  16  17
ENDBRANCH  15  16
ENDBRANCH  14  15
ENDBRANCH  13  14
ENDBRANCH  12  13
ENDBRANCH  10  12
ENDBRANCH   4  10
BRANCH   1  21
HETATM   21  N1  UNL     1      -6.171  61.955  40.756  1.00  0.00    -0.222 N 
ATOM     22  H1  UNL     1      -6.081  61.389  41.599  1.00  0.00     0.178 HD
BRANCH  21  23
HETATM   23  C3  UNL     1      -6.360  63.365  40.918  1.00  0.00     0.164 C 
BRANCH  23  24
HETATM   24  C2  UNL     1      -5.430  63.960  41.895  1.00  0.00    -0.017 C 
HETATM   25  C1  UNL     1      -5.225  65.254  41.912  1.00  0.00     0.008 C 
ENDBRANCH  23  24
ENDBRANCH  21  23
ENDBRANCH   1  21
BRANCH   7  26
HETATM   26  N6  UNL     1      -4.878  58.216  38.481  1.00  0.00    -0.225 N 
ATOM     27  H6  UNL     1      -3.864  58.174  38.584  1.00  0.00     0.177 HD
BRANCH  26  28
HETATM   28  C15 UNL     1      -5.549  56.968  38.313  1.00  0.00     0.143 C 
BRANCH  28  29
HETATM   29  C16 UNL     1      -4.766  55.969  37.468  1.00  0.00     0.065 C 
BRANCH  29  30
HETATM   30  C17 UNL     1      -4.189  54.875  38.289  1.00  0.00     0.062 C 
BRANCH  30  31
HETATM   31  N7  UNL     1      -3.181  55.281  39.155  1.00  0.00    -0.380 N 
ATOM     32  H7  UNL     1      -2.389  55.776  38.746  1.00  0.00     0.164 HD
BRANCH  31  33
HETATM   33  C18 UNL     1      -3.157  55.075  40.520  1.00  0.00     0.086 C 
BRANCH  33  34
HETATM   34  C19 UNL     1      -3.909  55.954  41.452  1.00  0.00     0.208 C 
BRANCH  34  35
HETATM   35  O1  UNL     1      -3.667  57.312  41.238  1.00  0.00    -0.396 OA
ATOM     36  H1  UNL     1      -3.661  57.821  42.040  1.00  0.00     0.209 HD
ENDBRANCH  34  35
ENDBRANCH  33  34
ENDBRANCH  31  33
ENDBRANCH  30  31
ENDBRANCH  29  30
ENDBRANCH  28  29
ENDBRANCH  26  28
ENDBRANCH   7  26
TORSDOF 19
ENDMDL
MODEL 2
REMARK VINA RESULT: -6.151365749      1.904      2.888
REMARK  19 active torsions:
REMARK  status: ('A' for Active; 'I' for Inactive)
REMARK    1  A    between atoms: C2_2  and  C3_3 
REMARK    2  A    between atoms: C3_3  and  N1_4 
REMARK    3  A    between atoms: N1_4  and  C4_6 
REMARK    4  A    between atoms: C5_9  and  N3_10 
REMARK    5  A    between atoms: N3_10  and  C6_12 
REMARK    6  A    between atoms: C6_12  and  C7_13 
REMARK    7  A    between atoms: C7_13  and  C8_14 
REMARK    8  A    between atoms: C8_14  and  C9_15 
REMARK    9  A    between atoms: C9_15  and  C10_16 
REMARK   10  A    between atoms: C10_16  and  C11_17 
REMARK   11  A    between atoms: C11_17  and  N4_18 
REMARK   12  A    between atoms: C14_23  and  N6_24 
REMARK   13  A    between atoms: N6_24  and  C15_26 
REMARK   14  A    between atoms: C15_26  and  C16_27 
REMARK   15  A    between atoms: C16_27  and  C17_28 
REMARK   16  A    between atoms: C17_28  and  N7_29 
REMARK   17  A    between atoms: N7_29  and  C18_31 
REMARK   18  A    between atoms: C18_31  and  C19_32 
REMARK   19  A    between atoms: C19_32  and  O1_33 
ROOT
HETATM    1  C4  UNL     1      -6.236  61.309  39.578  1.00  0.00     0.707 A 
HETATM    2  N2  UNL     1      -6.508  61.879  38.393  1.00  0.00    -0.022 N 
ATOM      3  H2  UNL     1      -6.890  62.823  38.340  1.00  0.00     0.203 HD
HETATM    4  C5  UNL     1      -6.256  61.156  37.261  1.00  0.00     0.707 A 
HETATM    5  N5  UNL     1      -5.759  59.935  37.372  1.00  0.00    -0.022 N 
ATOM      6  H5  UNL     1      -5.578  59.412  36.515  1.00  0.00     0.203 HD
HETATM    7  C14 UNL     1      -5.474  59.333  38.563  1.00  0.00     0.707 A 
HETATM    8  N8  UNL     1      -5.725  60.050  39.668  1.00  0.00    -0.022 N 
ATOM      9  H8  UNL     1      -5.531  59.649  40.585  1.00  0.00     0.203 HD
ENDROOT
BRANCH   4  10
HETATM   10  N3  UNL     1      -6.540  61.773  36.174  1.00  0.00    -0.225 N 
ATOM     11  H3  UNL     1      -7.468  62.186  36.075  1.00  0.00     0.177 HD
BRANCH  10  12
HETATM   12  C6  UNL     1      -5.619  61.905  35.103  1.00  0.00     0.138 C 
BRANCH  12  13
HETATM   13  C7  UNL     1      -5.452  63.347  34.648  1.00  0.00     0.020 C 
BRANCH  13  14
HETATM   14  C8  UNL     1      -6.661  64.176  35.057  1.00  0.00     0.002 C 
BRANCH  14  15
HETATM   15  C9  UNL     1      -7.504  64.389  33.778  1.00  0.00     0.002 C 
BRANCH  15  16
HETATM   16  C10 UNL     1      -8.805  63.662  33.927  1.00  0.00     0.030 C 
BRANCH  16  17
HETATM   17  C11 UNL     1      -9.105  62.619  32.951  1.00  0.00     0.271 C 
BRANCH  17  18
HETATM   18  N4  UNL     1      -8.213  61.544  32.718  1.00  0.00     0.080 N 
HETATM   19  C12 UNL     1      -7.948  61.407  31.266  1.00  0.00     0.309 C 
HETATM   20  C13 UNL     1      -8.631  60.251  33.233  1.00  0.00     0.309 C 
ENDBRANCH  17  18
ENDBRANCH  16  17
ENDBRANCH  15  16
ENDBRANCH  14  15
ENDBRANCH  13  14
ENDBRANCH  12  13
ENDBRANCH  10  12
ENDBRANCH   4  10
BRANCH   1  21
HETATM   21  N1  UNL     1      -6.431  61.910  40.717  1.00  0.00    -0.222 N 
ATOM     22  H1  UNL     1      -6.560  61.328  41.545  1.00  0.00     0.178 HD
BRANCH  21  23
HETATM   23  C3  UNL     1      -6.477  63.331  40.889  1.00  0.00     0.164 C 
BRANCH  23  24
HETATM   24  C2  UNL     1      -5.415  63.836  41.779  1.00  0.00    -0.017 C 
HETATM   25  C1  UNL     1      -5.240  65.124  41.935  1.00  0.00     0.008 C 
ENDBRANCH  23  24
ENDBRANCH  21  23
ENDBRANCH   1  21
BRANCH   7  26
HETATM   26  N6  UNL     1      -4.991  58.143  38.580  1.00  0.00    -0.225 N 
ATOM     27  H6  UNL     1      -4.440  57.890  39.400  1.00  0.00     0.177 HD
BRANCH  26  28
HETATM   28  C15 UNL     1      -5.138  57.136  37.581  1.00  0.00     0.143 C 
BRANCH  28  29
HETATM   29  C16 UNL     1      -5.479  55.763  38.152  1.00  0.00     0.065 C 
BRANCH  29  30
HETATM   30  C17 UNL     1      -4.292  54.873  38.211  1.00  0.00     0.062 C 
BRANCH  30  31
HETATM   31  N7  UNL     1      -3.979  54.422  39.488  1.00  0.00    -0.380 N 
ATOM     32  H7  UNL     1      -4.355  53.515  39.765  1.00  0.00     0.164 HD
BRANCH  31  33
HETATM   33  C18 UNL     1      -3.206  55.093  40.415  1.00  0.00     0.086 C 
BRANCH  33  34
HETATM   34  C19 UNL     1      -3.819  55.916  41.488  1.00  0.00     0.208 C 
BRANCH  34  35
HETATM   35  O1  UNL     1      -3.671  57.289  41.278  1.00  0.00    -0.396 OA
ATOM     36  H1  UNL     1      -4.100  57.816  41.941  1.00  0.00     0.209 HD
ENDBRANCH  34  35
ENDBRANCH  33  34
ENDBRANCH  31  33
ENDBRANCH  30  31
ENDBRANCH  29  30
ENDBRANCH  28  29
ENDBRANCH  26  28
ENDBRANCH   7  26
TORSDOF 19
ENDMDL
MODEL 3
REMARK VINA RESULT: -6.150826256      7.418      8.964
REMARK  19 active torsions:
REMARK  status: ('A' for Active; 'I' for Inactive)
REMARK    1  A    between atoms: C2_2  and  C3_3 
REMARK    2  A    between atoms: C3_3  and  N1_4 
REMARK    3  A    between atoms: N1_4  and  C4_6 
REMARK    4  A    between atoms: C5_9  and  N3_10 
REMARK    5  A    between atoms: N3_10  and  C6_12 
REMARK    6  A    between atoms: C6_12  and  C7_13 
REMARK    7  A    between atoms: C7_13  and  C8_14 
REMARK    8  A    between atoms: C8_14  and  C9_15 
REMARK    9  A    between atoms: C9_15  and  C10_16 
REMARK   10  A    between atoms: C10_16  and  C11_17 
REMARK   11  A    between atoms: C11_17  and  N4_18 
REMARK   12  A    between atoms: C14_23  and  N6_24 
REMARK   13  A    between atoms: N6_24  and  C15_26 
REMARK   14  A    between atoms: C15_26  and  C16_27 
REMARK   15  A    between atoms: C16_27  and  C17_28 
REMARK   16  A    between atoms: C17_28  and  N7_29 
REMARK   17  A    between atoms: N7_29  and  C18_31 
REMARK   18  A    between atoms: C18_31  and  C19_32 
REMARK   19  A    between atoms: C19_32  and  O1_33 
ROOT
HETATM    1  C4  UNL     1     -12.348  54.420  36.544  1.00  0.00     0.707 A 
HETATM    2  N2  UNL     1     -12.466  54.946  35.315  1.00  0.00    -0.022 N 
ATOM      3  H2  UNL     1     -13.216  55.601  35.093  1.00  0.00     0.203 HD
HETATM    4  C5  UNL     1     -11.549  54.579  34.370  1.00  0.00     0.707 A 
HETATM    5  N5  UNL     1     -10.591  53.728  34.697  1.00  0.00    -0.022 N 
ATOM      6  H5  UNL     1      -9.916  53.467  33.978  1.00  0.00     0.203 HD
HETATM    7  C14 UNL     1     -10.449  53.179  35.939  1.00  0.00     0.707 A 
HETATM    8  N8  UNL     1     -11.353  53.546  36.858  1.00  0.00    -0.022 N 
ATOM      9  H8  UNL     1     -11.295  53.166  37.803  1.00  0.00     0.203 HD
ENDROOT
BRANCH   4  10
HETATM   10  N3  UNL     1     -11.731  55.128  33.226  1.00  0.00    -0.225 N 
ATOM     11  H3  UNL     1     -12.183  54.585  32.490  1.00  0.00     0.177 HD
BRANCH  10  12
HETATM   12  C6  UNL     1     -11.329  56.458  32.940  1.00  0.00     0.138 C 
BRANCH  12  13
HETATM   13  C7  UNL     1     -10.803  56.620  31.523  1.00  0.00     0.020 C 
BRANCH  13  14
HETATM   14  C8  UNL     1      -9.567  57.509  31.514  1.00  0.00     0.002 C 
BRANCH  14  15
HETATM   15  C9  UNL     1      -8.393  56.631  31.024  1.00  0.00     0.002 C 
BRANCH  15  16
HETATM   16  C10 UNL     1      -7.398  56.487  32.133  1.00  0.00     0.030 C 
BRANCH  16  17
HETATM   17  C11 UNL     1      -6.154  55.786  31.831  1.00  0.00     0.271 C 
BRANCH  17  18
HETATM   18  N4  UNL     1      -5.192  55.518  32.834  1.00  0.00     0.080 N 
HETATM   19  C12 UNL     1      -5.632  54.377  33.672  1.00  0.00     0.309 C 
HETATM   20  C13 UNL     1      -4.862  56.630  33.710  1.00  0.00     0.309 C 
ENDBRANCH  17  18
ENDBRANCH  16  17
ENDBRANCH  15  16
ENDBRANCH  14  15
ENDBRANCH  13  14
ENDBRANCH  12  13
ENDBRANCH  10  12
ENDBRANCH   4  10
BRANCH   1  21
HETATM   21  N1  UNL     1     -13.162  54.707  37.520  1.00  0.00    -0.222 N 
ATOM     22  H1  UNL     1     -13.990  55.261  37.300  1.00  0.00     0.178 HD
BRANCH  21  23
HETATM   23  C3  UNL     1     -12.976  54.300  38.880  1.00  0.00     0.164 C 
BRANCH  23  24
HETATM   24  C2  UNL     1     -12.687  55.429  39.783  1.00  0.00    -0.017 C 
HETATM   25  C1  UNL     1     -12.776  55.278  41.081  1.00  0.00     0.008 C 
ENDBRANCH  23  24
ENDBRANCH  21  23
ENDBRANCH   1  21
BRANCH   7  26
HETATM   26  N6  UNL     1      -9.486  52.362  36.172  1.00  0.00    -0.225 N 
ATOM     27  H6  UNL     1      -9.693  51.586  36.800  1.00  0.00     0.177 HD
BRANCH  26  28
HETATM   28  C15 UNL     1      -8.159  52.417  35.650  1.00  0.00     0.143 C 
BRANCH  28  29
HETATM   29  C16 UNL     1      -7.095  52.001  36.660  1.00  0.00     0.065 C 
BRANCH  29  30
HETATM   30  C17 UNL     1      -6.243  53.144  37.076  1.00  0.00     0.062 C 
BRANCH  30  31
HETATM   31  N7  UNL     1      -6.510  53.619  38.354  1.00  0.00    -0.380 N 
ATOM     32  H7  UNL     1      -6.594  52.927  39.099  1.00  0.00     0.164 HD
BRANCH  31  33
HETATM   33  C18 UNL     1      -6.672  54.945  38.706  1.00  0.00     0.086 C 
BRANCH  33  34
HETATM   34  C19 UNL     1      -7.961  55.455  39.239  1.00  0.00     0.208 C 
BRANCH  34  35
HETATM   35  O1  UNL     1      -9.064  55.052  38.483  1.00  0.00    -0.396 OA
ATOM     36  H1  UNL     1      -9.098  55.462  37.627  1.00  0.00     0.209 HD
ENDBRANCH  34  35
ENDBRANCH  33  34
ENDBRANCH  31  33
ENDBRANCH  30  31
ENDBRANCH  29  30
ENDBRANCH  28  29
ENDBRANCH  26  28
ENDBRANCH   7  26
TORSDOF 19
ENDMDL
MODEL 4
REMARK VINA RESULT: -6.103779056      2.390      3.581
REMARK  19 active torsions:
REMARK  status: ('A' for Active; 'I' for Inactive)
REMARK    1  A    between atoms: C2_2  and  C3_3 
REMARK    2  A    between atoms: C3_3  and  N1_4 
REMARK    3  A    between atoms: N1_4  and  C4_6 
REMARK    4  A    between atoms: C5_9  and  N3_10 
REMARK    5  A    between atoms: N3_10  and  C6_12 
REMARK    6  A    between atoms: C6_12  and  C7_13 
REMARK    7  A    between atoms: C7_13  and  C8_14 
REMARK    8  A    between atoms: C8_14  and  C9_15 
REMARK    9  A    between atoms: C9_15  and  C10_16 
REMARK   10  A    between atoms: C10_16  and  C11_17 
REMARK   11  A    between atoms: C11_17  and  N4_18 
REMARK   12  A    between atoms: C14_23  and  N6_24 
REMARK   13  A    between atoms: N6_24  and  C15_26 
REMARK   14  A    between atoms: C15_26  and  C16_27 
REMARK   15  A    between atoms: C16_27  and  C17_28 
REMARK   16  A    between atoms: C17_28  and  N7_29 
REMARK   17  A    between atoms: N7_29  and  C18_31 
REMARK   18  A    between atoms: C18_31  and  C19_32 
REMARK   19  A    between atoms: C19_32  and  O1_33 
ROOT
HETATM    1  C4  UNL     1      -6.457  61.420  39.525  1.00  0.00     0.707 A 
HETATM    2  N2  UNL     1      -6.651  61.982  38.321  1.00  0.00    -0.022 N 
ATOM      3  H2  UNL     1      -7.081  62.903  38.234  1.00  0.00     0.203 HD
HETATM    4  C5  UNL     1      -6.254  61.283  37.216  1.00  0.00     0.707 A 
HETATM    5  N5  UNL     1      -5.699  60.093  37.370  1.00  0.00    -0.022 N 
ATOM      6  H5  UNL     1      -5.410  59.587  36.532  1.00  0.00     0.203 HD
HETATM    7  C14 UNL     1      -5.491  59.499  38.581  1.00  0.00     0.707 A 
HETATM    8  N8  UNL     1      -5.884  60.193  39.659  1.00  0.00    -0.022 N 
ATOM      9  H8  UNL     1      -5.752  59.796  40.590  1.00  0.00     0.203 HD
ENDROOT
BRANCH   4  10
HETATM   10  N3  UNL     1      -6.472  61.891  36.108  1.00  0.00    -0.225 N 
ATOM     11  H3  UNL     1      -7.385  62.322  35.959  1.00  0.00     0.177 HD
BRANCH  10  12
HETATM   12  C6  UNL     1      -5.498  61.989  35.082  1.00  0.00     0.138 C 
BRANCH  12  13
HETATM   13  C7  UNL     1      -5.472  63.362  34.427  1.00  0.00     0.020 C 
BRANCH  13  14
HETATM   14  C8  UNL     1      -6.586  64.237  34.984  1.00  0.00     0.002 C 
BRANCH  14  15
HETATM   15  C9  UNL     1      -7.547  64.530  33.809  1.00  0.00     0.002 C 
BRANCH  15  16
HETATM   16  C10 UNL     1      -8.782  63.700  33.973  1.00  0.00     0.030 C 
BRANCH  16  17
HETATM   17  C11 UNL     1      -9.122  62.784  32.889  1.00  0.00     0.271 C 
BRANCH  17  18
HETATM   18  N4  UNL     1      -8.331  61.643  32.607  1.00  0.00     0.080 N 
HETATM   19  C12 UNL     1      -8.521  61.225  31.198  1.00  0.00     0.309 C 
HETATM   20  C13 UNL     1      -8.554  60.490  33.463  1.00  0.00     0.309 C 
ENDBRANCH  17  18
ENDBRANCH  16  17
ENDBRANCH  15  16
ENDBRANCH  14  15
ENDBRANCH  13  14
ENDBRANCH  12  13
ENDBRANCH  10  12
ENDBRANCH   4  10
BRANCH   1  21
HETATM   21  N1  UNL     1      -6.791  62.001  40.642  1.00  0.00    -0.222 N 
ATOM     22  H1  UNL     1      -7.145  61.412  41.396  1.00  0.00     0.178 HD
BRANCH  21  23
HETATM   23  C3  UNL     1      -6.695  63.408  40.887  1.00  0.00     0.164 C 
BRANCH  23  24
HETATM   24  C2  UNL     1      -5.529  63.769  41.714  1.00  0.00    -0.017 C 
HETATM   25  C1  UNL     1      -5.214  65.026  41.902  1.00  0.00     0.008 C 
ENDBRANCH  23  24
ENDBRANCH  21  23
ENDBRANCH   1  21
BRANCH   7  26
HETATM   26  N6  UNL     1      -4.943  58.339  38.640  1.00  0.00    -0.225 N 
ATOM     27  H6  UNL     1      -3.926  58.322  38.712  1.00  0.00     0.177 HD
BRANCH  26  28
HETATM   28  C15 UNL     1      -5.597  57.072  38.617  1.00  0.00     0.143 C 
BRANCH  28  29
HETATM   29  C16 UNL     1      -4.830  56.009  37.837  1.00  0.00     0.065 C 
BRANCH  29  30
HETATM   30  C17 UNL     1      -4.441  56.482  36.484  1.00  0.00     0.062 C 
BRANCH  30  31
HETATM   31  N7  UNL     1      -3.069  56.563  36.281  1.00  0.00    -0.380 N 
ATOM     32  H7  UNL     1      -2.484  55.896  36.785  1.00  0.00     0.164 HD
BRANCH  31  33
HETATM   33  C18 UNL     1      -2.426  57.467  35.458  1.00  0.00     0.086 C 
BRANCH  33  34
HETATM   34  C19 UNL     1      -2.932  58.853  35.282  1.00  0.00     0.208 C 
BRANCH  34  35
HETATM   35  O1  UNL     1      -2.854  59.616  36.449  1.00  0.00    -0.396 OA
ATOM     36  H1  UNL     1      -2.334  60.404  36.346  1.00  0.00     0.209 HD
ENDBRANCH  34  35
ENDBRANCH  33  34
ENDBRANCH  31  33
ENDBRANCH  30  31
ENDBRANCH  29  30
ENDBRANCH  28  29
ENDBRANCH  26  28
ENDBRANCH   7  26
TORSDOF 19
ENDMDL
MODEL 5
REMARK VINA RESULT: -6.087535729      2.996      8.814
REMARK  19 active torsions:
REMARK  status: ('A' for Active; 'I' for Inactive)
REMARK    1  A    between atoms: C2_2  and  C3_3 
REMARK    2  A    between atoms: C3_3  and  N1_4 
REMARK    3  A    between atoms: N1_4  and  C4_6 
REMARK    4  A    between atoms: C5_9  and  N3_10 
REMARK    5  A    between atoms: N3_10  and  C6_12 
REMARK    6  A    between atoms: C6_12  and  C7_13 
REMARK    7  A    between atoms: C7_13  and  C8_14 
REMARK    8  A    between atoms: C8_14  and  C9_15 
REMARK    9  A    between atoms: C9_15  and  C10_16 
REMARK   10  A    between atoms: C10_16  and  C11_17 
REMARK   11  A    between atoms: C11_17  and  N4_18 
REMARK   12  A    between atoms: C14_23  and  N6_24 
REMARK   13  A    between atoms: N6_24  and  C15_26 
REMARK   14  A    between atoms: C15_26  and  C16_27 
REMARK   15  A    between atoms: C16_27  and  C17_28 
REMARK   16  A    between atoms: C17_28  and  N7_29 
REMARK   17  A    between atoms: N7_29  and  C18_31 
REMARK   18  A    between atoms: C18_31  and  C19_32 
REMARK   19  A    between atoms: C19_32  and  O1_33 
ROOT
HETATM    1  C4  UNL     1      -6.876  61.344  39.592  1.00  0.00     0.707 A 
HETATM    2  N2  UNL     1      -6.274  60.197  39.945  1.00  0.00    -0.022 N 
ATOM      3  H2  UNL     1      -6.284  59.874  40.913  1.00  0.00     0.203 HD
HETATM    4  C5  UNL     1      -5.647  59.475  38.968  1.00  0.00     0.707 A 
HETATM    5  N5  UNL     1      -5.657  59.926  37.725  1.00  0.00    -0.022 N 
ATOM      6  H5  UNL     1      -5.184  59.372  37.011  1.00  0.00     0.203 HD
HETATM    7  C14 UNL     1      -6.262  61.087  37.340  1.00  0.00     0.707 A 
HETATM    8  N8  UNL     1      -6.873  61.788  38.305  1.00  0.00    -0.022 N 
ATOM      9  H8  UNL     1      -7.341  62.665  38.073  1.00  0.00     0.203 HD
ENDROOT
BRANCH   4  10
HETATM   10  N3  UNL     1      -5.101  58.394  39.388  1.00  0.00    -0.225 N 
ATOM     11  H3  UNL     1      -4.108  58.407  39.623  1.00  0.00     0.177 HD
BRANCH  10  12
HETATM   12  C6  UNL     1      -5.818  57.179  39.540  1.00  0.00     0.138 C 
BRANCH  12  13
HETATM   13  C7  UNL     1      -4.958  55.953  39.276  1.00  0.00     0.020 C 
BRANCH  13  14
HETATM   14  C8  UNL     1      -5.507  55.164  38.096  1.00  0.00     0.002 C 
BRANCH  14  15
HETATM   15  C9  UNL     1      -6.214  53.921  38.685  1.00  0.00     0.002 C 
BRANCH  15  16
HETATM   16  C10 UNL     1      -5.707  52.697  37.987  1.00  0.00     0.030 C 
BRANCH  16  17
HETATM   17  C11 UNL     1      -6.610  52.039  37.049  1.00  0.00     0.271 C 
BRANCH  17  18
HETATM   18  N4  UNL     1      -7.289  52.764  36.040  1.00  0.00     0.080 N 
HETATM   19  C12 UNL     1      -8.534  52.059  35.654  1.00  0.00     0.309 C 
HETATM   20  C13 UNL     1      -6.525  53.041  34.836  1.00  0.00     0.309 C 
ENDBRANCH  17  18
ENDBRANCH  16  17
ENDBRANCH  15  16
ENDBRANCH  14  15
ENDBRANCH  13  14
ENDBRANCH  12  13
ENDBRANCH  10  12
ENDBRANCH   4  10
BRANCH   1  21
HETATM   21  N1  UNL     1      -7.508  62.105  40.440  1.00  0.00    -0.222 N 
ATOM     22  H1  UNL     1      -8.348  61.729  40.880  1.00  0.00     0.178 HD
BRANCH  21  23
HETATM   23  C3  UNL     1      -7.106  63.431  40.797  1.00  0.00     0.164 C 
BRANCH  23  24
HETATM   24  C2  UNL     1      -5.833  63.465  41.541  1.00  0.00    -0.017 C 
HETATM   25  C1  UNL     1      -5.284  64.610  41.863  1.00  0.00     0.008 C 
ENDBRANCH  23  24
ENDBRANCH  21  23
ENDBRANCH   1  21
BRANCH   7  26
HETATM   26  N6  UNL     1      -6.225  61.451  36.109  1.00  0.00    -0.225 N 
ATOM     27  H6  UNL     1      -6.485  62.418  35.914  1.00  0.00     0.177 HD
BRANCH  26  28
HETATM   28  C15 UNL     1      -5.862  60.654  34.982  1.00  0.00     0.143 C 
BRANCH  28  29
HETATM   29  C16 UNL     1      -6.920  60.642  33.884  1.00  0.00     0.065 C 
BRANCH  29  30
HETATM   30  C17 UNL     1      -8.223  61.172  34.358  1.00  0.00     0.062 C 
BRANCH  30  31
HETATM   31  N7  UNL     1      -8.716  62.232  33.607  1.00  0.00    -0.380 N 
ATOM     32  H7  UNL     1      -9.096  62.011  32.687  1.00  0.00     0.164 HD
BRANCH  31  33
HETATM   33  C18 UNL     1      -8.736  63.558  33.995  1.00  0.00     0.086 C 
BRANCH  33  34
HETATM   34  C19 UNL     1      -7.483  64.339  34.152  1.00  0.00     0.208 C 
BRANCH  34  35
HETATM   35  O1  UNL     1      -7.004  64.349  35.464  1.00  0.00    -0.396 OA
ATOM     36  H1  UNL     1      -6.703  65.205  35.744  1.00  0.00     0.209 HD
ENDBRANCH  34  35
ENDBRANCH  33  34
ENDBRANCH  31  33
ENDBRANCH  30  31
ENDBRANCH  29  30
ENDBRANCH  28  29
ENDBRANCH  26  28
ENDBRANCH   7  26
TORSDOF 19
ENDMDL
