MODEL 1
REMARK VINA RESULT: -9.801310329      0.000      0.000
REMARK  4 active torsions:
REMARK  status: ('A' for Active; 'I' for Inactive)
REMARK    1  A    between atoms: C3_4  and  C4_5 
REMARK    2  A    between atoms: C6_7  and  C7_8 
REMARK    3  A    between atoms: C10_17  and  N4_18 
REMARK    4  A    between atoms: N5_24  and  C16_25 
ROOT
HETATM    1  F1  UNL     1      30.033  57.540  92.869  1.00  0.00    -0.203 F 
HETATM    2  C1  UNL     1      29.926  58.698  92.204  1.00  0.00     0.161 A 
HETATM    3  C2  UNL     1      29.285  58.851  90.999  1.00  0.00     0.077 A 
HETATM    4  C3  UNL     1      29.205  60.069  90.357  1.00  0.00     0.065 A 
HETATM    5  N3  UNL     1      29.769  61.135  90.925  1.00  0.00    -0.337 N 
ATOM      6  H3  UNL     1      29.709  62.035  90.449  1.00  0.00     0.167 HD
HETATM    7  C10 UNL     1      30.427  61.064  92.126  1.00  0.00     0.161 A 
HETATM    8  C20 UNL     1      30.500  59.849  92.754  1.00  0.00     0.199 A 
HETATM    9  F4  UNL     1      31.121  59.740  93.945  1.00  0.00    -0.199 F 
ENDROOT
BRANCH   7  10
HETATM   10  N4  UNL     1      31.025  62.216  92.677  1.00  0.00    -0.291 N 
HETATM   11  C11 UNL     1      32.469  62.320  92.830  1.00  0.00     0.150 C 
HETATM   12  C12 UNL     1      32.992  63.524  92.084  1.00  0.00     0.011 A 
HETATM   13  C13 UNL     1      33.342  64.705  92.970  1.00  0.00     0.013 A 
HETATM   14  C14 UNL     1      32.106  64.692  92.130  1.00  0.00     0.007 A 
HETATM   15  C15 UNL     1      30.761  64.565  92.701  1.00  0.00     0.121 C 
HETATM   16  N5  UNL     1      30.281  63.290  93.105  1.00  0.00    -0.196 NA
BRANCH  16  17
HETATM   17  C16 UNL     1      29.891  63.214  94.486  1.00  0.00     0.286 C 
HETATM   18  C17 UNL     1      31.026  63.416  95.430  1.00  0.00     0.058 C 
HETATM   19  C18 UNL     1      31.022  62.178  96.264  1.00  0.00     0.114 C 
HETATM   20  C19 UNL     1      29.625  61.643  96.176  1.00  0.00     0.405 C 
HETATM   21  F2  UNL     1      29.587  60.247  96.218  1.00  0.00    -0.174 F 
HETATM   22  F3  UNL     1      28.826  62.119  97.197  1.00  0.00    -0.174 F 
HETATM   23  N6  UNL     1      29.171  62.053  94.879  1.00  0.00     0.009 N 
ATOM     24  H62 UNL     1      28.161  62.190  94.845  1.00  0.00     0.286 HD
ATOM     25  H61 UNL     1      29.235  61.303  94.189  1.00  0.00     0.286 HD
ENDBRANCH  16  17
ENDBRANCH   7  10
BRANCH   4  26
HETATM   26  C4  UNL     1      28.501  60.167  89.066  1.00  0.00     0.076 A 
HETATM   27  C5  UNL     1      27.338  59.550  88.662  1.00  0.00     0.060 A 
HETATM   28  C6  UNL     1      27.046  59.935  87.359  1.00  0.00     0.032 A 
HETATM   29  N1  UNL     1      28.036  60.771  87.015  1.00  0.00    -0.304 N 
HETATM   30  N2  UNL     1      28.903  60.913  88.024  1.00  0.00    -0.298 N 
ATOM     31  H1  UNL     1      28.116  61.234  86.109  1.00  0.00     0.186 HD
ATOM     32  H2  UNL     1      29.739  61.497  88.005  1.00  0.00     0.187 HD
BRANCH  28  33
HETATM   33  C7  UNL     1      25.881  59.498  86.550  1.00  0.00     0.037 A 
HETATM   34  C8  UNL     1      26.163  58.302  85.637  1.00  0.00     0.011 A 
HETATM   35  C9  UNL     1      25.240  58.201  86.801  1.00  0.00     0.011 A 
ENDBRANCH  28  33
ENDBRANCH   4  26
TORSDOF 4
ENDMDL
MODEL 2
REMARK VINA RESULT: -9.430861262      2.703      7.532
REMARK  4 active torsions:
REMARK  status: ('A' for Active; 'I' for Inactive)
REMARK    1  A    between atoms: C3_4  and  C4_5 
REMARK    2  A    between atoms: C6_7  and  C7_8 
REMARK    3  A    between atoms: C10_17  and  N4_18 
REMARK    4  A    between atoms: N5_24  and  C16_25 
ROOT
HETATM    1  F1  UNL     1      30.026  61.760  96.878  1.00  0.00    -0.203 F 
HETATM    2  C1  UNL     1      30.197  62.089  95.590  1.00  0.00     0.161 A 
HETATM    3  C2  UNL     1      30.690  63.293  95.151  1.00  0.00     0.077 A 
HETATM    4  C3  UNL     1      30.845  63.580  93.811  1.00  0.00     0.065 A 
HETATM    5  N3  UNL     1      30.505  62.658  92.911  1.00  0.00    -0.337 N 
ATOM      6  H3  UNL     1      30.620  62.871  91.920  1.00  0.00     0.167 HD
HETATM    7  C10 UNL     1      30.006  61.431  93.270  1.00  0.00     0.161 A 
HETATM    8  C20 UNL     1      29.856  61.158  94.604  1.00  0.00     0.199 A 
HETATM    9  F4  UNL     1      29.387  59.958  95.000  1.00  0.00    -0.199 F 
ENDROOT
BRANCH   7  10
HETATM   10  N4  UNL     1      29.642  60.495  92.280  1.00  0.00    -0.291 N 
HETATM   11  C11 UNL     1      30.590  59.508  91.787  1.00  0.00     0.150 C 
HETATM   12  C12 UNL     1      30.056  58.111  92.001  1.00  0.00     0.011 A 
HETATM   13  C13 UNL     1      29.518  57.448  90.748  1.00  0.00     0.013 A 
HETATM   14  C14 UNL     1      28.608  57.985  91.805  1.00  0.00     0.007 A 
HETATM   15  C15 UNL     1      27.790  59.186  91.611  1.00  0.00     0.121 C 
HETATM   16  N5  UNL     1      28.384  60.473  91.726  1.00  0.00    -0.196 NA
BRANCH  16  17
HETATM   17  C16 UNL     1      28.250  61.294  90.554  1.00  0.00     0.286 C 
HETATM   18  C17 UNL     1      27.093  60.911  89.697  1.00  0.00     0.058 C 
HETATM   19  C18 UNL     1      27.711  60.632  88.367  1.00  0.00     0.114 C 
HETATM   20  C19 UNL     1      29.000  61.396  88.359  1.00  0.00     0.405 C 
HETATM   21  F2  UNL     1      30.001  60.744  87.635  1.00  0.00    -0.174 F 
HETATM   22  F3  UNL     1      28.847  62.660  87.823  1.00  0.00    -0.174 F 
HETATM   23  N6  UNL     1      29.404  61.421  89.735  1.00  0.00     0.009 N 
ATOM     24  H62 UNL     1      29.955  62.249  89.964  1.00  0.00     0.286 HD
ATOM     25  H61 UNL     1      30.112  60.718  89.946  1.00  0.00     0.286 HD
ENDBRANCH  16  17
ENDBRANCH   7  10
BRANCH   4  26
HETATM   26  C4  UNL     1      31.381  64.891  93.404  1.00  0.00     0.076 A 
HETATM   27  C5  UNL     1      30.715  65.974  92.876  1.00  0.00     0.060 A 
HETATM   28  C6  UNL     1      31.625  66.999  92.643  1.00  0.00     0.032 A 
HETATM   29  N1  UNL     1      32.809  66.508  93.035  1.00  0.00    -0.304 N 
HETATM   30  N2  UNL     1      32.671  65.257  93.489  1.00  0.00    -0.298 N 
ATOM     31  H1  UNL     1      33.692  67.018  92.995  1.00  0.00     0.186 HD
ATOM     32  H2  UNL     1      33.427  64.671  93.844  1.00  0.00     0.187 HD
BRANCH  28  33
HETATM   33  C7  UNL     1      31.320  68.338  92.079  1.00  0.00     0.037 A 
HETATM   34  C8  UNL     1      30.983  69.401  93.128  1.00  0.00     0.011 A 
HETATM   35  C9  UNL     1      32.225  69.471  92.311  1.00  0.00     0.011 A 
ENDBRANCH  28  33
ENDBRANCH   4  26
TORSDOF 4
ENDMDL
MODEL 3
REMARK VINA RESULT: -9.294680858      2.618      7.417
REMARK  4 active torsions:
REMARK  status: ('A' for Active; 'I' for Inactive)
REMARK    1  A    between atoms: C3_4  and  C4_5 
REMARK    2  A    between atoms: C6_7  and  C7_8 
REMARK    3  A    between atoms: C10_17  and  N4_18 
REMARK    4  A    between atoms: N5_24  and  C16_25 
ROOT
HETATM    1  F1  UNL     1      30.571  61.357  96.516  1.00  0.00    -0.203 F 
HETATM    2  C1  UNL     1      30.402  61.686  95.228  1.00  0.00     0.161 A 
HETATM    3  C2  UNL     1      30.576  62.947  94.715  1.00  0.00     0.077 A 
HETATM    4  C3  UNL     1      30.388  63.230  93.378  1.00  0.00     0.065 A 
HETATM    5  N3  UNL     1      30.024  62.246  92.556  1.00  0.00    -0.337 N 
ATOM      6  H3  UNL     1      29.885  62.457  91.568  1.00  0.00     0.167 HD
HETATM    7  C10 UNL     1      29.830  60.960  92.992  1.00  0.00     0.161 A 
HETATM    8  C20 UNL     1      30.020  60.691  94.322  1.00  0.00     0.199 A 
HETATM    9  F4  UNL     1      29.859  59.437  94.787  1.00  0.00    -0.199 F 
ENDROOT
BRANCH   7  10
HETATM   10  N4  UNL     1      29.426  59.957  92.087  1.00  0.00    -0.291 N 
HETATM   11  C11 UNL     1      30.374  58.987  91.560  1.00  0.00     0.150 C 
HETATM   12  C12 UNL     1      29.929  57.582  91.891  1.00  0.00     0.011 A 
HETATM   13  C13 UNL     1      29.315  56.829  90.726  1.00  0.00     0.013 A 
HETATM   14  C14 UNL     1      28.478  57.382  91.833  1.00  0.00     0.007 A 
HETATM   15  C15 UNL     1      27.588  58.534  91.655  1.00  0.00     0.121 C 
HETATM   16  N5  UNL     1      28.127  59.849  91.651  1.00  0.00    -0.196 NA
BRANCH  16  17
HETATM   17  C16 UNL     1      27.850  60.599  90.457  1.00  0.00     0.286 C 
HETATM   18  C17 UNL     1      26.985  59.867  89.490  1.00  0.00     0.058 C 
HETATM   19  C18 UNL     1      27.796  59.835  88.237  1.00  0.00     0.114 C 
HETATM   20  C19 UNL     1      28.749  60.986  88.351  1.00  0.00     0.405 C 
HETATM   21  F2  UNL     1      29.980  60.718  87.748  1.00  0.00    -0.174 F 
HETATM   22  F3  UNL     1      28.240  62.135  87.779  1.00  0.00    -0.174 F 
HETATM   23  N6  UNL     1      28.974  61.120  89.761  1.00  0.00     0.009 N 
ATOM     24  H62 UNL     1      29.190  62.080  90.031  1.00  0.00     0.286 HD
ATOM     25  H61 UNL     1      29.850  60.690  90.058  1.00  0.00     0.286 HD
ENDBRANCH  16  17
ENDBRANCH   7  10
BRANCH   4  26
HETATM   26  C4  UNL     1      30.593  64.606  92.889  1.00  0.00     0.076 A 
HETATM   27  C5  UNL     1      31.411  65.592  93.391  1.00  0.00     0.060 A 
HETATM   28  C6  UNL     1      31.283  66.733  92.608  1.00  0.00     0.032 A 
HETATM   29  N1  UNL     1      30.394  66.405  91.660  1.00  0.00    -0.304 N 
HETATM   30  N2  UNL     1      29.980  65.143  91.821  1.00  0.00    -0.298 N 
ATOM     31  H1  UNL     1      30.078  67.030  90.918  1.00  0.00     0.186 HD
ATOM     32  H2  UNL     1      29.306  64.662  91.225  1.00  0.00     0.187 HD
BRANCH  28  33
HETATM   33  C7  UNL     1      31.990  68.023  92.806  1.00  0.00     0.037 A 
HETATM   34  C8  UNL     1      31.566  69.129  91.835  1.00  0.00     0.011 A 
HETATM   35  C9  UNL     1      31.269  69.206  93.292  1.00  0.00     0.011 A 
ENDBRANCH  28  33
ENDBRANCH   4  26
TORSDOF 4
ENDMDL
MODEL 4
REMARK VINA RESULT: -9.232921045      2.608      3.717
REMARK  4 active torsions:
REMARK  status: ('A' for Active; 'I' for Inactive)
REMARK    1  A    between atoms: C3_4  and  C4_5 
REMARK    2  A    between atoms: C6_7  and  C7_8 
REMARK    3  A    between atoms: C10_17  and  N4_18 
REMARK    4  A    between atoms: N5_24  and  C16_25 
ROOT
HETATM    1  F1  UNL     1      28.486  62.268  88.389  1.00  0.00    -0.203 F 
HETATM    2  C1  UNL     1      28.994  61.744  89.512  1.00  0.00     0.161 A 
HETATM    3  C2  UNL     1      28.896  60.423  89.871  1.00  0.00     0.077 A 
HETATM    4  C3  UNL     1      29.439  59.936  91.042  1.00  0.00     0.065 A 
HETATM    5  N3  UNL     1      30.080  60.776  91.853  1.00  0.00    -0.337 N 
ATOM      6  H3  UNL     1      30.481  60.415  92.719  1.00  0.00     0.167 HD
HETATM    7  C10 UNL     1      30.220  62.111  91.566  1.00  0.00     0.161 A 
HETATM    8  C20 UNL     1      29.677  62.582  90.399  1.00  0.00     0.199 A 
HETATM    9  F4  UNL     1      29.809  63.882  90.070  1.00  0.00    -0.199 F 
ENDROOT
BRANCH   7  10
HETATM   10  N4  UNL     1      30.890  62.965  92.465  1.00  0.00    -0.291 N 
HETATM   11  C11 UNL     1      32.337  62.923  92.614  1.00  0.00     0.150 C 
HETATM   12  C12 UNL     1      32.937  64.276  92.315  1.00  0.00     0.011 A 
HETATM   13  C13 UNL     1      33.361  65.057  93.544  1.00  0.00     0.013 A 
HETATM   14  C14 UNL     1      32.128  65.408  92.778  1.00  0.00     0.007 A 
HETATM   15  C15 UNL     1      30.777  65.174  93.299  1.00  0.00     0.121 C 
HETATM   16  N5  UNL     1      30.216  63.869  93.251  1.00  0.00    -0.196 NA
BRANCH  16  17
HETATM   17  C16 UNL     1      29.821  63.347  94.531  1.00  0.00     0.286 C 
HETATM   18  C17 UNL     1      30.863  63.514  95.581  1.00  0.00     0.058 C 
HETATM   19  C18 UNL     1      31.109  62.123  96.065  1.00  0.00     0.114 C 
HETATM   20  C19 UNL     1      29.864  61.360  95.732  1.00  0.00     0.405 C 
HETATM   21  F2  UNL     1      30.128  60.026  95.409  1.00  0.00    -0.174 F 
HETATM   22  F3  UNL     1      28.958  61.371  96.773  1.00  0.00    -0.174 F 
HETATM   23  N6  UNL     1      29.361  62.002  94.552  1.00  0.00     0.009 N 
ATOM     24  H62 UNL     1      28.347  61.936  94.475  1.00  0.00     0.286 HD
ATOM     25  H61 UNL     1      29.601  61.495  93.700  1.00  0.00     0.286 HD
ENDBRANCH  16  17
ENDBRANCH   7  10
BRANCH   4  26
HETATM   26  C4  UNL     1      29.300  58.505  91.370  1.00  0.00     0.076 A 
HETATM   27  C5  UNL     1      29.987  57.427  90.858  1.00  0.00     0.060 A 
HETATM   28  C6  UNL     1      29.523  56.264  91.460  1.00  0.00     0.032 A 
HETATM   29  N1  UNL     1      28.574  56.670  92.315  1.00  0.00    -0.304 N 
HETATM   30  N2  UNL     1      28.437  58.000  92.266  1.00  0.00    -0.298 N 
ATOM     31  H1  UNL     1      28.032  56.052  92.919  1.00  0.00     0.186 HD
ATOM     32  H2  UNL     1      27.779  58.546  92.823  1.00  0.00     0.187 HD
BRANCH  28  33
HETATM   33  C7  UNL     1      29.997  54.882  91.193  1.00  0.00     0.037 A 
HETATM   34  C8  UNL     1      29.034  54.039  90.352  1.00  0.00     0.011 A 
HETATM   35  C9  UNL     1      30.362  54.467  89.833  1.00  0.00     0.011 A 
ENDBRANCH  28  33
ENDBRANCH   4  26
TORSDOF 4
ENDMDL
MODEL 5
REMARK VINA RESULT: -9.210509131      2.681      7.238
REMARK  4 active torsions:
REMARK  status: ('A' for Active; 'I' for Inactive)
REMARK    1  A    between atoms: C3_4  and  C4_5 
REMARK    2  A    between atoms: C6_7  and  C7_8 
REMARK    3  A    between atoms: C10_17  and  N4_18 
REMARK    4  A    between atoms: N5_24  and  C16_25 
ROOT
HETATM    1  F1  UNL     1      33.013  61.602  93.837  1.00  0.00    -0.203 F 
HETATM    2  C1  UNL     1      32.031  62.264  93.210  1.00  0.00     0.161 A 
HETATM    3  C2  UNL     1      31.762  63.600  93.375  1.00  0.00     0.077 A 
HETATM    4  C3  UNL     1      30.737  64.233  92.703  1.00  0.00     0.065 A 
HETATM    5  N3  UNL     1      29.982  63.523  91.865  1.00  0.00    -0.337 N 
ATOM      6  H3  UNL     1      29.223  63.992  91.369  1.00  0.00     0.167 HD
HETATM    7  C10 UNL     1      30.187  62.185  91.646  1.00  0.00     0.161 A 
HETATM    8  C20 UNL     1      31.209  61.568  92.319  1.00  0.00     0.199 A 
HETATM    9  F4  UNL     1      31.457  60.259  92.117  1.00  0.00    -0.199 F 
ENDROOT
BRANCH   7  10
HETATM   10  N4  UNL     1      29.349  61.472  90.764  1.00  0.00    -0.291 N 
HETATM   11  C11 UNL     1      28.530  62.160  89.777  1.00  0.00     0.150 C 
HETATM   12  C12 UNL     1      28.866  61.677  88.386  1.00  0.00     0.011 A 
HETATM   13  C13 UNL     1      27.848  60.722  87.792  1.00  0.00     0.013 A 
HETATM   14  C14 UNL     1      29.168  60.244  88.304  1.00  0.00     0.007 A 
HETATM   15  C15 UNL     1      29.304  59.455  89.532  1.00  0.00     0.121 C 
HETATM   16  N5  UNL     1      29.254  60.101  90.797  1.00  0.00    -0.196 NA
BRANCH  16  17
HETATM   17  C16 UNL     1      28.225  59.611  91.673  1.00  0.00     0.286 C 
HETATM   18  C17 UNL     1      28.733  58.671  92.711  1.00  0.00     0.058 C 
HETATM   19  C18 UNL     1      27.929  57.432  92.496  1.00  0.00     0.114 C 
HETATM   20  C19 UNL     1      26.678  57.883  91.807  1.00  0.00     0.405 C 
HETATM   21  F2  UNL     1      26.193  56.931  90.908  1.00  0.00    -0.174 F 
HETATM   22  F3  UNL     1      25.669  58.168  92.706  1.00  0.00    -0.174 F 
HETATM   23  N6  UNL     1      27.086  59.031  91.049  1.00  0.00     0.009 N 
ATOM     24  H62 UNL     1      26.329  59.702  90.920  1.00  0.00     0.286 HD
ATOM     25  H61 UNL     1      27.250  58.810  90.067  1.00  0.00     0.286 HD
ENDBRANCH  16  17
ENDBRANCH   7  10
BRANCH   4  26
HETATM   26  C4  UNL     1      30.499  65.671  92.924  1.00  0.00     0.076 A 
HETATM   27  C5  UNL     1      31.076  66.752  92.296  1.00  0.00     0.060 A 
HETATM   28  C6  UNL     1      30.548  67.923  92.828  1.00  0.00     0.032 A 
HETATM   29  N1  UNL     1      29.672  67.517  93.758  1.00  0.00    -0.304 N 
HETATM   30  N2  UNL     1      29.638  66.181  93.820  1.00  0.00    -0.298 N 
ATOM     31  H1  UNL     1      29.110  68.141  94.337  1.00  0.00     0.186 HD
ATOM     32  H2  UNL     1      29.050  65.635  94.449  1.00  0.00     0.187 HD
BRANCH  28  33
HETATM   33  C7  UNL     1      30.900  69.309  92.430  1.00  0.00     0.037 A 
HETATM   34  C8  UNL     1      32.405  69.568  92.317  1.00  0.00     0.011 A 
HETATM   35  C9  UNL     1      31.514  69.580  91.125  1.00  0.00     0.011 A 
ENDBRANCH  28  33
ENDBRANCH   4  26
TORSDOF 4
ENDMDL
