MODEL 1
REMARK VINA RESULT: -7.289838551      0.000      0.000
REMARK  4 active torsions:
REMARK  status: ('A' for Active; 'I' for Inactive)
REMARK    1  A    between atoms: C2_3  and  N2_4 
REMARK    2  A    between atoms: N3_6  and  C3_8 
REMARK    3  A    between atoms: C5_15  and  O2_16 
REMARK    4  A    between atoms: N7_24  and  N8_25 
ROOT
HETATM    1  N2  UNL     1       7.362  15.744  38.583  1.00  0.00    -0.291 N 
ATOM      2  H2  UNL     1       7.785  16.244  39.365  1.00  0.00     0.187 HD
HETATM    3  N3  UNL     1       7.236  16.379  37.508  1.00  0.00    -0.281 N 
ATOM      4  H3  UNL     1       6.821  15.940  36.686  1.00  0.00     0.188 HD
ENDROOT
BRANCH   1   5
HETATM    5  C2  UNL     1       6.979  14.417  38.814  1.00  0.00     0.160 A 
HETATM    6  C1  UNL     1       6.234  14.097  39.924  1.00  0.00     0.176 A 
HETATM    7  N1  UNL     1       5.876  15.138  40.807  1.00  0.00    -0.078 NA
HETATM    8  N7  UNL     1       5.843  12.817  40.179  1.00  0.00    -0.195 N 
HETATM    9  C7  UNL     1       6.222  11.879  39.293  1.00  0.00     0.349 A 
HETATM   10  N6  UNL     1       6.951  12.147  38.195  1.00  0.00    -0.272 N 
HETATM   11  O4  UNL     1       5.874  10.666  39.500  1.00  0.00    -0.244 OA
HETATM   12  C6  UNL     1       7.341  13.422  37.936  1.00  0.00     0.281 A 
ATOM     13  H6  UNL     1       7.209  11.395  37.557  1.00  0.00     0.174 HD
HETATM   14  O3  UNL     1       8.026  13.641  36.895  1.00  0.00    -0.265 OA
BRANCH   8  15
HETATM   15  N8  UNL     1       5.087  12.521  41.314  1.00  0.00    -0.333 N 
ATOM     16  H82 UNL     1       4.202  12.983  41.524  1.00  0.00     0.177 HD
ATOM     17  H81 UNL     1       5.407  11.817  41.980  1.00  0.00     0.177 HD
ENDBRANCH   8  15
ENDBRANCH   1   5
BRANCH   3  18
HETATM   18  C3  UNL     1       7.687  17.728  37.466  1.00  0.00     0.176 A 
HETATM   19  N4  UNL     1       8.717  18.218  36.752  1.00  0.00    -0.290 N 
HETATM   20  C4  UNL     1       8.812  19.557  36.994  1.00  0.00     0.328 A 
ATOM     21  H4  UNL     1       9.323  17.679  36.133  1.00  0.00     0.172 HD
HETATM   22  O1  UNL     1       9.692  20.271  36.454  1.00  0.00    -0.247 OA
HETATM   23  N5  UNL     1       7.840  19.919  37.865  1.00  0.00    -0.286 N 
HETATM   24  C5  UNL     1       7.149  18.791  38.153  1.00  0.00     0.191 A 
ATOM     25  H5  UNL     1       7.664  20.855  38.230  1.00  0.00     0.172 HD
BRANCH  24  26
HETATM   26  O2  UNL     1       6.074  18.742  39.010  1.00  0.00    -0.343 OA
ATOM     27  H2  UNL     1       5.744  19.461  39.536  1.00  0.00     0.219 HD
ENDBRANCH  24  26
ENDBRANCH   3  18
TORSDOF 4
ENDMDL
MODEL 2
REMARK VINA RESULT: -7.095865380      1.295      2.152
REMARK  4 active torsions:
REMARK  status: ('A' for Active; 'I' for Inactive)
REMARK    1  A    between atoms: C2_3  and  N2_4 
REMARK    2  A    between atoms: N3_6  and  C3_8 
REMARK    3  A    between atoms: C5_15  and  O2_16 
REMARK    4  A    between atoms: N7_24  and  N8_25 
ROOT
HETATM    1  N2  UNL     1       7.353  15.889  38.915  1.00  0.00    -0.291 N 
ATOM      2  H2  UNL     1       7.831  16.436  39.632  1.00  0.00     0.187 HD
HETATM    3  N3  UNL     1       7.178  16.444  37.804  1.00  0.00    -0.281 N 
ATOM      4  H3  UNL     1       6.708  15.954  37.042  1.00  0.00     0.188 HD
ENDROOT
BRANCH   1   5
HETATM    5  C2  UNL     1       6.957  14.593  39.269  1.00  0.00     0.160 A 
HETATM    6  C1  UNL     1       7.374  13.515  38.522  1.00  0.00     0.176 A 
HETATM    7  N1  UNL     1       8.202  13.761  37.406  1.00  0.00    -0.078 NA
HETATM    8  N7  UNL     1       7.008  12.242  38.838  1.00  0.00    -0.195 N 
HETATM    9  C7  UNL     1       6.219  12.087  39.916  1.00  0.00     0.349 A 
HETATM   10  N6  UNL     1       5.787  13.111  40.673  1.00  0.00    -0.272 N 
HETATM   11  O4  UNL     1       5.855  10.905  40.242  1.00  0.00    -0.244 OA
HETATM   12  C6  UNL     1       6.150  14.382  40.362  1.00  0.00     0.281 A 
ATOM     13  H6  UNL     1       5.189  12.933  41.479  1.00  0.00     0.174 HD
HETATM   14  O3  UNL     1       5.727  15.324  41.095  1.00  0.00    -0.265 OA
BRANCH   8  15
HETATM   15  N8  UNL     1       7.447  11.167  38.063  1.00  0.00    -0.333 N 
ATOM     16  H82 UNL     1       8.031  11.285  37.236  1.00  0.00     0.177 HD
ATOM     17  H81 UNL     1       7.188  10.212  38.310  1.00  0.00     0.177 HD
ENDBRANCH   8  15
ENDBRANCH   1   5
BRANCH   3  18
HETATM   18  C3  UNL     1       7.654  17.774  37.632  1.00  0.00     0.176 A 
HETATM   19  N4  UNL     1       8.719  18.169  36.911  1.00  0.00    -0.290 N 
HETATM   20  C4  UNL     1       8.828  19.524  37.009  1.00  0.00     0.328 A 
ATOM     21  H4  UNL     1       9.339  17.557  36.380  1.00  0.00     0.172 HD
HETATM   22  O1  UNL     1       9.740  20.163  36.431  1.00  0.00    -0.247 OA
HETATM   23  N5  UNL     1       7.830  19.993  37.795  1.00  0.00    -0.286 N 
HETATM   24  C5  UNL     1       7.109  18.912  38.178  1.00  0.00     0.191 A 
ATOM     25  H5  UNL     1       7.656  20.965  38.049  1.00  0.00     0.172 HD
BRANCH  24  26
HETATM   26  O2  UNL     1       6.001  18.972  38.990  1.00  0.00    -0.343 OA
ATOM     27  H2  UNL     1       5.149  18.597  38.803  1.00  0.00     0.219 HD
ENDBRANCH  24  26
ENDBRANCH   3  18
TORSDOF 4
ENDMDL
MODEL 3
REMARK VINA RESULT: -6.962362575      1.566      2.579
REMARK  4 active torsions:
REMARK  status: ('A' for Active; 'I' for Inactive)
REMARK    1  A    between atoms: C2_3  and  N2_4 
REMARK    2  A    between atoms: N3_6  and  C3_8 
REMARK    3  A    between atoms: C5_15  and  O2_16 
REMARK    4  A    between atoms: N7_24  and  N8_25 
ROOT
HETATM    1  N2  UNL     1       7.137  15.449  38.794  1.00  0.00    -0.291 N 
ATOM      2  H2  UNL     1       8.004  15.328  38.270  1.00  0.00     0.187 HD
HETATM    3  N3  UNL     1       6.636  16.599  38.799  1.00  0.00    -0.281 N 
ATOM      4  H3  UNL     1       5.769  16.790  39.303  1.00  0.00     0.188 HD
ENDROOT
BRANCH   1   5
HETATM    5  C2  UNL     1       6.623  14.315  39.436  1.00  0.00     0.160 A 
HETATM    6  C1  UNL     1       6.643  13.094  38.803  1.00  0.00     0.176 A 
HETATM    7  N1  UNL     1       7.191  13.028  37.504  1.00  0.00    -0.078 NA
HETATM    8  N7  UNL     1       6.153  11.971  39.399  1.00  0.00    -0.195 N 
HETATM    9  C7  UNL     1       5.648  12.113  40.637  1.00  0.00     0.349 A 
HETATM   10  N6  UNL     1       5.607  13.287  41.292  1.00  0.00    -0.272 N 
HETATM   11  O4  UNL     1       5.178  11.080  41.227  1.00  0.00    -0.244 OA
HETATM   12  C6  UNL     1       6.095  14.408  40.703  1.00  0.00     0.281 A 
ATOM     13  H6  UNL     1       5.211  13.334  42.231  1.00  0.00     0.174 HD
HETATM   14  O3  UNL     1       6.043  15.497  41.346  1.00  0.00    -0.265 OA
BRANCH   8  15
HETATM   15  N8  UNL     1       6.187  10.745  38.733  1.00  0.00    -0.333 N 
ATOM     16  H82 UNL     1       5.351  10.301  38.353  1.00  0.00     0.177 HD
ATOM     17  H81 UNL     1       7.069  10.250  38.606  1.00  0.00     0.177 HD
ENDBRANCH   8  15
ENDBRANCH   1   5
BRANCH   3  18
HETATM   18  C3  UNL     1       7.307  17.630  38.083  1.00  0.00     0.176 A 
HETATM   19  N4  UNL     1       7.354  18.938  38.396  1.00  0.00    -0.290 N 
HETATM   20  C4  UNL     1       8.099  19.580  37.453  1.00  0.00     0.328 A 
ATOM     21  H4  UNL     1       6.907  19.374  39.203  1.00  0.00     0.172 HD
HETATM   22  O1  UNL     1       8.309  20.817  37.498  1.00  0.00    -0.247 OA
HETATM   23  N5  UNL     1       8.528  18.679  36.538  1.00  0.00    -0.286 N 
HETATM   24  C5  UNL     1       8.038  17.479  36.929  1.00  0.00     0.191 A 
ATOM     25  H5  UNL     1       9.104  18.867  35.717  1.00  0.00     0.172 HD
BRANCH  24  26
HETATM   26  O2  UNL     1       8.253  16.300  36.254  1.00  0.00    -0.343 OA
ATOM     27  H2  UNL     1       8.904  16.153  35.577  1.00  0.00     0.219 HD
ENDBRANCH  24  26
ENDBRANCH   3  18
TORSDOF 4
ENDMDL
MODEL 4
REMARK VINA RESULT: -6.712308402      1.270      1.617
REMARK  4 active torsions:
REMARK  status: ('A' for Active; 'I' for Inactive)
REMARK    1  A    between atoms: C2_3  and  N2_4 
REMARK    2  A    between atoms: N3_6  and  C3_8 
REMARK    3  A    between atoms: C5_15  and  O2_16 
REMARK    4  A    between atoms: N7_24  and  N8_25 
ROOT
HETATM    1  N2  UNL     1       7.195  15.379  38.665  1.00  0.00    -0.291 N 
ATOM      2  H2  UNL     1       8.176  15.361  38.383  1.00  0.00     0.187 HD
HETATM    3  N3  UNL     1       6.575  16.455  38.485  1.00  0.00    -0.281 N 
ATOM      4  H3  UNL     1       5.592  16.542  38.744  1.00  0.00     0.188 HD
ENDROOT
BRANCH   1   5
HETATM    5  C2  UNL     1       6.674  14.201  39.216  1.00  0.00     0.160 A 
HETATM    6  C1  UNL     1       6.111  14.216  40.471  1.00  0.00     0.176 A 
HETATM    7  N1  UNL     1       6.080  15.442  41.171  1.00  0.00    -0.078 NA
HETATM    8  N7  UNL     1       5.594  13.090  41.037  1.00  0.00    -0.195 N 
HETATM    9  C7  UNL     1       5.661  11.961  40.309  1.00  0.00     0.349 A 
HETATM   10  N6  UNL     1       6.202  11.901  39.080  1.00  0.00    -0.272 N 
HETATM   11  O4  UNL     1       5.186  10.884  40.809  1.00  0.00    -0.244 OA
HETATM   12  C6  UNL     1       6.718  13.021  38.512  1.00  0.00     0.281 A 
ATOM     13  H6  UNL     1       6.225  11.015  38.575  1.00  0.00     0.174 HD
HETATM   14  O3  UNL     1       7.220  12.931  37.354  1.00  0.00    -0.265 OA
BRANCH   8  15
HETATM   15  N8  UNL     1       5.029  13.134  42.312  1.00  0.00    -0.333 N 
ATOM     16  H82 UNL     1       5.149  12.386  42.995  1.00  0.00     0.177 HD
ATOM     17  H81 UNL     1       4.469  13.935  42.602  1.00  0.00     0.177 HD
ENDBRANCH   8  15
ENDBRANCH   1   5
BRANCH   3  18
HETATM   18  C3  UNL     1       7.278  17.549  37.908  1.00  0.00     0.176 A 
HETATM   19  N4  UNL     1       7.253  18.833  38.310  1.00  0.00    -0.290 N 
HETATM   20  C4  UNL     1       8.065  19.558  37.489  1.00  0.00     0.328 A 
ATOM     21  H4  UNL     1       6.717  19.201  39.097  1.00  0.00     0.172 HD
HETATM   22  O1  UNL     1       8.229  20.794  37.636  1.00  0.00    -0.247 OA
HETATM   23  N5  UNL     1       8.608  18.734  36.562  1.00  0.00    -0.286 N 
HETATM   24  C5  UNL     1       8.121  17.497  36.823  1.00  0.00     0.191 A 
ATOM     25  H5  UNL     1       9.254  18.993  35.817  1.00  0.00     0.172 HD
BRANCH  24  26
HETATM   26  O2  UNL     1       8.438  16.374  36.096  1.00  0.00    -0.343 OA
ATOM     27  H2  UNL     1       9.070  15.708  36.341  1.00  0.00     0.219 HD
ENDBRANCH  24  26
ENDBRANCH   3  18
TORSDOF 4
ENDMDL
MODEL 5
REMARK VINA RESULT: -6.593431926      1.466      1.657
REMARK  4 active torsions:
REMARK  status: ('A' for Active; 'I' for Inactive)
REMARK    1  A    between atoms: C2_3  and  N2_4 
REMARK    2  A    between atoms: N3_6  and  C3_8 
REMARK    3  A    between atoms: C5_15  and  O2_16 
REMARK    4  A    between atoms: N7_24  and  N8_25 
ROOT
HETATM    1  N2  UNL     1       7.740  15.886  38.656  1.00  0.00    -0.291 N 
ATOM      2  H2  UNL     1       7.869  16.488  39.471  1.00  0.00     0.187 HD
HETATM    3  N3  UNL     1       7.765  16.444  37.533  1.00  0.00    -0.281 N 
ATOM      4  H3  UNL     1       7.643  15.902  36.677  1.00  0.00     0.188 HD
ENDROOT
BRANCH   1   5
HETATM    5  C2  UNL     1       7.553  14.520  38.903  1.00  0.00     0.160 A 
HETATM    6  C1  UNL     1       8.393  13.853  39.763  1.00  0.00     0.176 A 
HETATM    7  N1  UNL     1       9.433  14.583  40.377  1.00  0.00    -0.078 NA
HETATM    8  N7  UNL     1       8.240  12.525  40.026  1.00  0.00    -0.195 N 
HETATM    9  C7  UNL     1       7.227  11.897  39.404  1.00  0.00     0.349 A 
HETATM   10  N6  UNL     1       6.382  12.510  38.556  1.00  0.00    -0.272 N 
HETATM   11  O4  UNL     1       7.052  10.649  39.626  1.00  0.00    -0.244 OA
HETATM   12  C6  UNL     1       6.531  13.833  38.291  1.00  0.00     0.281 A 
ATOM     13  H6  UNL     1       5.631  11.981  38.112  1.00  0.00     0.174 HD
HETATM   14  O3  UNL     1       5.720  14.380  37.488  1.00  0.00    -0.265 OA
BRANCH   8  15
HETATM   15  N8  UNL     1       9.107  11.873  40.904  1.00  0.00    -0.333 N 
ATOM     16  H82 UNL     1       9.601  12.357  41.653  1.00  0.00     0.177 HD
ATOM     17  H81 UNL     1       9.273  10.870  40.817  1.00  0.00     0.177 HD
ENDBRANCH   8  15
ENDBRANCH   1   5
BRANCH   3  18
HETATM   18  C3  UNL     1       7.969  17.851  37.483  1.00  0.00     0.176 A 
HETATM   19  N4  UNL     1       8.864  18.517  36.731  1.00  0.00    -0.290 N 
HETATM   20  C4  UNL     1       8.731  19.850  36.981  1.00  0.00     0.328 A 
ATOM     21  H4  UNL     1       9.529  18.094  36.083  1.00  0.00     0.172 HD
HETATM   22  O1  UNL     1       9.447  20.709  36.411  1.00  0.00    -0.247 OA
HETATM   23  N5  UNL     1       7.749  20.034  37.894  1.00  0.00    -0.286 N 
HETATM   24  C5  UNL     1       7.281  18.801  38.202  1.00  0.00     0.191 A 
ATOM     25  H5  UNL     1       7.426  20.924  38.274  1.00  0.00     0.172 HD
BRANCH  24  26
HETATM   26  O2  UNL     1       6.269  18.562  39.102  1.00  0.00    -0.343 OA
ATOM     27  H2  UNL     1       6.281  18.776  40.027  1.00  0.00     0.219 HD
ENDBRANCH  24  26
ENDBRANCH   3  18
TORSDOF 4
ENDMDL
