MODEL 1
REMARK VINA RESULT: -7.496743460      0.000      0.000
REMARK  6 active torsions:
REMARK  status: ('A' for Active; 'I' for Inactive)
REMARK    1  A    between atoms: N1_1  and  N2_4 
REMARK    2  A    between atoms: N2_4  and  C1_6 
REMARK    3  A    between atoms: C2_9  and  C3_10 
REMARK    4  A    between atoms: C6_15  and  N5_16 
REMARK    5  A    between atoms: C7_21  and  N7_22 
REMARK    6  A    between atoms: N7_22  and  N8_24 
ROOT
HETATM    1  C1  UNL     1       6.589  14.213  38.192  1.00  0.00     0.712 A 
HETATM    2  N3  UNL     1       6.896  15.413  37.697  1.00  0.00    -0.173 N 
ATOM      3  H3  UNL     1       7.069  15.460  36.694  1.00  0.00     0.186 HD
HETATM    4  C2  UNL     1       7.001  16.553  38.372  1.00  0.00     0.151 A 
HETATM    5  N6  UNL     1       6.760  16.458  39.725  1.00  0.00    -0.173 N 
ATOM      6  H6  UNL     1       6.821  17.290  40.310  1.00  0.00     0.186 HD
HETATM    7  C7  UNL     1       6.446  15.275  40.277  1.00  0.00     0.712 A 
HETATM    8  N9  UNL     1       6.356  14.157  39.539  1.00  0.00    -0.019 N 
ATOM      9  H9  UNL     1       6.116  13.270  39.980  1.00  0.00     0.203 HD
ENDROOT
BRANCH   4  10
HETATM   10  C3  UNL     1       7.338  17.872  37.845  1.00  0.00     0.070 A 
HETATM   11  C4  UNL     1       8.626  18.247  37.436  1.00  0.00     0.073 A 
HETATM   12  C5  UNL     1       8.536  19.539  37.011  1.00  0.00     0.160 A 
HETATM   13  N4  UNL     1       9.622  20.330  36.503  1.00  0.00    -0.074 NA
HETATM   14  O1  UNL     1       7.329  19.928  37.139  1.00  0.00    -0.273 OA
HETATM   15  C6  UNL     1       6.541  18.955  37.645  1.00  0.00     0.230 A 
BRANCH  15  16
HETATM   16  N5  UNL     1       5.166  19.148  37.878  1.00  0.00    -0.089 N 
HETATM   17  O2  UNL     1       4.432  19.162  36.831  1.00  0.00    -0.530 OA
HETATM   18  O3  UNL     1       4.602  19.311  39.084  1.00  0.00    -0.530 OA
ENDBRANCH  15  16
ENDBRANCH   4  10
BRANCH   1  19
HETATM   19  N2  UNL     1       6.492  13.127  37.534  1.00  0.00    -0.138 N 
ATOM     20  H2  UNL     1       6.061  13.213  36.613  1.00  0.00     0.205 HD
BRANCH  19  21
HETATM   21  N1  UNL     1       6.881  11.863  37.880  1.00  0.00    -0.331 N 
ATOM     22  H12 UNL     1       6.387  11.483  38.687  1.00  0.00     0.177 HD
ATOM     23  H11 UNL     1       7.584  11.260  37.451  1.00  0.00     0.177 HD
ENDBRANCH  19  21
ENDBRANCH   1  19
BRANCH   7  24
HETATM   24  N7  UNL     1       6.235  15.258  41.546  1.00  0.00    -0.138 N 
ATOM     25  H7  UNL     1       6.532  16.058  42.103  1.00  0.00     0.205 HD
BRANCH  24  26
HETATM   26  N8  UNL     1       5.615  14.188  42.191  1.00  0.00    -0.331 N 
ATOM     27  H82 UNL     1       4.979  13.610  41.643  1.00  0.00     0.177 HD
ATOM     28  H81 UNL     1       5.776  13.971  43.175  1.00  0.00     0.177 HD
ENDBRANCH  24  26
ENDBRANCH   7  24
TORSDOF 6
ENDMDL
MODEL 2
REMARK VINA RESULT: -7.481680816      0.177      2.448
REMARK  6 active torsions:
REMARK  status: ('A' for Active; 'I' for Inactive)
REMARK    1  A    between atoms: N1_1  and  N2_4 
REMARK    2  A    between atoms: N2_4  and  C1_6 
REMARK    3  A    between atoms: C2_9  and  C3_10 
REMARK    4  A    between atoms: C6_15  and  N5_16 
REMARK    5  A    between atoms: C7_21  and  N7_22 
REMARK    6  A    between atoms: N7_22  and  N8_24 
ROOT
HETATM    1  C1  UNL     1       6.331  15.242  40.475  1.00  0.00     0.712 A 
HETATM    2  N3  UNL     1       6.663  16.401  39.905  1.00  0.00    -0.173 N 
ATOM      3  H3  UNL     1       6.729  17.210  40.523  1.00  0.00     0.186 HD
HETATM    4  C2  UNL     1       6.917  16.616  38.618  1.00  0.00     0.151 A 
HETATM    5  N6  UNL     1       6.822  15.505  37.809  1.00  0.00    -0.173 N 
ATOM      6  H6  UNL     1       7.004  15.589  36.809  1.00  0.00     0.186 HD
HETATM    7  C7  UNL     1       6.492  14.312  38.330  1.00  0.00     0.712 A 
HETATM    8  N9  UNL     1       6.247  14.162  39.641  1.00  0.00    -0.019 N 
ATOM      9  H9  UNL     1       5.998  13.246  40.014  1.00  0.00     0.203 HD
ENDROOT
BRANCH   4  10
HETATM   10  C3  UNL     1       7.280  17.878  37.980  1.00  0.00     0.070 A 
HETATM   11  C4  UNL     1       8.576  18.193  37.547  1.00  0.00     0.073 A 
HETATM   12  C5  UNL     1       8.510  19.445  37.011  1.00  0.00     0.160 A 
HETATM   13  N4  UNL     1       9.612  20.169  36.442  1.00  0.00    -0.074 NA
HETATM   14  O1  UNL     1       7.310  19.864  37.098  1.00  0.00    -0.273 OA
HETATM   15  C6  UNL     1       6.503  18.953  37.682  1.00  0.00     0.230 A 
BRANCH  15  16
HETATM   16  N5  UNL     1       5.130  19.189  37.889  1.00  0.00    -0.089 N 
HETATM   17  O2  UNL     1       4.413  19.205  36.831  1.00  0.00    -0.530 OA
HETATM   18  O3  UNL     1       4.553  19.389  39.084  1.00  0.00    -0.530 OA
ENDBRANCH  15  16
ENDBRANCH   4  10
BRANCH   1  19
HETATM   19  N2  UNL     1       6.090  15.051  41.711  1.00  0.00    -0.138 N 
ATOM     20  H2  UNL     1       6.340  15.823  42.329  1.00  0.00     0.205 HD
BRANCH  19  21
HETATM   21  N1  UNL     1       5.544  13.962  42.331  1.00  0.00    -0.331 N 
ATOM     22  H12 UNL     1       5.661  13.088  41.817  1.00  0.00     0.177 HD
ATOM     23  H11 UNL     1       5.045  13.903  43.219  1.00  0.00     0.177 HD
ENDBRANCH  19  21
ENDBRANCH   1  19
BRANCH   7  24
HETATM   24  N7  UNL     1       6.420  13.317  37.517  1.00  0.00    -0.138 N 
ATOM     25  H7  UNL     1       6.067  13.480  36.574  1.00  0.00     0.205 HD
BRANCH  24  26
HETATM   26  N8  UNL     1       6.805  12.025  37.873  1.00  0.00    -0.331 N 
ATOM     27  H82 UNL     1       6.306  11.578  38.642  1.00  0.00     0.177 HD
ATOM     28  H81 UNL     1       7.556  11.525  37.399  1.00  0.00     0.177 HD
ENDBRANCH  24  26
ENDBRANCH   7  24
TORSDOF 6
ENDMDL
MODEL 3
REMARK VINA RESULT: -7.080112284      2.935      5.685
REMARK  6 active torsions:
REMARK  status: ('A' for Active; 'I' for Inactive)
REMARK    1  A    between atoms: N1_1  and  N2_4 
REMARK    2  A    between atoms: N2_4  and  C1_6 
REMARK    3  A    between atoms: C2_9  and  C3_10 
REMARK    4  A    between atoms: C6_15  and  N5_16 
REMARK    5  A    between atoms: C7_21  and  N7_22 
REMARK    6  A    between atoms: N7_22  and  N8_24 
ROOT
HETATM    1  C1  UNL     1       2.919  20.417  36.872  1.00  0.00     0.712 A 
HETATM    2  N3  UNL     1       3.991  19.660  36.637  1.00  0.00    -0.173 N 
ATOM      3  H3  UNL     1       4.152  19.388  35.668  1.00  0.00     0.186 HD
HETATM    4  C2  UNL     1       4.872  19.222  37.531  1.00  0.00     0.151 A 
HETATM    5  N6  UNL     1       4.629  19.607  38.831  1.00  0.00    -0.173 N 
ATOM      6  H6  UNL     1       5.261  19.311  39.573  1.00  0.00     0.186 HD
HETATM    7  C7  UNL     1       3.564  20.370  39.125  1.00  0.00     0.712 A 
HETATM    8  N9  UNL     1       2.709  20.780  38.174  1.00  0.00    -0.019 N 
ATOM      9  H9  UNL     1       1.907  21.359  38.422  1.00  0.00     0.203 HD
ENDROOT
BRANCH   4  10
HETATM   10  C3  UNL     1       6.049  18.392  37.289  1.00  0.00     0.070 A 
HETATM   11  C4  UNL     1       6.017  16.992  37.211  1.00  0.00     0.073 A 
HETATM   12  C5  UNL     1       7.299  16.590  36.978  1.00  0.00     0.160 A 
HETATM   13  N4  UNL     1       7.733  15.229  36.826  1.00  0.00    -0.074 NA
HETATM   14  O1  UNL     1       8.046  17.620  36.915  1.00  0.00    -0.273 OA
HETATM   15  C6  UNL     1       7.343  18.759  37.097  1.00  0.00     0.230 A 
BRANCH  15  16
HETATM   16  N5  UNL     1       7.951  20.029  37.071  1.00  0.00    -0.089 N 
HETATM   17  O2  UNL     1       7.720  20.766  38.089  1.00  0.00    -0.530 OA
HETATM   18  O3  UNL     1       8.728  20.494  36.081  1.00  0.00    -0.530 OA
ENDBRANCH  15  16
ENDBRANCH   4  10
BRANCH   1  19
HETATM   19  N2  UNL     1       2.081  20.830  36.005  1.00  0.00    -0.138 N 
ATOM     20  H2  UNL     1       2.489  21.182  35.139  1.00  0.00     0.205 HD
BRANCH  19  21
HETATM   21  N1  UNL     1       0.716  20.870  36.066  1.00  0.00    -0.331 N 
ATOM     22  H12 UNL     1       0.254  20.646  35.185  1.00  0.00     0.177 HD
ATOM     23  H11 UNL     1       0.108  21.089  36.856  1.00  0.00     0.177 HD
ENDBRANCH  19  21
ENDBRANCH   1  19
BRANCH   7  24
HETATM   24  N7  UNL     1       3.396  20.692  40.360  1.00  0.00    -0.138 N 
ATOM     25  H7  UNL     1       4.218  20.796  40.954  1.00  0.00     0.205 HD
BRANCH  24  26
HETATM   26  N8  UNL     1       2.136  20.904  40.917  1.00  0.00    -0.331 N 
ATOM     27  H82 UNL     1       1.336  20.920  40.285  1.00  0.00     0.177 HD
ATOM     28  H81 UNL     1       1.993  21.042  41.917  1.00  0.00     0.177 HD
ENDBRANCH  24  26
ENDBRANCH   7  24
TORSDOF 6
ENDMDL
MODEL 4
REMARK VINA RESULT: -7.054102503      2.964      6.029
REMARK  6 active torsions:
REMARK  status: ('A' for Active; 'I' for Inactive)
REMARK    1  A    between atoms: N1_1  and  N2_4 
REMARK    2  A    between atoms: N2_4  and  C1_6 
REMARK    3  A    between atoms: C2_9  and  C3_10 
REMARK    4  A    between atoms: C6_15  and  N5_16 
REMARK    5  A    between atoms: C7_21  and  N7_22 
REMARK    6  A    between atoms: N7_22  and  N8_24 
ROOT
HETATM    1  C1  UNL     1       3.528  20.367  39.310  1.00  0.00     0.712 A 
HETATM    2  N3  UNL     1       4.581  19.610  38.999  1.00  0.00    -0.173 N 
ATOM      3  H3  UNL     1       5.176  19.318  39.773  1.00  0.00     0.186 HD
HETATM    4  C2  UNL     1       4.937  19.194  37.787  1.00  0.00     0.151 A 
HETATM    5  N6  UNL     1       4.112  19.602  36.762  1.00  0.00    -0.173 N 
ATOM      6  H6  UNL     1       4.319  19.323  35.804  1.00  0.00     0.186 HD
HETATM    7  C7  UNL     1       3.038  20.366  37.018  1.00  0.00     0.712 A 
HETATM    8  N9  UNL     1       2.733  20.753  38.266  1.00  0.00    -0.019 N 
ATOM      9  H9  UNL     1       1.912  21.334  38.436  1.00  0.00     0.203 HD
ENDROOT
BRANCH   4  10
HETATM   10  C3  UNL     1       6.085  18.366  37.432  1.00  0.00     0.070 A 
HETATM   11  C4  UNL     1       6.045  16.967  37.340  1.00  0.00     0.073 A 
HETATM   12  C5  UNL     1       7.300  16.567  36.989  1.00  0.00     0.160 A 
HETATM   13  N4  UNL     1       7.717  15.208  36.783  1.00  0.00    -0.074 NA
HETATM   14  O1  UNL     1       8.040  17.598  36.872  1.00  0.00    -0.273 OA
HETATM   15  C6  UNL     1       7.359  18.734  37.130  1.00  0.00     0.230 A 
BRANCH  15  16
HETATM   16  N5  UNL     1       7.964  20.004  37.066  1.00  0.00    -0.089 N 
HETATM   17  O2  UNL     1       8.535  20.281  35.957  1.00  0.00    -0.530 OA
HETATM   18  O3  UNL     1       7.977  20.905  38.060  1.00  0.00    -0.530 OA
ENDBRANCH  15  16
ENDBRANCH   4  10
BRANCH   1  19
HETATM   19  N2  UNL     1       3.199  20.760  40.476  1.00  0.00    -0.138 N 
ATOM     20  H2  UNL     1       3.976  21.012  41.087  1.00  0.00     0.205 HD
BRANCH  19  21
HETATM   21  N1  UNL     1       1.956  20.892  41.030  1.00  0.00    -0.331 N 
ATOM     22  H12 UNL     1       1.530  20.008  41.311  1.00  0.00     0.177 HD
ATOM     23  H11 UNL     1       1.407  21.735  41.198  1.00  0.00     0.177 HD
ENDBRANCH  19  21
ENDBRANCH   1  19
BRANCH   7  24
HETATM   24  N7  UNL     1       2.312  20.712  36.013  1.00  0.00    -0.138 N 
ATOM     25  H7  UNL     1       2.762  20.850  35.109  1.00  0.00     0.205 HD
BRANCH  24  26
HETATM   26  N8  UNL     1       0.935  20.907  36.112  1.00  0.00    -0.331 N 
ATOM     27  H82 UNL     1       0.442  20.427  36.865  1.00  0.00     0.177 HD
ATOM     28  H81 UNL     1       0.416  21.503  35.467  1.00  0.00     0.177 HD
ENDBRANCH  24  26
ENDBRANCH   7  24
TORSDOF 6
ENDMDL
MODEL 5
REMARK VINA RESULT: -6.959172577      2.930      5.718
REMARK  6 active torsions:
REMARK  status: ('A' for Active; 'I' for Inactive)
REMARK    1  A    between atoms: N1_1  and  N2_4 
REMARK    2  A    between atoms: N2_4  and  C1_6 
REMARK    3  A    between atoms: C2_9  and  C3_10 
REMARK    4  A    between atoms: C6_15  and  N5_16 
REMARK    5  A    between atoms: C7_21  and  N7_22 
REMARK    6  A    between atoms: N7_22  and  N8_24 
ROOT
HETATM    1  C1  UNL     1       2.840  20.481  37.203  1.00  0.00     0.712 A 
HETATM    2  N3  UNL     1       3.908  19.684  37.140  1.00  0.00    -0.173 N 
ATOM      3  H3  UNL     1       4.157  19.329  36.217  1.00  0.00     0.186 HD
HETATM    4  C2  UNL     1       4.682  19.303  38.152  1.00  0.00     0.151 A 
HETATM    5  N6  UNL     1       4.321  19.799  39.385  1.00  0.00    -0.173 N 
ATOM      6  H6  UNL     1       4.866  19.552  40.210  1.00  0.00     0.186 HD
HETATM    7  C7  UNL     1       3.255  20.607  39.507  1.00  0.00     0.712 A 
HETATM    8  N9  UNL     1       2.513  20.955  38.444  1.00  0.00    -0.019 N 
ATOM      9  H9  UNL     1       1.707  21.569  38.560  1.00  0.00     0.203 HD
ENDROOT
BRANCH   4  10
HETATM   10  C3  UNL     1       5.851  18.430  38.099  1.00  0.00     0.070 A 
HETATM   11  C4  UNL     1       6.074  17.365  38.982  1.00  0.00     0.073 A 
HETATM   12  C5  UNL     1       7.259  16.799  38.614  1.00  0.00     0.160 A 
HETATM   13  N4  UNL     1       7.879  15.670  39.248  1.00  0.00    -0.074 NA
HETATM   14  O1  UNL     1       7.722  17.437  37.613  1.00  0.00    -0.273 OA
HETATM   15  C6  UNL     1       6.909  18.450  37.245  1.00  0.00     0.230 A 
BRANCH  15  16
HETATM   16  N5  UNL     1       7.209  19.300  36.163  1.00  0.00    -0.089 N 
HETATM   17  O2  UNL     1       6.376  19.265  35.194  1.00  0.00    -0.530 OA
HETATM   18  O3  UNL     1       8.275  20.112  36.091  1.00  0.00    -0.530 OA
ENDBRANCH  15  16
ENDBRANCH   4  10
BRANCH   1  19
HETATM   19  N2  UNL     1       2.106  20.839  36.225  1.00  0.00    -0.138 N 
ATOM     20  H2  UNL     1       2.610  21.141  35.390  1.00  0.00     0.205 HD
BRANCH  19  21
HETATM   21  N1  UNL     1       0.743  20.877  36.130  1.00  0.00    -0.331 N 
ATOM     22  H12 UNL     1       0.397  21.394  35.322  1.00  0.00     0.177 HD
ATOM     23  H11 UNL     1       0.038  20.467  36.743  1.00  0.00     0.177 HD
ENDBRANCH  19  21
ENDBRANCH   1  19
BRANCH   7  24
HETATM   24  N7  UNL     1       2.974  21.033  40.688  1.00  0.00    -0.138 N 
ATOM     25  H7  UNL     1       3.700  21.510  41.221  1.00  0.00     0.205 HD
BRANCH  24  26
HETATM   26  N8  UNL     1       1.717  20.870  41.267  1.00  0.00    -0.331 N 
ATOM     27  H82 UNL     1       0.928  20.697  40.644  1.00  0.00     0.177 HD
ATOM     28  H81 UNL     1       1.565  20.917  42.275  1.00  0.00     0.177 HD
ENDBRANCH  24  26
ENDBRANCH   7  24
TORSDOF 6
ENDMDL
