MODEL 1
REMARK VINA RESULT: -6.929483298      0.000      0.000
REMARK  5 active torsions:
REMARK  status: ('A' for Active; 'I' for Inactive)
REMARK    1  A    between atoms: N1_1  and  N2_4 
REMARK    2  A    between atoms: C5_9  and  C6_10 
REMARK    3  A    between atoms: C6_10  and  C7_11 
REMARK    4  A    between atoms: C7_11  and  C8_12 
REMARK    5  A    between atoms: C8_12  and  C9_13 
ROOT
HETATM    1  N2  UNL     1      38.731  71.653  34.436  1.00  0.00    -0.278 N 
HETATM    2  C1  UNL     1      39.913  71.938  35.038  1.00  0.00     0.115 A 
HETATM    3  C2  UNL     1      40.243  73.217  35.399  1.00  0.00     0.019 A 
HETATM    4  C3  UNL     1      39.329  74.208  35.130  1.00  0.00     0.003 A 
HETATM    5  C4  UNL     1      38.142  73.885  34.518  1.00  0.00     0.027 A 
HETATM    6  C5  UNL     1      37.817  72.567  34.151  1.00  0.00     0.033 A 
ENDROOT
BRANCH   6   7
HETATM    7  C6  UNL     1      36.563  72.339  33.436  1.00  0.00     0.059 C 
BRANCH   7   8
HETATM    8  C7  UNL     1      35.302  72.654  34.096  1.00  0.00     0.011 C 
BRANCH   8   9
HETATM    9  C8  UNL     1      34.770  72.097  35.321  1.00  0.00     0.039 C 
BRANCH   9  10
HETATM   10  C9  UNL     1      35.668  71.606  36.366  1.00  0.00    -0.058 A 
HETATM   11  C10 UNL     1      35.921  70.284  36.582  1.00  0.00     0.007 A 
HETATM   12  C11 UNL     1      36.781  69.837  37.569  1.00  0.00     0.001 A 
HETATM   13  C12 UNL     1      37.433  70.732  38.393  1.00  0.00     0.000 A 
HETATM   14  C13 UNL     1      37.204  72.075  38.208  1.00  0.00     0.001 A 
HETATM   15  C14 UNL     1      36.348  72.490  37.223  1.00  0.00     0.007 A 
ENDBRANCH   9  10
ENDBRANCH   8   9
ENDBRANCH   7   8
ENDBRANCH   6   7
BRANCH   1  16
HETATM   16  N1  UNL     1      38.468  70.307  34.187  1.00  0.00    -0.339 N 
ATOM     17  H12 UNL     1      37.627  70.038  33.676  1.00  0.00     0.177 HD
ATOM     18  H11 UNL     1      39.123  69.634  34.588  1.00  0.00     0.177 HD
ENDBRANCH   1  16
TORSDOF 5
ENDMDL
MODEL 2
REMARK VINA RESULT: -6.863966962      1.094      2.932
REMARK  5 active torsions:
REMARK  status: ('A' for Active; 'I' for Inactive)
REMARK    1  A    between atoms: N1_1  and  N2_4 
REMARK    2  A    between atoms: C5_9  and  C6_10 
REMARK    3  A    between atoms: C6_10  and  C7_11 
REMARK    4  A    between atoms: C7_11  and  C8_12 
REMARK    5  A    between atoms: C8_12  and  C9_13 
ROOT
HETATM    1  N2  UNL     1      38.376  71.774  34.457  1.00  0.00    -0.278 N 
HETATM    2  C1  UNL     1      37.279  72.255  33.820  1.00  0.00     0.115 A 
HETATM    3  C2  UNL     1      36.957  73.585  33.853  1.00  0.00     0.019 A 
HETATM    4  C3  UNL     1      37.789  74.422  34.559  1.00  0.00     0.003 A 
HETATM    5  C4  UNL     1      38.891  73.902  35.194  1.00  0.00     0.027 A 
HETATM    6  C5  UNL     1      39.208  72.533  35.152  1.00  0.00     0.033 A 
ENDROOT
BRANCH   6   7
HETATM    7  C6  UNL     1      40.359  72.067  35.925  1.00  0.00     0.059 C 
BRANCH   7   8
HETATM    8  C7  UNL     1      40.275  72.049  37.380  1.00  0.00     0.011 C 
BRANCH   8   9
HETATM    9  C8  UNL     1      39.428  71.226  38.217  1.00  0.00     0.039 C 
BRANCH   9  10
HETATM   10  C9  UNL     1      37.987  71.159  37.979  1.00  0.00    -0.058 A 
HETATM   11  C10 UNL     1      37.335  70.019  37.614  1.00  0.00     0.007 A 
HETATM   12  C11 UNL     1      35.969  69.972  37.403  1.00  0.00     0.001 A 
HETATM   13  C12 UNL     1      35.193  71.103  37.556  1.00  0.00     0.000 A 
HETATM   14  C13 UNL     1      35.813  72.274  37.923  1.00  0.00     0.001 A 
HETATM   15  C14 UNL     1      37.168  72.292  38.127  1.00  0.00     0.007 A 
ENDBRANCH   9  10
ENDBRANCH   8   9
ENDBRANCH   7   8
ENDBRANCH   6   7
BRANCH   1  16
HETATM   16  N1  UNL     1      38.649  70.418  34.287  1.00  0.00    -0.339 N 
ATOM     17  H12 UNL     1      38.388  69.951  33.418  1.00  0.00     0.177 HD
ATOM     18  H11 UNL     1      39.061  69.933  35.085  1.00  0.00     0.177 HD
ENDBRANCH   1  16
TORSDOF 5
ENDMDL
MODEL 3
REMARK VINA RESULT: -6.839624305      1.213      1.755
REMARK  5 active torsions:
REMARK  status: ('A' for Active; 'I' for Inactive)
REMARK    1  A    between atoms: N1_1  and  N2_4 
REMARK    2  A    between atoms: C5_9  and  C6_10 
REMARK    3  A    between atoms: C6_10  and  C7_11 
REMARK    4  A    between atoms: C7_11  and  C8_12 
REMARK    5  A    between atoms: C8_12  and  C9_13 
ROOT
HETATM    1  N2  UNL     1      38.328  74.006  34.637  1.00  0.00    -0.278 N 
HETATM    2  C1  UNL     1      39.542  73.777  35.197  1.00  0.00     0.115 A 
HETATM    3  C2  UNL     1      40.102  72.528  35.206  1.00  0.00     0.019 A 
HETATM    4  C3  UNL     1      39.388  71.507  34.624  1.00  0.00     0.003 A 
HETATM    5  C4  UNL     1      38.161  71.774  34.066  1.00  0.00     0.027 A 
HETATM    6  C5  UNL     1      37.598  73.062  34.065  1.00  0.00     0.033 A 
ENDROOT
BRANCH   6   7
HETATM    7  C6  UNL     1      36.253  73.226  33.515  1.00  0.00     0.059 C 
BRANCH   7   8
HETATM    8  C7  UNL     1      35.148  72.481  34.108  1.00  0.00     0.011 C 
BRANCH   8   9
HETATM    9  C8  UNL     1      34.784  72.383  35.505  1.00  0.00     0.039 C 
BRANCH   9  10
HETATM   10  C9  UNL     1      35.695  71.770  36.470  1.00  0.00    -0.058 A 
HETATM   11  C10 UNL     1      35.877  70.424  36.585  1.00  0.00     0.007 A 
HETATM   12  C11 UNL     1      36.751  69.861  37.497  1.00  0.00     0.001 A 
HETATM   13  C12 UNL     1      37.491  70.657  38.347  1.00  0.00     0.000 A 
HETATM   14  C13 UNL     1      37.336  72.020  38.262  1.00  0.00     0.001 A 
HETATM   15  C14 UNL     1      36.464  72.552  37.349  1.00  0.00     0.007 A 
ENDBRANCH   9  10
ENDBRANCH   8   9
ENDBRANCH   7   8
ENDBRANCH   6   7
BRANCH   1  16
HETATM   16  N1  UNL     1      37.894  75.330  34.613  1.00  0.00    -0.339 N 
ATOM     17  H12 UNL     1      37.264  75.673  35.340  1.00  0.00     0.177 HD
ATOM     18  H11 UNL     1      38.194  75.894  33.817  1.00  0.00     0.177 HD
ENDBRANCH   1  16
TORSDOF 5
ENDMDL
MODEL 4
REMARK VINA RESULT: -6.820110894      1.814      3.586
REMARK  5 active torsions:
REMARK  status: ('A' for Active; 'I' for Inactive)
REMARK    1  A    between atoms: N1_1  and  N2_4 
REMARK    2  A    between atoms: C5_9  and  C6_10 
REMARK    3  A    between atoms: C6_10  and  C7_11 
REMARK    4  A    between atoms: C7_11  and  C8_12 
REMARK    5  A    between atoms: C8_12  and  C9_13 
ROOT
HETATM    1  N2  UNL     1      36.744  73.437  35.820  1.00  0.00    -0.278 N 
HETATM    2  C1  UNL     1      37.095  73.830  34.570  1.00  0.00     0.115 A 
HETATM    3  C2  UNL     1      36.359  73.470  33.473  1.00  0.00     0.019 A 
HETATM    4  C3  UNL     1      35.246  72.690  33.683  1.00  0.00     0.003 A 
HETATM    5  C4  UNL     1      34.920  72.308  34.962  1.00  0.00     0.027 A 
HETATM    6  C5  UNL     1      35.687  72.685  36.079  1.00  0.00     0.033 A 
ENDROOT
BRANCH   6   7
HETATM    7  C6  UNL     1      35.300  72.163  37.389  1.00  0.00     0.059 C 
BRANCH   7   8
HETATM    8  C7  UNL     1      35.283  70.720  37.600  1.00  0.00     0.011 C 
BRANCH   8   9
HETATM    9  C8  UNL     1      36.403  69.803  37.602  1.00  0.00     0.039 C 
BRANCH   9  10
HETATM   10  C9  UNL     1      37.678  70.186  36.998  1.00  0.00    -0.058 A 
HETATM   11  C10 UNL     1      37.926  70.125  35.659  1.00  0.00     0.007 A 
HETATM   12  C11 UNL     1      39.135  70.501  35.103  1.00  0.00     0.001 A 
HETATM   13  C12 UNL     1      40.164  70.962  35.900  1.00  0.00     0.000 A 
HETATM   14  C13 UNL     1      39.954  71.037  37.255  1.00  0.00     0.001 A 
HETATM   15  C14 UNL     1      38.746  70.660  37.780  1.00  0.00     0.007 A 
ENDBRANCH   9  10
ENDBRANCH   8   9
ENDBRANCH   7   8
ENDBRANCH   6   7
BRANCH   1  16
HETATM   16  N1  UNL     1      37.520  73.931  36.867  1.00  0.00    -0.339 N 
ATOM     17  H12 UNL     1      37.620  74.938  36.996  1.00  0.00     0.177 HD
ATOM     18  H11 UNL     1      38.007  73.239  37.438  1.00  0.00     0.177 HD
ENDBRANCH   1  16
TORSDOF 5
ENDMDL
MODEL 5
REMARK VINA RESULT: -6.782356010      1.946      3.897
REMARK  5 active torsions:
REMARK  status: ('A' for Active; 'I' for Inactive)
REMARK    1  A    between atoms: N1_1  and  N2_4 
REMARK    2  A    between atoms: C5_9  and  C6_10 
REMARK    3  A    between atoms: C6_10  and  C7_11 
REMARK    4  A    between atoms: C7_11  and  C8_12 
REMARK    5  A    between atoms: C8_12  and  C9_13 
ROOT
HETATM    1  N2  UNL     1      38.677  70.835  37.746  1.00  0.00    -0.278 N 
HETATM    2  C1  UNL     1      39.870  71.127  37.170  1.00  0.00     0.115 A 
HETATM    3  C2  UNL     1      40.100  70.894  35.841  1.00  0.00     0.019 A 
HETATM    4  C3  UNL     1      39.074  70.350  35.105  1.00  0.00     0.003 A 
HETATM    5  C4  UNL     1      37.878  70.065  35.720  1.00  0.00     0.027 A 
HETATM    6  C5  UNL     1      37.657  70.309  37.087  1.00  0.00     0.033 A 
ENDROOT
BRANCH   6   7
HETATM    7  C6  UNL     1      36.377  69.899  37.663  1.00  0.00     0.059 C 
BRANCH   7   8
HETATM    8  C7  UNL     1      35.244  70.814  37.598  1.00  0.00     0.011 C 
BRANCH   8   9
HETATM    9  C8  UNL     1      35.250  72.223  37.268  1.00  0.00     0.039 C 
BRANCH   9  10
HETATM   10  C9  UNL     1      35.651  72.673  35.936  1.00  0.00    -0.058 A 
HETATM   11  C10 UNL     1      36.746  73.450  35.700  1.00  0.00     0.007 A 
HETATM   12  C11 UNL     1      37.116  73.859  34.432  1.00  0.00     0.001 A 
HETATM   13  C12 UNL     1      36.374  73.489  33.328  1.00  0.00     0.000 A 
HETATM   14  C13 UNL     1      35.262  72.706  33.524  1.00  0.00     0.001 A 
HETATM   15  C14 UNL     1      34.918  72.314  34.791  1.00  0.00     0.007 A 
ENDBRANCH   9  10
ENDBRANCH   8   9
ENDBRANCH   7   8
ENDBRANCH   6   7
BRANCH   1  16
HETATM   16  N1  UNL     1      38.530  71.190  39.086  1.00  0.00    -0.339 N 
ATOM     17  H12 UNL     1      38.615  70.480  39.813  1.00  0.00     0.177 HD
ATOM     18  H11 UNL     1      38.284  72.163  39.274  1.00  0.00     0.177 HD
ENDBRANCH   1  16
TORSDOF 5
ENDMDL
