MODEL 1
REMARK VINA RESULT: -6.752693936      0.000      0.000
REMARK  4 active torsions:
REMARK  status: ('A' for Active; 'I' for Inactive)
REMARK    1  A    between atoms: C2_2  and  C3_3 
REMARK    2  A    between atoms: N1_5  and  C5_6 
REMARK    3  A    between atoms: C5_6  and  C6_7 
REMARK    4  A    between atoms: C7_8  and  C8_9 
ROOT
HETATM    1  C5  UNL     1      39.670  69.547  36.845  1.00  0.00     0.156 C 
ENDROOT
BRANCH   1   2
HETATM    2  N1  UNL     1      40.490  70.604  37.415  1.00  0.00    -0.347 N 
HETATM    3  C4  UNL     1      40.647  70.924  38.702  1.00  0.00     0.121 A 
HETATM    4  C3  UNL     1      41.510  71.992  38.848  1.00  0.00     0.048 A 
HETATM    5  N2  UNL     1      41.878  72.314  37.595  1.00  0.00    -0.351 N 
HETATM    6  C14 UNL     1      41.268  71.483  36.720  1.00  0.00     0.183 A 
ATOM      7  H2  UNL     1      42.517  73.069  37.343  1.00  0.00     0.166 HD
BRANCH   4   8
HETATM    8  C2  UNL     1      41.942  72.641  40.080  1.00  0.00     0.021 C 
HETATM    9  C1  UNL     1      41.942  73.954  40.227  1.00  0.00     0.013 C 
ENDBRANCH   4   8
ENDBRANCH   1   2
BRANCH   1  10
HETATM   10  C6  UNL     1      38.732  70.209  35.888  1.00  0.00    -0.006 C 
HETATM   11  C7  UNL     1      37.737  70.939  36.296  1.00  0.00     0.009 C 
BRANCH  11  12
HETATM   12  C8  UNL     1      36.824  71.585  35.370  1.00  0.00    -0.036 A 
HETATM   13  C9  UNL     1      37.234  72.033  34.146  1.00  0.00     0.011 A 
HETATM   14  C10 UNL     1      36.364  72.659  33.238  1.00  0.00     0.001 A 
HETATM   15  C11 UNL     1      35.055  72.806  33.640  1.00  0.00     0.000 A 
HETATM   16  C12 UNL     1      34.602  72.369  34.859  1.00  0.00     0.001 A 
HETATM   17  C13 UNL     1      35.478  71.767  35.713  1.00  0.00     0.011 A 
ENDBRANCH  11  12
ENDBRANCH   1  10
TORSDOF 4
ENDMDL
MODEL 2
REMARK VINA RESULT: -6.749712817      0.035      1.196
REMARK  4 active torsions:
REMARK  status: ('A' for Active; 'I' for Inactive)
REMARK    1  A    between atoms: C2_2  and  C3_3 
REMARK    2  A    between atoms: N1_5  and  C5_6 
REMARK    3  A    between atoms: C5_6  and  C6_7 
REMARK    4  A    between atoms: C7_8  and  C8_9 
ROOT
HETATM    1  C5  UNL     1      39.690  69.528  36.845  1.00  0.00     0.156 C 
ENDROOT
BRANCH   1   2
HETATM    2  N1  UNL     1      40.501  70.593  37.412  1.00  0.00    -0.347 N 
HETATM    3  C4  UNL     1      40.664  70.912  38.699  1.00  0.00     0.121 A 
HETATM    4  C3  UNL     1      41.515  71.989  38.842  1.00  0.00     0.048 A 
HETATM    5  N2  UNL     1      41.870  72.319  37.588  1.00  0.00    -0.351 N 
HETATM    6  C14 UNL     1      41.264  71.484  36.715  1.00  0.00     0.183 A 
ATOM      7  H2  UNL     1      42.498  73.082  37.334  1.00  0.00     0.166 HD
BRANCH   4   8
HETATM    8  C2  UNL     1      41.948  72.639  40.073  1.00  0.00     0.021 C 
HETATM    9  C1  UNL     1      41.936  73.952  40.224  1.00  0.00     0.013 C 
ENDBRANCH   4   8
ENDBRANCH   1   2
BRANCH   1  10
HETATM   10  C6  UNL     1      38.729  70.183  35.906  1.00  0.00    -0.006 C 
HETATM   11  C7  UNL     1      37.753  70.928  36.332  1.00  0.00     0.009 C 
BRANCH  11  12
HETATM   12  C8  UNL     1      36.817  71.567  35.423  1.00  0.00    -0.036 A 
HETATM   13  C9  UNL     1      35.501  71.740  35.748  1.00  0.00     0.011 A 
HETATM   14  C10 UNL     1      34.582  72.355  34.882  1.00  0.00     0.001 A 
HETATM   15  C11 UNL     1      35.071  72.786  33.669  1.00  0.00     0.000 A 
HETATM   16  C12 UNL     1      36.385  72.632  33.305  1.00  0.00     0.001 A 
HETATM   17  C13 UNL     1      37.245  72.029  34.173  1.00  0.00     0.011 A 
ENDBRANCH  11  12
ENDBRANCH   1  10
TORSDOF 4
ENDMDL
MODEL 3
REMARK VINA RESULT: -6.493256642      0.781      1.206
REMARK  4 active torsions:
REMARK  status: ('A' for Active; 'I' for Inactive)
REMARK    1  A    between atoms: C2_2  and  C3_3 
REMARK    2  A    between atoms: N1_5  and  C5_6 
REMARK    3  A    between atoms: C5_6  and  C6_7 
REMARK    4  A    between atoms: C7_8  and  C8_9 
ROOT
HETATM    1  C5  UNL     1      39.872  69.465  36.863  1.00  0.00     0.156 C 
ENDROOT
BRANCH   1   2
HETATM    2  N1  UNL     1      40.653  70.563  37.411  1.00  0.00    -0.347 N 
HETATM    3  C4  UNL     1      40.880  70.855  38.695  1.00  0.00     0.121 A 
HETATM    4  C3  UNL     1      41.671  71.980  38.817  1.00  0.00     0.048 A 
HETATM    5  N2  UNL     1      41.921  72.367  37.554  1.00  0.00    -0.351 N 
HETATM    6  C14 UNL     1      41.311  71.520  36.696  1.00  0.00     0.183 A 
ATOM      7  H2  UNL     1      42.483  73.176  37.285  1.00  0.00     0.166 HD
BRANCH   4   8
HETATM    8  C2  UNL     1      42.143  72.621  40.038  1.00  0.00     0.021 C 
HETATM    9  C1  UNL     1      41.950  73.904  40.286  1.00  0.00     0.013 C 
ENDBRANCH   4   8
ENDBRANCH   1   2
BRANCH   1  10
HETATM   10  C6  UNL     1      38.454  69.936  36.816  1.00  0.00    -0.006 C 
HETATM   11  C7  UNL     1      38.090  70.945  36.084  1.00  0.00     0.009 C 
BRANCH  11  12
HETATM   12  C8  UNL     1      36.714  71.406  36.034  1.00  0.00    -0.036 A 
HETATM   13  C9  UNL     1      36.186  71.986  34.915  1.00  0.00     0.011 A 
HETATM   14  C10 UNL     1      34.858  72.437  34.849  1.00  0.00     0.001 A 
HETATM   15  C11 UNL     1      34.093  72.267  35.982  1.00  0.00     0.000 A 
HETATM   16  C12 UNL     1      34.583  71.688  37.126  1.00  0.00     0.001 A 
HETATM   17  C13 UNL     1      35.878  71.265  37.149  1.00  0.00     0.011 A 
ENDBRANCH  11  12
ENDBRANCH   1  10
TORSDOF 4
ENDMDL
MODEL 4
REMARK VINA RESULT: -6.460928091      0.788      1.600
REMARK  4 active torsions:
REMARK  status: ('A' for Active; 'I' for Inactive)
REMARK    1  A    between atoms: C2_2  and  C3_3 
REMARK    2  A    between atoms: N1_5  and  C5_6 
REMARK    3  A    between atoms: C5_6  and  C6_7 
REMARK    4  A    between atoms: C7_8  and  C8_9 
ROOT
HETATM    1  C5  UNL     1      39.870  69.467  36.851  1.00  0.00     0.156 C 
ENDROOT
BRANCH   1   2
HETATM    2  N1  UNL     1      40.648  70.564  37.404  1.00  0.00    -0.347 N 
HETATM    3  C4  UNL     1      40.877  70.849  38.689  1.00  0.00     0.121 A 
HETATM    4  C3  UNL     1      41.664  71.976  38.817  1.00  0.00     0.048 A 
HETATM    5  N2  UNL     1      41.910  72.372  37.555  1.00  0.00    -0.351 N 
HETATM    6  C14 UNL     1      41.301  71.528  36.693  1.00  0.00     0.183 A 
ATOM      7  H2  UNL     1      42.468  73.184  37.290  1.00  0.00     0.166 HD
BRANCH   4   8
HETATM    8  C2  UNL     1      42.137  72.612  40.040  1.00  0.00     0.021 C 
HETATM    9  C1  UNL     1      41.990  73.904  40.270  1.00  0.00     0.013 C 
ENDBRANCH   4   8
ENDBRANCH   1   2
BRANCH   1  10
HETATM   10  C6  UNL     1      38.449  69.928  36.819  1.00  0.00    -0.006 C 
HETATM   11  C7  UNL     1      38.077  70.957  36.118  1.00  0.00     0.009 C 
BRANCH  11  12
HETATM   12  C8  UNL     1      36.697  71.409  36.084  1.00  0.00    -0.036 A 
HETATM   13  C9  UNL     1      35.867  71.272  37.161  1.00  0.00     0.011 A 
HETATM   14  C10 UNL     1      34.530  71.703  37.145  1.00  0.00     0.001 A 
HETATM   15  C11 UNL     1      34.082  72.281  35.979  1.00  0.00     0.000 A 
HETATM   16  C12 UNL     1      34.883  72.439  34.876  1.00  0.00     0.001 A 
HETATM   17  C13 UNL     1      36.175  72.006  34.930  1.00  0.00     0.011 A 
ENDBRANCH  11  12
ENDBRANCH   1  10
TORSDOF 4
ENDMDL
MODEL 5
REMARK VINA RESULT: -6.302301580      1.441      1.898
REMARK  4 active torsions:
REMARK  status: ('A' for Active; 'I' for Inactive)
REMARK    1  A    between atoms: C2_2  and  C3_3 
REMARK    2  A    between atoms: N1_5  and  C5_6 
REMARK    3  A    between atoms: C5_6  and  C6_7 
REMARK    4  A    between atoms: C7_8  and  C8_9 
ROOT
HETATM    1  C5  UNL     1      38.636  71.191  38.532  1.00  0.00     0.156 C 
ENDROOT
BRANCH   1   2
HETATM    2  N1  UNL     1      40.064  71.346  38.306  1.00  0.00    -0.347 N 
HETATM    3  C4  UNL     1      41.057  70.554  38.717  1.00  0.00     0.121 A 
HETATM    4  C3  UNL     1      42.284  71.036  38.304  1.00  0.00     0.048 A 
HETATM    5  N2  UNL     1      42.002  72.159  37.621  1.00  0.00    -0.351 N 
HETATM    6  C14 UNL     1      40.665  72.358  37.614  1.00  0.00     0.183 A 
ATOM      7  H2  UNL     1      42.691  72.767  37.176  1.00  0.00     0.166 HD
BRANCH   4   8
HETATM    8  C2  UNL     1      43.604  70.466  38.545  1.00  0.00     0.021 C 
HETATM    9  C1  UNL     1      43.800  69.168  38.690  1.00  0.00     0.013 C 
ENDBRANCH   4   8
ENDBRANCH   1   2
BRANCH   1  10
HETATM   10  C6  UNL     1      37.951  71.818  37.361  1.00  0.00    -0.006 C 
HETATM   11  C7  UNL     1      37.409  71.104  36.419  1.00  0.00     0.009 C 
BRANCH  11  12
HETATM   12  C8  UNL     1      36.742  71.709  35.280  1.00  0.00    -0.036 A 
HETATM   13  C9  UNL     1      37.402  71.966  34.111  1.00  0.00     0.011 A 
HETATM   14  C10 UNL     1      36.773  72.551  32.999  1.00  0.00     0.001 A 
HETATM   15  C11 UNL     1      35.438  72.860  33.138  1.00  0.00     0.000 A 
HETATM   16  C12 UNL     1      34.739  72.617  34.294  1.00  0.00     0.001 A 
HETATM   17  C13 UNL     1      35.386  72.050  35.351  1.00  0.00     0.011 A 
ENDBRANCH  11  12
ENDBRANCH   1  10
TORSDOF 4
ENDMDL
