MODEL 1
REMARK VINA RESULT: -5.523128567      0.000      0.000
REMARK  5 active torsions:
REMARK  status: ('A' for Active; 'I' for Inactive)
REMARK    1  A    between atoms: C2_2  and  C4_4 
REMARK    2  A    between atoms: C4_4  and  O1_5 
REMARK    3  A    between atoms: C4_4  and  C5_7 
REMARK    4  A    between atoms: C5_7  and  O2_8 
REMARK    5  A    between atoms: C5_7  and  C6_10 
ROOT
HETATM    1  C4  UNL     1     -15.035   4.787  24.060  1.00  0.00     0.150 C 
ENDROOT
BRANCH   1   2
HETATM    2  C2  UNL     1     -13.619   4.369  24.217  1.00  0.00     0.009 C 
HETATM    3  C1  UNL     1     -12.774   5.652  24.254  1.00  0.00     0.012 C 
HETATM    4  C3  UNL     1     -13.317   3.607  25.454  1.00  0.00     0.012 C 
ENDBRANCH   1   2
BRANCH   1   5
HETATM    5  O1  UNL     1     -15.768   4.387  25.152  1.00  0.00    -0.393 OA
ATOM      6  H1  UNL     1     -16.386   5.066  25.396  1.00  0.00     0.210 HD
ENDBRANCH   1   5
BRANCH   1   7
HETATM    7  C5  UNL     1     -15.648   4.377  22.745  1.00  0.00     0.151 C 
BRANCH   7   8
HETATM    8  O2  UNL     1     -16.837   3.684  22.971  1.00  0.00    -0.393 OA
ATOM      9  H2  UNL     1     -17.215   3.410  22.144  1.00  0.00     0.210 HD
ENDBRANCH   7   8
BRANCH   7  10
HETATM   10  C6  UNL     1     -14.751   3.448  21.972  1.00  0.00     0.017 A 
HETATM   11  C7  UNL     1     -15.185   2.838  20.699  1.00  0.00     0.007 A 
HETATM   12  C8  UNL     1     -15.166   2.014  21.969  1.00  0.00     0.007 A 
ENDBRANCH   7  10
ENDBRANCH   1   7
TORSDOF 5
ENDMDL
MODEL 2
REMARK VINA RESULT: -5.280415805      1.042      1.358
REMARK  5 active torsions:
REMARK  status: ('A' for Active; 'I' for Inactive)
REMARK    1  A    between atoms: C2_2  and  C4_4 
REMARK    2  A    between atoms: C4_4  and  O1_5 
REMARK    3  A    between atoms: C4_4  and  C5_7 
REMARK    4  A    between atoms: C5_7  and  O2_8 
REMARK    5  A    between atoms: C5_7  and  C6_10 
ROOT
HETATM    1  C4  UNL     1     -15.003   4.716  24.066  1.00  0.00     0.150 C 
ENDROOT
BRANCH   1   2
HETATM    2  C2  UNL     1     -13.947   5.728  23.813  1.00  0.00     0.009 C 
HETATM    3  C1  UNL     1     -14.317   6.977  24.630  1.00  0.00     0.012 C 
HETATM    4  C3  UNL     1     -12.576   5.328  24.219  1.00  0.00     0.012 C 
ENDBRANCH   1   2
BRANCH   1   5
HETATM    5  O1  UNL     1     -14.520   3.725  24.888  1.00  0.00    -0.393 OA
ATOM      6  H1  UNL     1     -15.110   3.594  25.621  1.00  0.00     0.210 HD
ENDBRANCH   1   5
BRANCH   1   7
HETATM    7  C5  UNL     1     -15.653   4.189  22.812  1.00  0.00     0.151 C 
BRANCH   7   8
HETATM    8  O2  UNL     1     -16.981   3.852  23.071  1.00  0.00    -0.393 OA
ATOM      9  H2  UNL     1     -17.437   4.598  23.444  1.00  0.00     0.210 HD
ENDBRANCH   7   8
BRANCH   7  10
HETATM   10  C6  UNL     1     -14.982   2.937  22.316  1.00  0.00     0.017 A 
HETATM   11  C7  UNL     1     -13.759   2.994  21.488  1.00  0.00     0.007 A 
HETATM   12  C8  UNL     1     -15.096   2.690  20.848  1.00  0.00     0.007 A 
ENDBRANCH   7  10
ENDBRANCH   1   7
TORSDOF 5
ENDMDL
MODEL 3
REMARK VINA RESULT: -5.258526389      1.261      1.743
REMARK  5 active torsions:
REMARK  status: ('A' for Active; 'I' for Inactive)
REMARK    1  A    between atoms: C2_2  and  C4_4 
REMARK    2  A    between atoms: C4_4  and  O1_5 
REMARK    3  A    between atoms: C4_4  and  C5_7 
REMARK    4  A    between atoms: C5_7  and  O2_8 
REMARK    5  A    between atoms: C5_7  and  C6_10 
ROOT
HETATM    1  C4  UNL     1     -14.117   4.143  24.577  1.00  0.00     0.150 C 
ENDROOT
BRANCH   1   2
HETATM    2  C2  UNL     1     -13.023   5.147  24.595  1.00  0.00     0.009 C 
HETATM    3  C1  UNL     1     -11.706   4.379  24.401  1.00  0.00     0.012 C 
HETATM    4  C3  UNL     1     -13.092   6.178  23.530  1.00  0.00     0.012 C 
ENDBRANCH   1   2
BRANCH   1   5
HETATM    5  O1  UNL     1     -13.625   2.904  24.916  1.00  0.00    -0.393 OA
ATOM      6  H1  UNL     1     -13.535   2.366  24.138  1.00  0.00     0.210 HD
ENDBRANCH   1   5
BRANCH   1   7
HETATM    7  C5  UNL     1     -14.919   4.140  23.301  1.00  0.00     0.151 C 
BRANCH   7   8
HETATM    8  O2  UNL     1     -16.281   4.092  23.596  1.00  0.00    -0.393 OA
ATOM      9  H2  UNL     1     -16.739   3.595  22.929  1.00  0.00     0.210 HD
ENDBRANCH   7   8
BRANCH   7  10
HETATM   10  C6  UNL     1     -14.621   2.933  22.454  1.00  0.00     0.017 A 
HETATM   11  C7  UNL     1     -13.519   2.934  21.470  1.00  0.00     0.007 A 
HETATM   12  C8  UNL     1     -14.953   3.070  21.005  1.00  0.00     0.007 A 
ENDBRANCH   7  10
ENDBRANCH   1   7
TORSDOF 5
ENDMDL
MODEL 4
REMARK VINA RESULT: -5.033877735      2.064      3.273
REMARK  5 active torsions:
REMARK  status: ('A' for Active; 'I' for Inactive)
REMARK    1  A    between atoms: C2_2  and  C4_4 
REMARK    2  A    between atoms: C4_4  and  O1_5 
REMARK    3  A    between atoms: C4_4  and  C5_7 
REMARK    4  A    between atoms: C5_7  and  O2_8 
REMARK    5  A    between atoms: C5_7  and  C6_10 
ROOT
HETATM    1  C4  UNL     1     -14.752   5.000  24.406  1.00  0.00     0.150 C 
ENDROOT
BRANCH   1   2
HETATM    2  C2  UNL     1     -14.485   5.535  25.765  1.00  0.00     0.009 C 
HETATM    3  C1  UNL     1     -15.125   6.931  25.831  1.00  0.00     0.012 C 
HETATM    4  C3  UNL     1     -15.052   4.739  26.883  1.00  0.00     0.012 C 
ENDBRANCH   1   2
BRANCH   1   5
HETATM    5  O1  UNL     1     -15.963   4.348  24.386  1.00  0.00    -0.393 OA
ATOM      6  H1  UNL     1     -16.665   4.960  24.573  1.00  0.00     0.210 HD
ENDBRANCH   1   5
BRANCH   1   7
HETATM    7  C5  UNL     1     -13.621   4.178  23.843  1.00  0.00     0.151 C 
BRANCH   7   8
HETATM    8  O2  UNL     1     -13.828   2.828  24.127  1.00  0.00    -0.393 OA
ATOM      9  H2  UNL     1     -13.511   2.294  23.408  1.00  0.00     0.210 HD
ENDBRANCH   7   8
BRANCH   7  10
HETATM   10  C6  UNL     1     -12.298   4.548  24.458  1.00  0.00     0.017 A 
HETATM   11  C7  UNL     1     -11.455   5.617  23.886  1.00  0.00     0.007 A 
HETATM   12  C8  UNL     1     -11.095   4.164  23.663  1.00  0.00     0.007 A 
ENDBRANCH   7  10
ENDBRANCH   1   7
TORSDOF 5
ENDMDL
MODEL 5
REMARK VINA RESULT: -5.014770327      1.348      1.730
REMARK  5 active torsions:
REMARK  status: ('A' for Active; 'I' for Inactive)
REMARK    1  A    between atoms: C2_2  and  C4_4 
REMARK    2  A    between atoms: C4_4  and  O1_5 
REMARK    3  A    between atoms: C4_4  and  C5_7 
REMARK    4  A    between atoms: C5_7  and  O2_8 
REMARK    5  A    between atoms: C5_7  and  C6_10 
ROOT
HETATM    1  C4  UNL     1     -14.309   4.855  23.548  1.00  0.00     0.150 C 
ENDROOT
BRANCH   1   2
HETATM    2  C2  UNL     1     -14.524   4.489  24.971  1.00  0.00     0.009 C 
HETATM    3  C1  UNL     1     -13.331   3.616  25.395  1.00  0.00     0.012 C 
HETATM    4  C3  UNL     1     -14.590   5.632  25.916  1.00  0.00     0.012 C 
ENDBRANCH   1   2
BRANCH   1   5
HETATM    5  O1  UNL     1     -13.924   6.172  23.453  1.00  0.00    -0.393 OA
ATOM      6  H1  UNL     1     -14.536   6.725  23.924  1.00  0.00     0.210 HD
ENDBRANCH   1   5
BRANCH   1   7
HETATM    7  C5  UNL     1     -15.466   4.503  22.648  1.00  0.00     0.151 C 
BRANCH   7   8
HETATM    8  O2  UNL     1     -16.489   3.922  23.396  1.00  0.00    -0.393 OA
ATOM      9  H2  UNL     1     -17.080   4.595  23.714  1.00  0.00     0.210 HD
ENDBRANCH   7   8
BRANCH   7  10
HETATM   10  C6  UNL     1     -15.076   3.498  21.599  1.00  0.00     0.017 A 
HETATM   11  C7  UNL     1     -14.740   2.104  21.954  1.00  0.00     0.007 A 
HETATM   12  C8  UNL     1     -13.641   3.087  21.610  1.00  0.00     0.007 A 
ENDBRANCH   7  10
ENDBRANCH   1   7
TORSDOF 5
ENDMDL
