MODEL 1
REMARK VINA RESULT: -5.750735715      0.000      0.000
REMARK  4 active torsions:
REMARK  status: ('A' for Active; 'I' for Inactive)
REMARK    1  A    between atoms: C3_3  and  C4_4 
REMARK    2  A    between atoms: C4_4  and  C5_5 
REMARK    3  A    between atoms: C5_5  and  N1_6 
REMARK    4  A    between atoms: C8_9  and  N2_10 
ROOT
HETATM    1  C1  UNL     1     -15.281   6.977  26.054  1.00  0.00     0.096 C 
HETATM    2  C2  UNL     1     -14.645   5.975  25.770  1.00  0.00    -0.188 C 
HETATM    3  C3  UNL     1     -13.907   4.765  25.416  1.00  0.00     0.081 C 
ENDROOT
BRANCH   3   4
HETATM    4  C4  UNL     1     -13.077   4.970  24.146  1.00  0.00     0.041 C 
BRANCH   4   5
HETATM    5  C5  UNL     1     -13.986   4.883  22.984  1.00  0.00     0.273 C 
BRANCH   5   6
HETATM    6  N1  UNL     1     -14.849   3.746  22.948  1.00  0.00     0.090 N 
HETATM    7  C6  UNL     1     -14.466   2.668  22.116  1.00  0.00     0.274 C 
HETATM    8  C7  UNL     1     -15.538   2.359  21.129  1.00  0.00     0.064 C 
HETATM    9  C8  UNL     1     -16.734   3.121  21.643  1.00  0.00     0.213 C 
HETATM   10  C9  UNL     1     -16.226   4.074  22.696  1.00  0.00     0.305 C 
BRANCH   9  11
HETATM   11  N2  UNL     1     -17.681   2.168  22.177  1.00  0.00    -0.073 N 
ATOM     12  H23 UNL     1     -18.183   2.526  22.990  1.00  0.00     0.274 HD
ATOM     13  H22 UNL     1     -18.488   2.031  21.567  1.00  0.00     0.274 HD
ATOM     14  H21 UNL     1     -17.184   1.298  22.372  1.00  0.00     0.274 HD
ENDBRANCH   9  11
ENDBRANCH   5   6
ENDBRANCH   4   5
ENDBRANCH   3   4
TORSDOF 4
ENDMDL
MODEL 2
REMARK VINA RESULT: -5.672973918      1.318      2.289
REMARK  4 active torsions:
REMARK  status: ('A' for Active; 'I' for Inactive)
REMARK    1  A    between atoms: C3_3  and  C4_4 
REMARK    2  A    between atoms: C4_4  and  C5_5 
REMARK    3  A    between atoms: C5_5  and  N1_6 
REMARK    4  A    between atoms: C8_9  and  N2_10 
ROOT
HETATM    1  C1  UNL     1      -9.846   5.052  24.203  1.00  0.00     0.096 C 
HETATM    2  C2  UNL     1     -10.988   4.660  24.376  1.00  0.00    -0.188 C 
HETATM    3  C3  UNL     1     -12.357   4.202  24.609  1.00  0.00     0.081 C 
ENDROOT
BRANCH   3   4
HETATM    4  C4  UNL     1     -13.379   5.185  24.031  1.00  0.00     0.041 C 
BRANCH   4   5
HETATM    5  C5  UNL     1     -13.815   4.672  22.715  1.00  0.00     0.273 C 
BRANCH   5   6
HETATM    6  N1  UNL     1     -14.737   3.581  22.742  1.00  0.00     0.090 N 
HETATM    7  C6  UNL     1     -14.503   2.514  21.843  1.00  0.00     0.274 C 
HETATM    8  C7  UNL     1     -15.690   2.291  20.972  1.00  0.00     0.064 C 
HETATM    9  C8  UNL     1     -16.781   3.094  21.633  1.00  0.00     0.213 C 
HETATM   10  C9  UNL     1     -16.113   3.986  22.651  1.00  0.00     0.305 C 
BRANCH   9  11
HETATM   11  N2  UNL     1     -17.715   2.172  22.241  1.00  0.00    -0.073 N 
ATOM     12  H23 UNL     1     -18.512   1.967  21.639  1.00  0.00     0.274 HD
ATOM     13  H22 UNL     1     -17.344   1.224  22.308  1.00  0.00     0.274 HD
ATOM     14  H21 UNL     1     -17.993   2.551  23.147  1.00  0.00     0.274 HD
ENDBRANCH   9  11
ENDBRANCH   5   6
ENDBRANCH   4   5
ENDBRANCH   3   4
TORSDOF 4
ENDMDL
MODEL 3
REMARK VINA RESULT: -5.403856214      2.007      3.341
REMARK  4 active torsions:
REMARK  status: ('A' for Active; 'I' for Inactive)
REMARK    1  A    between atoms: C3_3  and  C4_4 
REMARK    2  A    between atoms: C4_4  and  C5_5 
REMARK    3  A    between atoms: C5_5  and  N1_6 
REMARK    4  A    between atoms: C8_9  and  N2_10 
ROOT
HETATM    1  C1  UNL     1      -9.274   3.575  21.524  1.00  0.00     0.096 C 
HETATM    2  C2  UNL     1     -10.285   3.838  22.155  1.00  0.00    -0.188 C 
HETATM    3  C3  UNL     1     -11.488   4.180  22.911  1.00  0.00     0.081 C 
ENDROOT
BRANCH   3   4
HETATM    4  C4  UNL     1     -12.679   4.429  21.981  1.00  0.00     0.041 C 
BRANCH   4   5
HETATM    5  C5  UNL     1     -13.884   4.613  22.817  1.00  0.00     0.273 C 
BRANCH   5   6
HETATM    6  N1  UNL     1     -14.817   3.531  22.816  1.00  0.00     0.090 N 
HETATM    7  C6  UNL     1     -14.570   2.464  21.921  1.00  0.00     0.274 C 
HETATM    8  C7  UNL     1     -15.735   2.256  21.017  1.00  0.00     0.064 C 
HETATM    9  C8  UNL     1     -16.835   3.068  21.651  1.00  0.00     0.213 C 
HETATM   10  C9  UNL     1     -16.186   3.950  22.689  1.00  0.00     0.305 C 
BRANCH   9  11
HETATM   11  N2  UNL     1     -17.795   2.155  22.231  1.00  0.00    -0.073 N 
ATOM     12  H23 UNL     1     -17.911   2.292  23.235  1.00  0.00     0.274 HD
ATOM     13  H22 UNL     1     -18.754   2.362  21.952  1.00  0.00     0.274 HD
ATOM     14  H21 UNL     1     -17.513   1.203  21.994  1.00  0.00     0.274 HD
ENDBRANCH   9  11
ENDBRANCH   5   6
ENDBRANCH   4   5
ENDBRANCH   3   4
TORSDOF 4
ENDMDL
MODEL 4
REMARK VINA RESULT: -5.181608777      2.878      4.604
REMARK  4 active torsions:
REMARK  status: ('A' for Active; 'I' for Inactive)
REMARK    1  A    between atoms: C3_3  and  C4_4 
REMARK    2  A    between atoms: C4_4  and  C5_5 
REMARK    3  A    between atoms: C5_5  and  N1_6 
REMARK    4  A    between atoms: C8_9  and  N2_10 
ROOT
HETATM    1  C1  UNL     1      -7.740   5.052  24.802  1.00  0.00     0.096 C 
HETATM    2  C2  UNL     1      -8.889   5.320  24.492  1.00  0.00    -0.188 C 
HETATM    3  C3  UNL     1     -10.259   5.636  24.094  1.00  0.00     0.081 C 
ENDROOT
BRANCH   3   4
HETATM    4  C4  UNL     1     -11.173   4.414  24.222  1.00  0.00     0.041 C 
BRANCH   4   5
HETATM    5  C5  UNL     1     -12.274   4.559  23.247  1.00  0.00     0.273 C 
BRANCH   5   6
HETATM    6  N1  UNL     1     -13.593   4.605  23.794  1.00  0.00     0.090 N 
HETATM    7  C6  UNL     1     -14.232   5.866  23.838  1.00  0.00     0.274 C 
HETATM    8  C7  UNL     1     -14.638   6.201  25.231  1.00  0.00     0.064 C 
HETATM    9  C8  UNL     1     -14.486   4.900  25.976  1.00  0.00     0.213 C 
HETATM   10  C9  UNL     1     -13.707   3.970  25.078  1.00  0.00     0.305 C 
BRANCH   9  11
HETATM   11  N2  UNL     1     -15.807   4.393  26.275  1.00  0.00    -0.073 N 
ATOM     12  H23 UNL     1     -16.538   5.087  26.121  1.00  0.00     0.274 HD
ATOM     13  H22 UNL     1     -16.127   3.702  25.596  1.00  0.00     0.274 HD
ATOM     14  H21 UNL     1     -15.802   4.033  27.230  1.00  0.00     0.274 HD
ENDBRANCH   9  11
ENDBRANCH   5   6
ENDBRANCH   4   5
ENDBRANCH   3   4
TORSDOF 4
ENDMDL
MODEL 5
REMARK VINA RESULT: -5.176316645      1.796      4.500
REMARK  4 active torsions:
REMARK  status: ('A' for Active; 'I' for Inactive)
REMARK    1  A    between atoms: C3_3  and  C4_4 
REMARK    2  A    between atoms: C4_4  and  C5_5 
REMARK    3  A    between atoms: C5_5  and  N1_6 
REMARK    4  A    between atoms: C8_9  and  N2_10 
ROOT
HETATM    1  C1  UNL     1     -16.444   2.827  21.182  1.00  0.00     0.096 C 
HETATM    2  C2  UNL     1     -15.235   2.712  21.302  1.00  0.00    -0.188 C 
HETATM    3  C3  UNL     1     -13.784   2.576  21.416  1.00  0.00     0.081 C 
ENDROOT
BRANCH   3   4
HETATM    4  C4  UNL     1     -13.112   3.936  21.625  1.00  0.00     0.041 C 
BRANCH   4   5
HETATM    5  C5  UNL     1     -12.783   4.070  23.060  1.00  0.00     0.273 C 
BRANCH   5   6
HETATM    6  N1  UNL     1     -13.892   4.071  23.959  1.00  0.00     0.090 N 
HETATM    7  C6  UNL     1     -14.710   5.226  23.977  1.00  0.00     0.274 C 
HETATM    8  C7  UNL     1     -14.780   5.800  25.349  1.00  0.00     0.064 C 
HETATM    9  C8  UNL     1     -14.204   4.716  26.225  1.00  0.00     0.213 C 
HETATM   10  C9  UNL     1     -13.542   3.717  25.308  1.00  0.00     0.305 C 
BRANCH   9  11
HETATM   11  N2  UNL     1     -15.284   4.129  26.987  1.00  0.00    -0.073 N 
ATOM     12  H23 UNL     1     -16.122   3.976  26.426  1.00  0.00     0.274 HD
ATOM     13  H22 UNL     1     -15.106   3.156  27.236  1.00  0.00     0.274 HD
ATOM     14  H21 UNL     1     -15.457   4.719  27.801  1.00  0.00     0.274 HD
ENDBRANCH   9  11
ENDBRANCH   5   6
ENDBRANCH   4   5
ENDBRANCH   3   4
TORSDOF 4
ENDMDL
