MODEL 1
REMARK VINA RESULT: -5.594681382      0.000      0.000
REMARK  3 active torsions:
REMARK  status: ('A' for Active; 'I' for Inactive)
REMARK    1  A    between atoms: C2_2  and  C3_3 
REMARK    2  A    between atoms: C3_3  and  C4_4 
REMARK    3  A    between atoms: C9_12  and  O1_13 
ROOT
HETATM    1  C4  UNL     1     -15.098   4.636  22.939  1.00  0.00     0.226 C 
HETATM    2  N1  UNL     1     -16.435   4.130  23.305  1.00  0.00    -0.060 N 
ATOM      3  H11 UNL     1     -17.288   4.629  23.055  1.00  0.00     0.278 HD
ATOM      4  H12 UNL     1     -16.766   4.132  24.270  1.00  0.00     0.278 HD
HETATM    5  C5  UNL     1     -16.031   2.897  22.627  1.00  0.00     0.222 C 
HETATM    6  C6  UNL     1     -16.296   3.022  21.162  1.00  0.00     0.036 C 
HETATM    7  C7  UNL     1     -14.986   2.709  20.501  1.00  0.00     0.005 C 
HETATM    8  C8  UNL     1     -13.894   2.932  21.507  1.00  0.00     0.042 C 
HETATM    9  C9  UNL     1     -14.553   3.282  22.827  1.00  0.00     0.114 C 
ENDROOT
BRANCH   1  10
HETATM   10  C3  UNL     1     -14.635   5.613  23.944  1.00  0.00     0.062 C 
BRANCH  10  11
HETATM   11  C2  UNL     1     -13.352   6.292  23.670  1.00  0.00    -0.035 C 
HETATM   12  C1  UNL     1     -12.170   5.780  23.963  1.00  0.00     0.007 C 
ENDBRANCH  10  11
ENDBRANCH   1  10
BRANCH   9  13
HETATM   13  O1  UNL     1     -13.975   2.637  23.877  1.00  0.00    -0.386 OA
ATOM     14  H1  UNL     1     -13.487   3.093  24.551  1.00  0.00     0.210 HD
ENDBRANCH   9  13
TORSDOF 3
ENDMDL
MODEL 2
REMARK VINA RESULT: -5.548585928      0.859      1.243
REMARK  3 active torsions:
REMARK  status: ('A' for Active; 'I' for Inactive)
REMARK    1  A    between atoms: C2_2  and  C3_3 
REMARK    2  A    between atoms: C3_3  and  C4_4 
REMARK    3  A    between atoms: C9_12  and  O1_13 
ROOT
HETATM    1  C4  UNL     1     -14.836   4.750  22.950  1.00  0.00     0.226 C 
HETATM    2  N1  UNL     1     -16.211   4.385  23.345  1.00  0.00    -0.060 N 
ATOM      3  H11 UNL     1     -17.017   4.950  23.076  1.00  0.00     0.278 HD
ATOM      4  H12 UNL     1     -16.533   4.458  24.309  1.00  0.00     0.278 HD
HETATM    5  C5  UNL     1     -15.928   3.092  22.718  1.00  0.00     0.222 C 
HETATM    6  C6  UNL     1     -16.193   3.179  21.250  1.00  0.00     0.036 C 
HETATM    7  C7  UNL     1     -14.922   2.719  20.597  1.00  0.00     0.005 C 
HETATM    8  C8  UNL     1     -13.806   2.883  21.587  1.00  0.00     0.042 C 
HETATM    9  C9  UNL     1     -14.420   3.348  22.895  1.00  0.00     0.114 C 
ENDROOT
BRANCH   1  10
HETATM   10  C3  UNL     1     -14.277   5.722  23.911  1.00  0.00     0.062 C 
BRANCH  10  11
HETATM   11  C2  UNL     1     -14.965   5.841  25.213  1.00  0.00    -0.035 C 
HETATM   12  C1  UNL     1     -14.501   5.333  26.340  1.00  0.00     0.007 C 
ENDBRANCH  10  11
ENDBRANCH   1  10
BRANCH   9  13
HETATM   13  O1  UNL     1     -13.894   2.697  23.969  1.00  0.00    -0.386 OA
ATOM     14  H1  UNL     1     -13.073   2.221  23.926  1.00  0.00     0.210 HD
ENDBRANCH   9  13
TORSDOF 3
ENDMDL
MODEL 3
REMARK VINA RESULT: -5.499604966      1.581      4.081
REMARK  3 active torsions:
REMARK  status: ('A' for Active; 'I' for Inactive)
REMARK    1  A    between atoms: C2_2  and  C3_3 
REMARK    2  A    between atoms: C3_3  and  C4_4 
REMARK    3  A    between atoms: C9_12  and  O1_13 
ROOT
HETATM    1  C4  UNL     1     -13.650   3.608  22.205  1.00  0.00     0.226 C 
HETATM    2  N1  UNL     1     -12.175   3.572  22.226  1.00  0.00    -0.060 N 
ATOM      3  H11 UNL     1     -11.617   3.887  21.432  1.00  0.00     0.278 HD
ATOM      4  H12 UNL     1     -11.656   2.696  22.191  1.00  0.00     0.278 HD
HETATM    5  C5  UNL     1     -12.285   4.359  23.456  1.00  0.00     0.222 C 
HETATM    6  C6  UNL     1     -12.413   5.808  23.113  1.00  0.00     0.036 C 
HETATM    7  C7  UNL     1     -13.656   6.267  23.817  1.00  0.00     0.005 C 
HETATM    8  C8  UNL     1     -14.504   5.060  24.093  1.00  0.00     0.042 C 
HETATM    9  C9  UNL     1     -13.721   3.839  23.649  1.00  0.00     0.114 C 
ENDROOT
BRANCH   1  10
HETATM   10  C3  UNL     1     -14.174   2.390  21.555  1.00  0.00     0.062 C 
BRANCH  10  11
HETATM   11  C2  UNL     1     -15.500   2.498  20.912  1.00  0.00    -0.035 C 
HETATM   12  C1  UNL     1     -16.607   2.823  21.555  1.00  0.00     0.007 C 
ENDBRANCH  10  11
ENDBRANCH   1  10
BRANCH   9  13
HETATM   13  O1  UNL     1     -13.800   2.823  24.551  1.00  0.00    -0.386 OA
ATOM     14  H1  UNL     1     -13.079   2.593  25.125  1.00  0.00     0.210 HD
ENDBRANCH   9  13
TORSDOF 3
ENDMDL
MODEL 4
REMARK VINA RESULT: -5.479967173      1.579      3.937
REMARK  3 active torsions:
REMARK  status: ('A' for Active; 'I' for Inactive)
REMARK    1  A    between atoms: C2_2  and  C3_3 
REMARK    2  A    between atoms: C3_3  and  C4_4 
REMARK    3  A    between atoms: C9_12  and  O1_13 
ROOT
HETATM    1  C4  UNL     1     -14.606   4.230  23.199  1.00  0.00     0.226 C 
HETATM    2  N1  UNL     1     -14.179   3.161  24.121  1.00  0.00    -0.060 N 
ATOM      3  H11 UNL     1     -13.721   2.312  23.788  1.00  0.00     0.278 HD
ATOM      4  H12 UNL     1     -14.850   2.561  24.600  1.00  0.00     0.278 HD
HETATM    5  C5  UNL     1     -13.442   4.214  24.822  1.00  0.00     0.222 C 
HETATM    6  C6  UNL     1     -12.112   4.414  24.170  1.00  0.00     0.036 C 
HETATM    7  C7  UNL     1     -12.051   5.878  23.851  1.00  0.00     0.005 C 
HETATM    8  C8  UNL     1     -13.457   6.402  23.805  1.00  0.00     0.042 C 
HETATM    9  C9  UNL     1     -14.381   5.267  24.207  1.00  0.00     0.114 C 
ENDROOT
BRANCH   1  10
HETATM   10  C3  UNL     1     -15.939   3.917  22.646  1.00  0.00     0.062 C 
BRANCH  10  11
HETATM   11  C2  UNL     1     -15.975   3.051  21.449  1.00  0.00    -0.035 C 
HETATM   12  C1  UNL     1     -14.909   2.729  20.739  1.00  0.00     0.007 C 
ENDBRANCH  10  11
ENDBRANCH   1  10
BRANCH   9  13
HETATM   13  O1  UNL     1     -15.354   5.677  25.066  1.00  0.00    -0.386 OA
ATOM     14  H1  UNL     1     -15.497   5.264  25.909  1.00  0.00     0.210 HD
ENDBRANCH   9  13
TORSDOF 3
ENDMDL
MODEL 5
REMARK VINA RESULT: -5.465358839      1.727      2.402
REMARK  3 active torsions:
REMARK  status: ('A' for Active; 'I' for Inactive)
REMARK    1  A    between atoms: C2_2  and  C3_3 
REMARK    2  A    between atoms: C3_3  and  C4_4 
REMARK    3  A    between atoms: C9_12  and  O1_13 
ROOT
HETATM    1  C4  UNL     1     -14.526   5.041  24.532  1.00  0.00     0.226 C 
HETATM    2  N1  UNL     1     -15.671   4.373  23.883  1.00  0.00    -0.060 N 
ATOM      3  H11 UNL     1     -16.391   4.897  23.386  1.00  0.00     0.278 HD
ATOM      4  H12 UNL     1     -16.419   3.939  24.424  1.00  0.00     0.278 HD
HETATM    5  C5  UNL     1     -14.664   3.579  23.177  1.00  0.00     0.222 C 
HETATM    6  C6  UNL     1     -14.198   4.324  21.968  1.00  0.00     0.036 C 
HETATM    7  C7  UNL     1     -12.704   4.384  22.099  1.00  0.00     0.005 C 
HETATM    8  C8  UNL     1     -12.358   4.187  23.547  1.00  0.00     0.042 C 
HETATM    9  C9  UNL     1     -13.648   3.896  24.290  1.00  0.00     0.114 C 
ENDROOT
BRANCH   1  10
HETATM   10  C3  UNL     1     -14.907   5.496  25.884  1.00  0.00     0.062 C 
BRANCH  10  11
HETATM   11  C2  UNL     1     -15.218   6.931  26.040  1.00  0.00    -0.035 C 
HETATM   12  C1  UNL     1     -14.768   7.875  25.233  1.00  0.00     0.007 C 
ENDBRANCH  10  11
ENDBRANCH   1  10
BRANCH   9  13
HETATM   13  O1  UNL     1     -13.508   2.878  25.184  1.00  0.00    -0.386 OA
ATOM     14  H1  UNL     1     -12.670   2.649  25.569  1.00  0.00     0.210 HD
ENDBRANCH   9  13
TORSDOF 3
ENDMDL
