MODEL 1
REMARK VINA RESULT: -7.554393383      0.000      0.000
REMARK  3 active torsions:
REMARK  status: ('A' for Active; 'I' for Inactive)
REMARK    1  A    between atoms: C2_2  and  C3_4 
REMARK    2  A    between atoms: C3_4  and  C4_5 
REMARK    3  A    between atoms: C4_5  and  N1_8 
REMARK       I    between atoms: N1_8  and  C7_10 
REMARK       I    between atoms: C7_10  and  N2_12 
ROOT
HETATM    1  N1  UNL     1      -6.245  20.646   2.736  1.00  0.00    -0.333 N 
ATOM      2  H1  UNL     1      -5.315  20.551   3.146  1.00  0.00     0.165 HD
HETATM    3  C7  UNL     1      -6.326  20.854   1.347  1.00  0.00     0.334 C 
HETATM    4  O2  UNL     1      -7.413  20.976   0.766  1.00  0.00    -0.246 OA
HETATM    5  N2  UNL     1      -5.144  20.926   0.578  1.00  0.00    -0.196 N 
HETATM    6  C8  UNL     1      -4.956  21.128  -0.837  1.00  0.00     0.153 C 
HETATM    7  C9  UNL     1      -6.099  21.807  -1.520  1.00  0.00     0.169 C 
HETATM    8  S1  UNL     1      -5.219  22.459  -2.953  1.00  0.00     0.149 S 
HETATM    9  O3  UNL     1      -5.251  21.426  -4.045  1.00  0.00    -0.228 OA
HETATM   10  O4  UNL     1      -5.749  23.774  -3.371  1.00  0.00    -0.228 OA
HETATM   11  C10 UNL     1      -3.574  22.581  -2.237  1.00  0.00     0.175 C 
HETATM   12  C11 UNL     1      -3.808  22.127  -0.845  1.00  0.00     0.183 C 
HETATM   13  O5  UNL     1      -2.737  21.445  -0.280  1.00  0.00    -0.251 OA
HETATM   14  S2  UNL     1      -3.485  20.790   1.104  1.00  0.00     0.368 S 
HETATM   15  O6  UNL     1      -3.131  19.349   1.204  1.00  0.00    -0.175 OA
HETATM   16  O7  UNL     1      -3.210  21.575   2.316  1.00  0.00    -0.175 OA
ENDROOT
BRANCH   1  17
HETATM   17  C4  UNL     1      -7.383  20.556   3.626  1.00  0.00     0.034 C 
HETATM   18  C5  UNL     1      -7.819  21.916   4.108  1.00  0.00     0.038 C 
HETATM   19  C6  UNL     1      -7.002  19.759   4.866  1.00  0.00     0.038 C 
BRANCH  17  20
HETATM   20  C3  UNL     1      -8.512  19.835   2.926  1.00  0.00     0.108 C 
BRANCH  20  21
HETATM   21  C2  UNL     1      -8.368  18.357   3.051  1.00  0.00     0.125 C 
HETATM   22  C1  UNL     1      -9.396  17.492   3.679  1.00  0.00     0.091 C 
HETATM   23  O1  UNL     1      -7.362  17.786   2.625  1.00  0.00    -0.298 OA
ENDBRANCH  20  21
ENDBRANCH  17  20
ENDBRANCH   1  17
TORSDOF 3
ENDMDL
MODEL 2
REMARK VINA RESULT: -7.498598892      4.245      6.776
REMARK  3 active torsions:
REMARK  status: ('A' for Active; 'I' for Inactive)
REMARK    1  A    between atoms: C2_2  and  C3_4 
REMARK    2  A    between atoms: C3_4  and  C4_5 
REMARK    3  A    between atoms: C4_5  and  N1_8 
REMARK       I    between atoms: N1_8  and  C7_10 
REMARK       I    between atoms: C7_10  and  N2_12 
ROOT
HETATM    1  N1  UNL     1      -5.586  21.703   2.880  1.00  0.00    -0.333 N 
ATOM      2  H1  UNL     1      -6.481  21.536   3.341  1.00  0.00     0.165 HD
HETATM    3  C7  UNL     1      -4.509  22.124   3.682  1.00  0.00     0.334 C 
HETATM    4  O2  UNL     1      -3.387  22.348   3.206  1.00  0.00    -0.246 OA
HETATM    5  N2  UNL     1      -4.695  22.300   5.071  1.00  0.00    -0.196 N 
HETATM    6  C8  UNL     1      -3.770  22.715   6.095  1.00  0.00     0.153 C 
HETATM    7  C9  UNL     1      -2.605  23.504   5.593  1.00  0.00     0.169 C 
HETATM    8  S1  UNL     1      -2.168  24.359   7.119  1.00  0.00     0.149 S 
HETATM    9  O3  UNL     1      -1.192  23.506   7.881  1.00  0.00    -0.228 OA
HETATM   10  O4  UNL     1      -1.677  25.729   6.860  1.00  0.00    -0.228 OA
HETATM   11  C10 UNL     1      -3.780  24.349   7.914  1.00  0.00     0.175 C 
HETATM   12  C11 UNL     1      -4.627  23.689   6.892  1.00  0.00     0.183 C 
HETATM   13  O5  UNL     1      -5.655  22.915   7.415  1.00  0.00    -0.251 OA
HETATM   14  S2  UNL     1      -6.141  22.064   6.021  1.00  0.00     0.368 S 
HETATM   15  O6  UNL     1      -6.262  20.620   6.358  1.00  0.00    -0.175 OA
HETATM   16  O7  UNL     1      -7.332  22.649   5.391  1.00  0.00    -0.175 OA
ENDROOT
BRANCH   1  17
HETATM   17  C4  UNL     1      -5.518  21.491   1.449  1.00  0.00     0.034 C 
HETATM   18  C5  UNL     1      -4.364  20.596   1.076  1.00  0.00     0.038 C 
HETATM   19  C6  UNL     1      -5.280  22.820   0.745  1.00  0.00     0.038 C 
BRANCH  17  20
HETATM   20  C3  UNL     1      -6.831  20.925   0.962  1.00  0.00     0.108 C 
BRANCH  20  21
HETATM   21  C2  UNL     1      -7.665  20.442   2.099  1.00  0.00     0.125 C 
HETATM   22  C1  UNL     1      -7.732  19.019   2.508  1.00  0.00     0.091 C 
HETATM   23  O1  UNL     1      -8.348  21.230   2.757  1.00  0.00    -0.298 OA
ENDBRANCH  20  21
ENDBRANCH  17  20
ENDBRANCH   1  17
TORSDOF 3
ENDMDL
MODEL 3
REMARK VINA RESULT: -7.413600732      1.029      1.993
REMARK  3 active torsions:
REMARK  status: ('A' for Active; 'I' for Inactive)
REMARK    1  A    between atoms: C2_2  and  C3_4 
REMARK    2  A    between atoms: C3_4  and  C4_5 
REMARK    3  A    between atoms: C4_5  and  N1_8 
REMARK       I    between atoms: N1_8  and  C7_10 
REMARK       I    between atoms: C7_10  and  N2_12 
ROOT
HETATM    1  N1  UNL     1      -6.312  20.497   2.745  1.00  0.00    -0.333 N 
ATOM      2  H1  UNL     1      -5.393  20.431   3.183  1.00  0.00     0.165 HD
HETATM    3  C7  UNL     1      -6.358  20.736   1.359  1.00  0.00     0.334 C 
HETATM    4  O2  UNL     1      -7.430  20.828   0.745  1.00  0.00    -0.246 OA
HETATM    5  N2  UNL     1      -5.156  20.877   0.631  1.00  0.00    -0.196 N 
HETATM    6  C8  UNL     1      -4.932  21.122  -0.771  1.00  0.00     0.153 C 
HETATM    7  C9  UNL     1      -6.079  21.769  -1.476  1.00  0.00     0.169 C 
HETATM    8  S1  UNL     1      -5.182  22.493  -2.862  1.00  0.00     0.149 S 
HETATM    9  O3  UNL     1      -5.135  21.487  -3.979  1.00  0.00    -0.228 OA
HETATM   10  O4  UNL     1      -5.754  23.795  -3.267  1.00  0.00    -0.228 OA
HETATM   11  C10 UNL     1      -3.568  22.665  -2.090  1.00  0.00     0.175 C 
HETATM   12  C11 UNL     1      -3.826  22.168  -0.717  1.00  0.00     0.183 C 
HETATM   13  O5  UNL     1      -2.746  21.517  -0.134  1.00  0.00    -0.251 OA
HETATM   14  S2  UNL     1      -3.510  20.796   1.209  1.00  0.00     0.368 S 
HETATM   15  O6  UNL     1      -3.099  19.369   1.286  1.00  0.00    -0.175 OA
HETATM   16  O7  UNL     1      -3.308  21.562   2.447  1.00  0.00    -0.175 OA
ENDROOT
BRANCH   1  17
HETATM   17  C4  UNL     1      -7.474  20.338   3.595  1.00  0.00     0.034 C 
HETATM   18  C5  UNL     1      -8.512  19.451   2.955  1.00  0.00     0.038 C 
HETATM   19  C6  UNL     1      -8.137  21.691   3.814  1.00  0.00     0.038 C 
BRANCH  17  20
HETATM   20  C3  UNL     1      -7.043  19.797   4.938  1.00  0.00     0.108 C 
BRANCH  20  21
HETATM   21  C2  UNL     1      -5.606  20.089   5.202  1.00  0.00     0.125 C 
HETATM   22  C1  UNL     1      -5.145  21.279   5.955  1.00  0.00     0.091 C 
HETATM   23  O1  UNL     1      -4.725  19.330   4.792  1.00  0.00    -0.298 OA
ENDBRANCH  20  21
ENDBRANCH  17  20
ENDBRANCH   1  17
TORSDOF 3
ENDMDL
MODEL 4
REMARK VINA RESULT: -7.366473886      2.052      3.268
REMARK  3 active torsions:
REMARK  status: ('A' for Active; 'I' for Inactive)
REMARK    1  A    between atoms: C2_2  and  C3_4 
REMARK    2  A    between atoms: C3_4  and  C4_5 
REMARK    3  A    between atoms: C4_5  and  N1_8 
REMARK       I    between atoms: N1_8  and  C7_10 
REMARK       I    between atoms: C7_10  and  N2_12 
ROOT
HETATM    1  N1  UNL     1      -5.768  19.879   2.517  1.00  0.00    -0.333 N 
ATOM      2  H1  UNL     1      -6.553  20.421   2.155  1.00  0.00     0.165 HD
HETATM    3  C7  UNL     1      -4.541  19.976   1.835  1.00  0.00     0.334 C 
HETATM    4  O2  UNL     1      -3.535  19.356   2.206  1.00  0.00    -0.246 OA
HETATM    5  N2  UNL     1      -4.435  20.801   0.693  1.00  0.00    -0.196 N 
HETATM    6  C8  UNL     1      -3.313  21.070  -0.169  1.00  0.00     0.153 C 
HETATM    7  C9  UNL     1      -2.258  20.012  -0.157  1.00  0.00     0.169 C 
HETATM    8  S1  UNL     1      -1.500  20.355  -1.757  1.00  0.00     0.149 S 
HETATM    9  O3  UNL     1      -0.407  21.370  -1.561  1.00  0.00    -0.228 OA
HETATM   10  O4  UNL     1      -1.041  19.118  -2.425  1.00  0.00    -0.228 OA
HETATM   11  C10 UNL     1      -2.916  21.094  -2.582  1.00  0.00     0.175 C 
HETATM   12  C11 UNL     1      -3.967  20.996  -1.542  1.00  0.00     0.183 C 
HETATM   13  O5  UNL     1      -4.884  22.039  -1.557  1.00  0.00    -0.251 OA
HETATM   14  S2  UNL     1      -5.662  21.788  -0.062  1.00  0.00     0.368 S 
HETATM   15  O6  UNL     1      -5.743  23.086   0.661  1.00  0.00    -0.175 OA
HETATM   16  O7  UNL     1      -6.944  21.084  -0.206  1.00  0.00    -0.175 OA
ENDROOT
BRANCH   1  17
HETATM   17  C4  UNL     1      -5.997  19.067   3.694  1.00  0.00     0.034 C 
HETATM   18  C5  UNL     1      -5.047  19.425   4.808  1.00  0.00     0.038 C 
HETATM   19  C6  UNL     1      -5.744  17.603   3.362  1.00  0.00     0.038 C 
BRANCH  17  20
HETATM   20  C3  UNL     1      -7.436  19.214   4.131  1.00  0.00     0.108 C 
BRANCH  20  21
HETATM   21  C2  UNL     1      -8.365  18.577   3.156  1.00  0.00     0.125 C 
HETATM   22  C1  UNL     1      -9.370  17.557   3.540  1.00  0.00     0.091 C 
HETATM   23  O1  UNL     1      -8.329  18.883   1.963  1.00  0.00    -0.298 OA
ENDBRANCH  20  21
ENDBRANCH  17  20
ENDBRANCH   1  17
TORSDOF 3
ENDMDL
MODEL 5
REMARK VINA RESULT: -7.325036684      4.027      6.336
REMARK  3 active torsions:
REMARK  status: ('A' for Active; 'I' for Inactive)
REMARK    1  A    between atoms: C2_2  and  C3_4 
REMARK    2  A    between atoms: C3_4  and  C4_5 
REMARK    3  A    between atoms: C4_5  and  N1_8 
REMARK       I    between atoms: N1_8  and  C7_10 
REMARK       I    between atoms: C7_10  and  N2_12 
ROOT
HETATM    1  N1  UNL     1      -6.434  21.435   3.329  1.00  0.00    -0.333 N 
ATOM      2  H1  UNL     1      -5.665  21.497   2.661  1.00  0.00     0.165 HD
HETATM    3  C7  UNL     1      -6.400  22.292   4.444  1.00  0.00     0.334 C 
HETATM    4  O2  UNL     1      -7.293  22.286   5.302  1.00  0.00    -0.246 OA
HETATM    5  N2  UNL     1      -5.323  23.192   4.604  1.00  0.00    -0.196 N 
HETATM    6  C8  UNL     1      -5.055  24.159   5.639  1.00  0.00     0.153 C 
HETATM    7  C9  UNL     1      -5.731  23.873   6.941  1.00  0.00     0.169 C 
HETATM    8  S1  UNL     1      -4.639  24.806   8.032  1.00  0.00     0.149 S 
HETATM    9  O3  UNL     1      -5.156  26.214   8.136  1.00  0.00    -0.228 OA
HETATM   10  O4  UNL     1      -4.474  24.141   9.342  1.00  0.00    -0.228 OA
HETATM   11  C10 UNL     1      -3.140  24.747   7.041  1.00  0.00     0.175 C 
HETATM   12  C11 UNL     1      -3.569  23.934   5.878  1.00  0.00     0.183 C 
HETATM   13  O5  UNL     1      -2.957  24.286   4.680  1.00  0.00    -0.251 OA
HETATM   14  S2  UNL     1      -3.934  23.433   3.574  1.00  0.00     0.368 S 
HETATM   15  O6  UNL     1      -4.313  24.348   2.464  1.00  0.00    -0.175 OA
HETATM   16  O7  UNL     1      -3.323  22.167   3.145  1.00  0.00    -0.175 OA
ENDROOT
BRANCH   1  17
HETATM   17  C4  UNL     1      -7.482  20.472   3.059  1.00  0.00     0.034 C 
HETATM   18  C5  UNL     1      -7.285  19.798   1.725  1.00  0.00     0.038 C 
HETATM   19  C6  UNL     1      -8.826  21.183   2.991  1.00  0.00     0.038 C 
BRANCH  17  20
HETATM   20  C3  UNL     1      -7.535  19.461   4.181  1.00  0.00     0.108 C 
BRANCH  20  21
HETATM   21  C2  UNL     1      -7.991  18.131   3.689  1.00  0.00     0.125 C 
HETATM   22  C1  UNL     1      -9.420  17.769   3.535  1.00  0.00     0.091 C 
HETATM   23  O1  UNL     1      -7.174  17.260   3.384  1.00  0.00    -0.298 OA
ENDBRANCH  20  21
ENDBRANCH  17  20
ENDBRANCH   1  17
TORSDOF 3
ENDMDL
