MODEL 1
REMARK VINA RESULT: -6.772499418      0.000      0.000
REMARK  6 active torsions:
REMARK  status: ('A' for Active; 'I' for Inactive)
REMARK    1  A    between atoms: C2_2  and  C4_4 
REMARK    2  A    between atoms: C5_6  and  C8_16 
REMARK    3  A    between atoms: N1_8  and  C7_11 
REMARK    4  A    between atoms: C9_17  and  O6_18 
REMARK    5  A    between atoms: O6_18  and  C10_19 
REMARK    6  A    between atoms: C10_19  and  C11_20 
ROOT
HETATM    1  C7  UNL     1      -4.592  20.474   1.456  1.00  0.00     0.303 C 
HETATM    2  O3  UNL     1      -3.417  20.962   2.082  1.00  0.00    -0.244 OA
HETATM    3  S2  UNL     1      -3.963  22.314   2.963  1.00  0.00     0.277 S 
HETATM    4  O4  UNL     1      -3.161  23.517   2.510  1.00  0.00    -0.198 OA
HETATM    5  O5  UNL     1      -3.865  22.190   4.401  1.00  0.00    -0.198 OA
HETATM    6  C8  UNL     1      -5.569  22.454   2.265  1.00  0.00     0.211 C 
HETATM    7  C9  UNL     1      -5.245  21.793   0.922  1.00  0.00     0.198 C 
ENDROOT
BRANCH   7   8
HETATM    8  O6  UNL     1      -6.322  21.510   0.153  1.00  0.00    -0.369 OA
BRANCH   8   9
HETATM    9  C10 UNL     1      -6.296  21.876  -1.160  1.00  0.00     0.281 C 
BRANCH   9  10
HETATM   10  C11 UNL     1      -5.105  21.535  -1.927  1.00  0.00     0.197 C 
HETATM   11  O7  UNL     1      -4.739  20.368  -2.169  1.00  0.00    -0.646 OA
HETATM   12  O8  UNL     1      -4.300  22.553  -2.435  1.00  0.00    -0.646 OA
ENDBRANCH   9  10
ENDBRANCH   8   9
ENDBRANCH   7   8
BRANCH   1  13
HETATM   13  N1  UNL     1      -5.538  19.990   2.398  1.00  0.00    -0.190 N 
HETATM   14  O1  UNL     1      -5.087  19.915   3.712  1.00  0.00    -0.255 OA
HETATM   15  C5  UNL     1      -4.422  18.646   3.628  1.00  0.00     0.238 C 
HETATM   16  S1  UNL     1      -5.732  17.441   3.307  1.00  0.00    -0.118 SA
HETATM   17  C4  UNL     1      -7.288  18.395   3.089  1.00  0.00     0.147 C 
HETATM   18  C6  UNL     1      -6.854  19.523   2.192  1.00  0.00     0.260 C 
HETATM   19  O2  UNL     1      -7.533  20.056   1.319  1.00  0.00    -0.270 OA
BRANCH  17  20
HETATM   20  C2  UNL     1      -8.416  17.596   2.586  1.00  0.00     0.000 C 
HETATM   21  C1  UNL     1      -9.560  17.763   3.592  1.00  0.00     0.011 C 
HETATM   22  C3  UNL     1      -8.157  16.168   2.268  1.00  0.00     0.011 C 
ENDBRANCH  17  20
ENDBRANCH   1  13
TORSDOF 6
ENDMDL
MODEL 2
REMARK VINA RESULT: -6.683517693      2.526      4.871
REMARK  6 active torsions:
REMARK  status: ('A' for Active; 'I' for Inactive)
REMARK    1  A    between atoms: C2_2  and  C4_4 
REMARK    2  A    between atoms: C5_6  and  C8_16 
REMARK    3  A    between atoms: N1_8  and  C7_11 
REMARK    4  A    between atoms: C9_17  and  O6_18 
REMARK    5  A    between atoms: O6_18  and  C10_19 
REMARK    6  A    between atoms: C10_19  and  C11_20 
ROOT
HETATM    1  C7  UNL     1      -6.803  20.595   3.392  1.00  0.00     0.303 C 
HETATM    2  O3  UNL     1      -6.713  19.275   3.904  1.00  0.00    -0.244 OA
HETATM    3  S2  UNL     1      -5.223  18.711   3.303  1.00  0.00     0.277 S 
HETATM    4  O4  UNL     1      -5.490  17.444   2.517  1.00  0.00    -0.198 OA
HETATM    5  O5  UNL     1      -4.216  18.446   4.308  1.00  0.00    -0.198 OA
HETATM    6  C8  UNL     1      -4.901  19.994   2.146  1.00  0.00     0.211 C 
HETATM    7  C9  UNL     1      -6.360  20.394   1.904  1.00  0.00     0.198 C 
ENDROOT
BRANCH   7   8
HETATM    8  O6  UNL     1      -6.526  21.539   1.202  1.00  0.00    -0.369 OA
BRANCH   8   9
HETATM    9  C10 UNL     1      -5.867  21.674   0.016  1.00  0.00     0.281 C 
BRANCH   9  10
HETATM   10  C11 UNL     1      -6.625  21.425  -1.203  1.00  0.00     0.197 C 
HETATM   11  O7  UNL     1      -7.572  20.618  -1.285  1.00  0.00    -0.646 OA
HETATM   12  O8  UNL     1      -6.296  22.113  -2.370  1.00  0.00    -0.646 OA
ENDBRANCH   9  10
ENDBRANCH   8   9
ENDBRANCH   7   8
BRANCH   1  13
HETATM   13  N1  UNL     1      -5.801  21.445   3.928  1.00  0.00    -0.190 N 
HETATM   14  O1  UNL     1      -4.900  20.835   4.796  1.00  0.00    -0.255 OA
HETATM   15  C5  UNL     1      -5.693  20.904   5.992  1.00  0.00     0.238 C 
HETATM   16  S1  UNL     1      -5.865  22.669   6.349  1.00  0.00    -0.118 SA
HETATM   17  C4  UNL     1      -5.081  23.572   4.953  1.00  0.00     0.147 C 
HETATM   18  C6  UNL     1      -5.609  22.833   3.752  1.00  0.00     0.260 C 
HETATM   19  O2  UNL     1      -5.882  23.325   2.661  1.00  0.00    -0.270 OA
BRANCH  17  20
HETATM   20  C2  UNL     1      -5.336  25.020   4.956  1.00  0.00     0.000 C 
HETATM   21  C1  UNL     1      -4.215  25.668   4.137  1.00  0.00     0.011 C 
HETATM   22  C3  UNL     1      -5.517  25.681   6.275  1.00  0.00     0.011 C 
ENDBRANCH  17  20
ENDBRANCH   1  13
TORSDOF 6
ENDMDL
MODEL 3
REMARK VINA RESULT: -6.586093764      2.931      5.435
REMARK  6 active torsions:
REMARK  status: ('A' for Active; 'I' for Inactive)
REMARK    1  A    between atoms: C2_2  and  C4_4 
REMARK    2  A    between atoms: C5_6  and  C8_16 
REMARK    3  A    between atoms: N1_8  and  C7_11 
REMARK    4  A    between atoms: C9_17  and  O6_18 
REMARK    5  A    between atoms: O6_18  and  C10_19 
REMARK    6  A    between atoms: C10_19  and  C11_20 
ROOT
HETATM    1  C7  UNL     1      -6.388  21.884   2.863  1.00  0.00     0.303 C 
HETATM    2  O3  UNL     1      -7.663  21.288   3.043  1.00  0.00    -0.244 OA
HETATM    3  S2  UNL     1      -7.304  19.645   3.318  1.00  0.00     0.277 S 
HETATM    4  O4  UNL     1      -8.046  18.829   2.281  1.00  0.00    -0.198 OA
HETATM    5  O5  UNL     1      -7.638  19.157   4.638  1.00  0.00    -0.198 OA
HETATM    6  C8  UNL     1      -5.607  19.665   2.863  1.00  0.00     0.211 C 
HETATM    7  C9  UNL     1      -5.686  20.860   1.908  1.00  0.00     0.198 C 
ENDROOT
BRANCH   7   8
HETATM    8  O6  UNL     1      -4.489  21.340   1.498  1.00  0.00    -0.369 OA
BRANCH   8   9
HETATM    9  C10 UNL     1      -3.958  20.855   0.340  1.00  0.00     0.281 C 
BRANCH   9  10
HETATM   10  C11 UNL     1      -2.765  20.024   0.447  1.00  0.00     0.197 C 
HETATM   11  O7  UNL     1      -1.999  20.024   1.431  1.00  0.00    -0.646 OA
HETATM   12  O8  UNL     1      -2.430  19.165  -0.598  1.00  0.00    -0.646 OA
ENDBRANCH   9  10
ENDBRANCH   8   9
ENDBRANCH   7   8
BRANCH   1  13
HETATM   13  N1  UNL     1      -5.602  21.832   4.044  1.00  0.00    -0.190 N 
HETATM   14  O1  UNL     1      -6.246  21.322   5.168  1.00  0.00    -0.255 OA
HETATM   15  C5  UNL     1      -6.912  22.524   5.584  1.00  0.00     0.238 C 
HETATM   16  S1  UNL     1      -5.589  23.670   6.040  1.00  0.00    -0.118 SA
HETATM   17  C4  UNL     1      -4.002  22.838   5.630  1.00  0.00     0.147 C 
HETATM   18  C6  UNL     1      -4.278  22.268   4.264  1.00  0.00     0.260 C 
HETATM   19  O2  UNL     1      -3.468  22.157   3.349  1.00  0.00    -0.270 OA
BRANCH  17  20
HETATM   20  C2  UNL     1      -2.825  23.715   5.714  1.00  0.00     0.000 C 
HETATM   21  C1  UNL     1      -1.993  23.227   6.905  1.00  0.00     0.011 C 
HETATM   22  C3  UNL     1      -3.064  25.181   5.765  1.00  0.00     0.011 C 
ENDBRANCH  17  20
ENDBRANCH   1  13
TORSDOF 6
ENDMDL
MODEL 4
REMARK VINA RESULT: -6.582502522      3.213      5.560
REMARK  6 active torsions:
REMARK  status: ('A' for Active; 'I' for Inactive)
REMARK    1  A    between atoms: C2_2  and  C4_4 
REMARK    2  A    between atoms: C5_6  and  C8_16 
REMARK    3  A    between atoms: N1_8  and  C7_11 
REMARK    4  A    between atoms: C9_17  and  O6_18 
REMARK    5  A    between atoms: O6_18  and  C10_19 
REMARK    6  A    between atoms: C10_19  and  C11_20 
ROOT
HETATM    1  C7  UNL     1      -6.082  22.916   4.311  1.00  0.00     0.303 C 
HETATM    2  O3  UNL     1      -5.281  23.814   3.560  1.00  0.00    -0.244 OA
HETATM    3  S2  UNL     1      -3.690  23.405   4.009  1.00  0.00     0.277 S 
HETATM    4  O4  UNL     1      -3.026  24.654   4.552  1.00  0.00    -0.198 OA
HETATM    5  O5  UNL     1      -2.875  22.854   2.948  1.00  0.00    -0.198 OA
HETATM    6  C8  UNL     1      -4.059  22.365   5.376  1.00  0.00     0.211 C 
HETATM    7  C9  UNL     1      -5.413  22.992   5.724  1.00  0.00     0.198 C 
ENDROOT
BRANCH   7   8
HETATM    8  O6  UNL     1      -6.143  22.301   6.631  1.00  0.00    -0.369 OA
BRANCH   8   9
HETATM    9  C10 UNL     1      -6.908  23.001   7.516  1.00  0.00     0.281 C 
BRANCH   9  10
HETATM   10  C11 UNL     1      -6.230  23.613   8.651  1.00  0.00     0.197 C 
HETATM   11  O7  UNL     1      -5.004  23.837   8.695  1.00  0.00    -0.646 OA
HETATM   12  O8  UNL     1      -6.967  23.983   9.774  1.00  0.00    -0.646 OA
ENDBRANCH   9  10
ENDBRANCH   8   9
ENDBRANCH   7   8
BRANCH   1  13
HETATM   13  N1  UNL     1      -5.884  21.567   3.918  1.00  0.00    -0.190 N 
HETATM   14  O1  UNL     1      -4.978  21.373   2.880  1.00  0.00    -0.255 OA
HETATM   15  C5  UNL     1      -5.868  21.631   1.783  1.00  0.00     0.238 C 
HETATM   16  S1  UNL     1      -7.098  20.307   1.844  1.00  0.00    -0.118 SA
HETATM   17  C4  UNL     1      -6.743  19.323   3.356  1.00  0.00     0.147 C 
HETATM   18  C6  UNL     1      -6.507  20.391   4.390  1.00  0.00     0.260 C 
HETATM   19  O2  UNL     1      -6.807  20.327   5.579  1.00  0.00    -0.270 OA
BRANCH  17  20
HETATM   20  C2  UNL     1      -7.788  18.346   3.694  1.00  0.00     0.000 C 
HETATM   21  C1  UNL     1      -7.391  17.024   3.027  1.00  0.00     0.011 C 
HETATM   22  C3  UNL     1      -9.196  18.718   3.401  1.00  0.00     0.011 C 
ENDBRANCH  17  20
ENDBRANCH   1  13
TORSDOF 6
ENDMDL
MODEL 5
REMARK VINA RESULT: -6.312605639      2.330      5.224
REMARK  6 active torsions:
REMARK  status: ('A' for Active; 'I' for Inactive)
REMARK    1  A    between atoms: C2_2  and  C4_4 
REMARK    2  A    between atoms: C5_6  and  C8_16 
REMARK    3  A    between atoms: N1_8  and  C7_11 
REMARK    4  A    between atoms: C9_17  and  O6_18 
REMARK    5  A    between atoms: O6_18  and  C10_19 
REMARK    6  A    between atoms: C10_19  and  C11_20 
ROOT
HETATM    1  C7  UNL     1      -6.541  22.104   3.648  1.00  0.00     0.303 C 
HETATM    2  O3  UNL     1      -6.020  22.930   4.676  1.00  0.00    -0.244 OA
HETATM    3  S2  UNL     1      -4.842  21.951   5.422  1.00  0.00     0.277 S 
HETATM    4  O4  UNL     1      -5.190  21.847   6.893  1.00  0.00    -0.198 OA
HETATM    5  O5  UNL     1      -3.480  22.416   5.285  1.00  0.00    -0.198 OA
HETATM    6  C8  UNL     1      -5.258  20.418   4.670  1.00  0.00     0.211 C 
HETATM    7  C9  UNL     1      -6.730  20.741   4.395  1.00  0.00     0.198 C 
ENDROOT
BRANCH   7   8
HETATM    8  O6  UNL     1      -7.368  19.850   3.600  1.00  0.00    -0.369 OA
BRANCH   8   9
HETATM    9  C10 UNL     1      -8.093  18.857   4.189  1.00  0.00     0.281 C 
BRANCH   9  10
HETATM   10  C11 UNL     1      -8.794  17.929   3.312  1.00  0.00     0.197 C 
HETATM   11  O7  UNL     1      -8.360  17.548   2.206  1.00  0.00    -0.646 OA
HETATM   12  O8  UNL     1     -10.029  17.414   3.701  1.00  0.00    -0.646 OA
ENDBRANCH   9  10
ENDBRANCH   8   9
ENDBRANCH   7   8
BRANCH   1  13
HETATM   13  N1  UNL     1      -5.569  21.809   2.656  1.00  0.00    -0.190 N 
HETATM   14  O1  UNL     1      -4.328  22.413   2.836  1.00  0.00    -0.255 OA
HETATM   15  C5  UNL     1      -4.636  23.688   2.251  1.00  0.00     0.238 C 
HETATM   16  S1  UNL     1      -4.960  23.347   0.505  1.00  0.00    -0.118 SA
HETATM   17  C4  UNL     1      -4.894  21.522   0.300  1.00  0.00     0.147 C 
HETATM   18  C6  UNL     1      -5.689  21.034   1.482  1.00  0.00     0.260 C 
HETATM   19  O2  UNL     1      -6.414  20.044   1.508  1.00  0.00    -0.270 OA
BRANCH  17  20
HETATM   20  C2  UNL     1      -5.368  21.048  -1.009  1.00  0.00     0.000 C 
HETATM   21  C1  UNL     1      -4.129  20.895  -1.900  1.00  0.00     0.011 C 
HETATM   22  C3  UNL     1      -6.440  21.831  -1.675  1.00  0.00     0.011 C 
ENDBRANCH  17  20
ENDBRANCH   1  13
TORSDOF 6
ENDMDL
