MODEL 1
REMARK VINA RESULT: -5.512298287      0.000      0.000
REMARK  5 active torsions:
REMARK  status: ('A' for Active; 'I' for Inactive)
REMARK    1  A    between atoms: N1_2  and  N2_3 
REMARK    2  A    between atoms: N1_2  and  S1_6 
REMARK    3  A    between atoms: S1_6  and  N3_9 
REMARK    4  A    between atoms: N3_9  and  S2_11 
REMARK    5  A    between atoms: S2_11  and  N4_12 
ROOT
HETATM    1  S1  UNL     1      19.903  62.105  27.794  1.00  0.00     0.329 S 
HETATM    2  O1  UNL     1      20.359  62.204  26.372  1.00  0.00    -0.186 OA
HETATM    3  O2  UNL     1      19.262  60.757  27.971  1.00  0.00    -0.186 OA
ENDROOT
BRANCH   1   4
HETATM    4  N1  UNL     1      18.815  63.386  28.103  1.00  0.00    -0.113 NA
HETATM    5  C1  UNL     1      17.423  62.954  28.044  1.00  0.00     0.157 C 
BRANCH   4   6
HETATM    6  N2  UNL     1      18.975  63.937  29.398  1.00  0.00    -0.349 NA
ATOM      7  H22 UNL     1      18.111  63.923  29.940  1.00  0.00     0.172 HD
ATOM      8  H21 UNL     1      19.317  64.885  29.242  1.00  0.00     0.172 HD
ENDBRANCH   4   6
ENDBRANCH   1   4
BRANCH   1   9
HETATM    9  N3  UNL     1      21.233  62.240  28.835  1.00  0.00    -0.180 N 
ATOM     10  H3  UNL     1      21.198  62.771  29.706  1.00  0.00     0.194 HD
BRANCH   9  11
HETATM   11  S2  UNL     1      22.638  61.421  28.315  1.00  0.00     0.326 S 
HETATM   12  O3  UNL     1      23.125  60.554  29.443  1.00  0.00    -0.182 OA
HETATM   13  O4  UNL     1      23.716  62.316  27.851  1.00  0.00    -0.182 OA
BRANCH  11  14
HETATM   14  N4  UNL     1      22.155  60.336  27.037  1.00  0.00    -0.311 N 
ATOM     15  H42 UNL     1      21.309  59.766  27.028  1.00  0.00     0.170 HD
ATOM     16  H41 UNL     1      22.873  60.386  26.314  1.00  0.00     0.170 HD
ENDBRANCH  11  14
ENDBRANCH   9  11
ENDBRANCH   1   9
TORSDOF 5
ENDMDL
MODEL 2
REMARK VINA RESULT: -5.246063041      1.104      1.355
REMARK  5 active torsions:
REMARK  status: ('A' for Active; 'I' for Inactive)
REMARK    1  A    between atoms: N1_2  and  N2_3 
REMARK    2  A    between atoms: N1_2  and  S1_6 
REMARK    3  A    between atoms: S1_6  and  N3_9 
REMARK    4  A    between atoms: N3_9  and  S2_11 
REMARK    5  A    between atoms: S2_11  and  N4_12 
ROOT
HETATM    1  S1  UNL     1      19.918  62.035  27.849  1.00  0.00     0.329 S 
HETATM    2  O1  UNL     1      20.332  62.019  26.411  1.00  0.00    -0.186 OA
HETATM    3  O2  UNL     1      19.274  60.710  28.148  1.00  0.00    -0.186 OA
ENDROOT
BRANCH   1   4
HETATM    4  N1  UNL     1      18.848  63.345  28.089  1.00  0.00    -0.113 NA
HETATM    5  C1  UNL     1      17.450  62.939  28.005  1.00  0.00     0.157 C 
BRANCH   4   6
HETATM    6  N2  UNL     1      18.984  63.932  29.371  1.00  0.00    -0.349 NA
ATOM      7  H22 UNL     1      19.927  63.839  29.746  1.00  0.00     0.172 HD
ATOM      8  H21 UNL     1      18.290  63.464  29.952  1.00  0.00     0.172 HD
ENDBRANCH   4   6
ENDBRANCH   1   4
BRANCH   1   9
HETATM    9  N3  UNL     1      21.280  62.238  28.837  1.00  0.00    -0.180 N 
ATOM     10  H3  UNL     1      21.273  62.833  29.666  1.00  0.00     0.194 HD
BRANCH   9  11
HETATM   11  S2  UNL     1      22.664  61.371  28.339  1.00  0.00     0.326 S 
HETATM   12  O3  UNL     1      23.727  62.360  27.950  1.00  0.00    -0.182 OA
HETATM   13  O4  UNL     1      22.412  60.424  27.236  1.00  0.00    -0.182 OA
BRANCH  11  14
HETATM   14  N4  UNL     1      23.270  60.526  29.740  1.00  0.00    -0.311 N 
ATOM     15  H42 UNL     1      24.203  60.125  29.835  1.00  0.00     0.170 HD
ATOM     16  H41 UNL     1      22.520  60.515  30.432  1.00  0.00     0.170 HD
ENDBRANCH  11  14
ENDBRANCH   9  11
ENDBRANCH   1   9
TORSDOF 5
ENDMDL
MODEL 3
REMARK VINA RESULT: -5.022732292      2.846      4.522
REMARK  5 active torsions:
REMARK  status: ('A' for Active; 'I' for Inactive)
REMARK    1  A    between atoms: N1_2  and  N2_3 
REMARK    2  A    between atoms: N1_2  and  S1_6 
REMARK    3  A    between atoms: S1_6  and  N3_9 
REMARK    4  A    between atoms: N3_9  and  S2_11 
REMARK    5  A    between atoms: S2_11  and  N4_12 
ROOT
HETATM    1  S1  UNL     1      22.782  61.361  28.373  1.00  0.00     0.329 S 
HETATM    2  O1  UNL     1      22.410  60.427  27.264  1.00  0.00    -0.186 OA
HETATM    3  O2  UNL     1      23.770  62.349  27.819  1.00  0.00    -0.186 OA
ENDROOT
BRANCH   1   4
HETATM    4  N1  UNL     1      23.434  60.443  29.658  1.00  0.00    -0.113 NA
HETATM    5  C1  UNL     1      24.850  60.156  29.468  1.00  0.00     0.157 C 
BRANCH   4   6
HETATM    6  N2  UNL     1      23.358  61.117  30.902  1.00  0.00    -0.349 NA
ATOM      7  H22 UNL     1      23.352  62.131  30.799  1.00  0.00     0.172 HD
ATOM      8  H21 UNL     1      24.165  60.787  31.431  1.00  0.00     0.172 HD
ENDBRANCH   4   6
ENDBRANCH   1   4
BRANCH   1   9
HETATM    9  N3  UNL     1      21.404  62.184  28.917  1.00  0.00    -0.180 N 
ATOM     10  H3  UNL     1      21.378  62.683  29.807  1.00  0.00     0.194 HD
BRANCH   9  11
HETATM   11  S2  UNL     1      20.063  62.115  27.863  1.00  0.00     0.326 S 
HETATM   12  O3  UNL     1      19.270  60.881  28.188  1.00  0.00    -0.182 OA
HETATM   13  O4  UNL     1      20.425  62.135  26.432  1.00  0.00    -0.182 OA
BRANCH  11  14
HETATM   14  N4  UNL     1      19.037  63.473  28.250  1.00  0.00    -0.311 N 
ATOM     15  H42 UNL     1      18.484  63.577  29.100  1.00  0.00     0.170 HD
ATOM     16  H41 UNL     1      19.101  64.128  27.470  1.00  0.00     0.170 HD
ENDBRANCH  11  14
ENDBRANCH   9  11
ENDBRANCH   1   9
TORSDOF 5
ENDMDL
MODEL 4
REMARK VINA RESULT: -4.873650267      2.992      4.756
REMARK  5 active torsions:
REMARK  status: ('A' for Active; 'I' for Inactive)
REMARK    1  A    between atoms: N1_2  and  N2_3 
REMARK    2  A    between atoms: N1_2  and  S1_6 
REMARK    3  A    between atoms: S1_6  and  N3_9 
REMARK    4  A    between atoms: N3_9  and  S2_11 
REMARK    5  A    between atoms: S2_11  and  N4_12 
ROOT
HETATM    1  S1  UNL     1      23.223  61.546  29.293  1.00  0.00     0.329 S 
HETATM    2  O1  UNL     1      24.264  62.467  29.849  1.00  0.00    -0.186 OA
HETATM    3  O2  UNL     1      22.162  61.378  30.344  1.00  0.00    -0.186 OA
ENDROOT
BRANCH   1   4
HETATM    4  N1  UNL     1      23.973  60.065  28.886  1.00  0.00    -0.113 NA
HETATM    5  C1  UNL     1      24.575  60.098  27.558  1.00  0.00     0.157 C 
BRANCH   4   6
HETATM    6  N2  UNL     1      25.034  59.733  29.763  1.00  0.00    -0.349 NA
ATOM      7  H22 UNL     1      25.229  60.470  30.440  1.00  0.00     0.172 HD
ATOM      8  H21 UNL     1      25.832  59.547  29.155  1.00  0.00     0.172 HD
ENDBRANCH   4   6
ENDBRANCH   1   4
BRANCH   1   9
HETATM    9  N3  UNL     1      22.538  62.226  27.900  1.00  0.00    -0.180 N 
ATOM     10  H3  UNL     1      23.061  62.840  27.276  1.00  0.00     0.194 HD
BRANCH   9  11
HETATM   11  S2  UNL     1      20.907  61.805  27.623  1.00  0.00     0.326 S 
HETATM   12  O3  UNL     1      20.802  60.306  27.605  1.00  0.00    -0.182 OA
HETATM   13  O4  UNL     1      20.344  62.377  26.384  1.00  0.00    -0.182 OA
BRANCH  11  14
HETATM   14  N4  UNL     1      19.996  62.343  29.011  1.00  0.00    -0.311 N 
ATOM     15  H42 UNL     1      19.002  62.570  29.018  1.00  0.00     0.170 HD
ATOM     16  H41 UNL     1      20.645  62.384  29.798  1.00  0.00     0.170 HD
ENDBRANCH  11  14
ENDBRANCH   9  11
ENDBRANCH   1   9
TORSDOF 5
ENDMDL
MODEL 5
REMARK VINA RESULT: -4.854630625      1.231      1.346
REMARK  5 active torsions:
REMARK  status: ('A' for Active; 'I' for Inactive)
REMARK    1  A    between atoms: N1_2  and  N2_3 
REMARK    2  A    between atoms: N1_2  and  S1_6 
REMARK    3  A    between atoms: S1_6  and  N3_9 
REMARK    4  A    between atoms: N3_9  and  S2_11 
REMARK    5  A    between atoms: S2_11  and  N4_12 
ROOT
HETATM    1  S1  UNL     1      20.424  61.726  28.014  1.00  0.00     0.329 S 
HETATM    2  O1  UNL     1      20.780  62.485  26.775  1.00  0.00    -0.186 OA
HETATM    3  O2  UNL     1      20.467  60.262  27.675  1.00  0.00    -0.186 OA
ENDROOT
BRANCH   1   4
HETATM    4  N1  UNL     1      18.874  62.227  28.529  1.00  0.00    -0.113 NA
HETATM    5  C1  UNL     1      18.917  63.484  29.266  1.00  0.00     0.157 C 
BRANCH   4   6
HETATM    6  N2  UNL     1      17.990  62.463  27.448  1.00  0.00    -0.349 NA
ATOM      7  H22 UNL     1      17.906  63.453  27.220  1.00  0.00     0.172 HD
ATOM      8  H21 UNL     1      17.101  62.057  27.739  1.00  0.00     0.172 HD
ENDBRANCH   4   6
ENDBRANCH   1   4
BRANCH   1   9
HETATM    9  N3  UNL     1      21.552  62.057  29.234  1.00  0.00    -0.180 N 
ATOM     10  H3  UNL     1      21.317  62.596  30.068  1.00  0.00     0.194 HD
BRANCH   9  11
HETATM   11  S2  UNL     1      23.112  61.419  28.963  1.00  0.00     0.326 S 
HETATM   12  O3  UNL     1      23.272  60.185  29.805  1.00  0.00    -0.182 OA
HETATM   13  O4  UNL     1      24.204  62.374  29.235  1.00  0.00    -0.182 OA
BRANCH  11  14
HETATM   14  N4  UNL     1      23.167  60.890  27.301  1.00  0.00    -0.311 N 
ATOM     15  H42 UNL     1      22.499  61.143  26.574  1.00  0.00     0.170 HD
ATOM     16  H41 UNL     1      23.985  60.288  27.205  1.00  0.00     0.170 HD
ENDBRANCH  11  14
ENDBRANCH   9  11
ENDBRANCH   1   9
TORSDOF 5
ENDMDL
