MODEL 1
REMARK VINA RESULT: -8.893627902      0.000      0.000
REMARK  14 active torsions:
REMARK  status: ('A' for Active; 'I' for Inactive)
REMARK    1  A    between atoms: C4_4  and  O1_5 
REMARK    2  A    between atoms: N1_7  and  C5_8 
REMARK    3  A    between atoms: C5_8  and  C6_9 
REMARK    4  A    between atoms: C6_9  and  N2_10 
REMARK    5  A    between atoms: C7_12  and  C8_13 
REMARK    6  A    between atoms: C7_12  and  C9_15 
REMARK       I    between atoms: C9_15  and  N3_17 
REMARK    7  A    between atoms: N3_17  and  N4_19 
REMARK       I    between atoms: N4_19  and  C10_21 
REMARK       I    between atoms: C10_21  and  N5_23 
REMARK    8  A    between atoms: C11_26  and  C12_27 
REMARK    9  A    between atoms: C16_38  and  C17_39 
REMARK   10  A    between atoms: N11_41  and  C19_42 
REMARK   11  A    between atoms: C19_42  and  C20_43 
REMARK   12  A    between atoms: C20_43  and  O5_44 
REMARK   13  A    between atoms: C21_50  and  O6_51 
REMARK   14  A    between atoms: C22_53  and  O7_54 
ROOT
HETATM    1  N4  UNL     1       3.008   7.838   4.459  1.00  0.00    -0.247 N 
ATOM      2  H4  UNL     1       3.491   8.421   5.142  1.00  0.00     0.192 HD
HETATM    3  C10 UNL     1       2.107   6.892   4.954  1.00  0.00     0.362 C 
HETATM    4  O4  UNL     1       1.512   6.153   4.131  1.00  0.00    -0.243 OA
HETATM    5  N5  UNL     1       1.822   6.715   6.329  1.00  0.00    -0.180 N 
HETATM    6  N6  UNL     1       0.959   5.828   6.860  1.00  0.00    -0.285 N 
ATOM      7  H6  UNL     1       0.414   5.165   6.309  1.00  0.00     0.188 HD
HETATM    8  C11 UNL     1       0.898   5.916   8.176  1.00  0.00     0.094 A 
HETATM    9  C16 UNL     1       1.757   6.906   8.567  1.00  0.00     0.077 A 
HETATM   10  C21 UNL     1       2.318   7.384   7.395  1.00  0.00     0.181 A 
ENDROOT
BRANCH  10  11
HETATM   11  O6  UNL     1       3.252   8.415   7.421  1.00  0.00    -0.344 OA
ATOM     12  H6  UNL     1       3.767   8.771   6.706  1.00  0.00     0.219 HD
ENDBRANCH  10  11
BRANCH   1  13
HETATM   13  N3  UNL     1       3.305   8.058   3.120  1.00  0.00    -0.261 N 
HETATM   14  C9  UNL     1       4.059   7.279   2.265  1.00  0.00     0.289 C 
HETATM   15  O3  UNL     1       4.623   6.196   2.527  1.00  0.00    -0.264 OA
ATOM     16  H3  UNL     1       2.914   8.909   2.715  1.00  0.00     0.190 HD
BRANCH  14  17
HETATM   17  C7  UNL     1       4.243   7.792   0.842  1.00  0.00     0.140 C 
HETATM   18  N2  UNL     1       4.339   6.876  -0.151  1.00  0.00    -0.361 N 
ATOM     19  H2  UNL     1       5.269   6.828  -0.566  1.00  0.00     0.165 HD
BRANCH  18  20
HETATM   20  C6  UNL     1       3.450   6.002  -0.712  1.00  0.00     0.081 C 
BRANCH  20  21
HETATM   21  C5  UNL     1       3.479   4.547  -0.368  1.00  0.00     0.177 C 
BRANCH  21  22
HETATM   22  N1  UNL     1       2.168   4.147   0.168  1.00  0.00    -0.303 N 
HETATM   23  C4  UNL     1       1.053   4.006  -0.517  1.00  0.00     0.144 A 
HETATM   24  C3  UNL     1       0.034   3.626   0.376  1.00  0.00     0.067 A 
HETATM   25  C2  UNL     1       0.620   3.553   1.617  1.00  0.00    -0.007 A 
HETATM   26  C1  UNL     1      -0.088   3.186   2.878  1.00  0.00     0.052 C 
HETATM   27  C22 UNL     1       1.957   3.882   1.474  1.00  0.00     0.150 A 
BRANCH  23  28
HETATM   28  O1  UNL     1       0.814   4.176  -1.866  1.00  0.00    -0.346 OA
ATOM     29  H1  UNL     1       1.522   4.258  -2.495  1.00  0.00     0.219 HD
ENDBRANCH  23  28
BRANCH  27  30
HETATM   30  O7  UNL     1       2.865   3.913   2.511  1.00  0.00    -0.345 OA
ATOM     31  H7  UNL     1       2.674   4.248   3.380  1.00  0.00     0.219 HD
ENDBRANCH  27  30
ENDBRANCH  21  22
ENDBRANCH  20  21
ENDBRANCH  18  20
BRANCH  17  32
HETATM   32  C8  UNL     1       3.370   8.959   0.628  1.00  0.00     0.293 C 
HETATM   33  O2  UNL     1       3.492  10.068   1.073  1.00  0.00    -0.300 OA
ENDBRANCH  17  32
ENDBRANCH  14  17
ENDBRANCH   1  13
BRANCH   8  34
HETATM   34  C12 UNL     1       0.049   5.087   9.052  1.00  0.00     0.096 A 
HETATM   35  C13 UNL     1      -1.306   5.222   9.260  1.00  0.00     0.167 A 
HETATM   36  N7  UNL     1      -1.722   4.261  10.146  1.00  0.00    -0.094 N 
HETATM   37  N8  UNL     1      -2.792   3.798  10.776  1.00  0.00    -0.275 N 
HETATM   38  C15 UNL     1      -0.632   3.552  10.470  1.00  0.00     0.704 A 
HETATM   39  C14 UNL     1      -2.406   2.764  11.530  1.00  0.00     0.215 A 
ATOM     40  H8  UNL     1      -3.741   4.165  10.698  1.00  0.00     0.189 HD
HETATM   41  N9  UNL     1      -1.084   2.620  11.339  1.00  0.00    -0.185 N 
ATOM     42  H9  UNL     1      -0.504   1.910  11.785  1.00  0.00     0.185 HD
HETATM   43  N10 UNL     1       0.430   4.054   9.807  1.00  0.00    -0.186 N 
ATOM     44  H10 UNL     1       1.383   3.697   9.873  1.00  0.00     0.184 HD
ENDBRANCH   8  34
BRANCH   9  45
HETATM   45  C17 UNL     1       2.019   7.345   9.922  1.00  0.00     0.083 A 
HETATM   46  C18 UNL     1       2.397   6.591  11.022  1.00  0.00     0.143 A 
HETATM   47  N11 UNL     1       2.529   7.401  12.059  1.00  0.00    -0.285 N 
HETATM   48  N12 UNL     1       2.253   8.616  11.658  1.00  0.00    -0.240 N 
HETATM   49  N13 UNL     1       1.942   8.619  10.384  1.00  0.00    -0.284 N 
ATOM     50  H12 UNL     1       2.276   9.444  12.253  1.00  0.00     0.208 HD
ATOM     51  H13 UNL     1       1.685   9.438   9.833  1.00  0.00     0.188 HD
BRANCH  47  52
HETATM   52  C19 UNL     1       2.903   7.115  13.439  1.00  0.00     0.175 C 
BRANCH  52  53
HETATM   53  C20 UNL     1       1.649   6.875  14.247  1.00  0.00     0.185 C 
BRANCH  53  54
HETATM   54  O5  UNL     1       1.639   7.712  15.371  1.00  0.00    -0.399 OA
ATOM     55  H5  UNL     1       2.153   8.491  15.197  1.00  0.00     0.209 HD
ENDBRANCH  53  54
ENDBRANCH  52  53
ENDBRANCH  47  52
ENDBRANCH   9  45
TORSDOF 14
ENDMDL
MODEL 2
REMARK VINA RESULT: -8.808699026      1.139      1.353
REMARK  14 active torsions:
REMARK  status: ('A' for Active; 'I' for Inactive)
REMARK    1  A    between atoms: C4_4  and  O1_5 
REMARK    2  A    between atoms: N1_7  and  C5_8 
REMARK    3  A    between atoms: C5_8  and  C6_9 
REMARK    4  A    between atoms: C6_9  and  N2_10 
REMARK    5  A    between atoms: C7_12  and  C8_13 
REMARK    6  A    between atoms: C7_12  and  C9_15 
REMARK       I    between atoms: C9_15  and  N3_17 
REMARK    7  A    between atoms: N3_17  and  N4_19 
REMARK       I    between atoms: N4_19  and  C10_21 
REMARK       I    between atoms: C10_21  and  N5_23 
REMARK    8  A    between atoms: C11_26  and  C12_27 
REMARK    9  A    between atoms: C16_38  and  C17_39 
REMARK   10  A    between atoms: N11_41  and  C19_42 
REMARK   11  A    between atoms: C19_42  and  C20_43 
REMARK   12  A    between atoms: C20_43  and  O5_44 
REMARK   13  A    between atoms: C21_50  and  O6_51 
REMARK   14  A    between atoms: C22_53  and  O7_54 
ROOT
HETATM    1  N4  UNL     1       2.870   7.322   4.516  1.00  0.00    -0.247 N 
ATOM      2  H4  UNL     1       3.372   7.872   5.214  1.00  0.00     0.192 HD
HETATM    3  C10 UNL     1       1.824   6.518   4.975  1.00  0.00     0.362 C 
HETATM    4  O4  UNL     1       1.200   5.822   4.136  1.00  0.00    -0.243 OA
HETATM    5  N5  UNL     1       1.421   6.440   6.329  1.00  0.00    -0.180 N 
HETATM    6  N6  UNL     1       0.417   5.691   6.824  1.00  0.00    -0.285 N 
ATOM      7  H6  UNL     1      -0.167   5.076   6.257  1.00  0.00     0.188 HD
HETATM    8  C11 UNL     1       0.273   5.846   8.127  1.00  0.00     0.094 A 
HETATM    9  C16 UNL     1       1.220   6.739   8.547  1.00  0.00     0.077 A 
HETATM   10  C21 UNL     1       1.919   7.091   7.406  1.00  0.00     0.181 A 
ENDROOT
BRANCH  10  11
HETATM   11  O6  UNL     1       2.972   7.999   7.466  1.00  0.00    -0.344 OA
ATOM     12  H6  UNL     1       3.465   8.291   8.225  1.00  0.00     0.219 HD
ENDBRANCH  10  11
BRANCH   1  13
HETATM   13  N3  UNL     1       3.288   7.444   3.197  1.00  0.00    -0.261 N 
HETATM   14  C9  UNL     1       3.905   6.501   2.398  1.00  0.00     0.289 C 
HETATM   15  O3  UNL     1       4.204   5.328   2.705  1.00  0.00    -0.264 OA
ATOM     16  H3  UNL     1       3.116   8.350   2.761  1.00  0.00     0.190 HD
BRANCH  14  17
HETATM   17  C7  UNL     1       4.281   6.930   0.985  1.00  0.00     0.140 C 
HETATM   18  N2  UNL     1       3.655   6.317  -0.047  1.00  0.00    -0.361 N 
ATOM     19  H2  UNL     1       4.272   5.711  -0.589  1.00  0.00     0.165 HD
BRANCH  18  20
HETATM   20  C6  UNL     1       2.371   6.339  -0.514  1.00  0.00     0.081 C 
BRANCH  20  21
HETATM   21  C5  UNL     1       1.677   5.078  -0.919  1.00  0.00     0.177 C 
BRANCH  21  22
HETATM   22  N1  UNL     1       1.756   4.104   0.183  1.00  0.00    -0.303 N 
HETATM   23  C4  UNL     1       2.780   3.326   0.468  1.00  0.00     0.144 A 
HETATM   24  C3  UNL     1       2.437   2.541   1.583  1.00  0.00     0.067 A 
HETATM   25  C2  UNL     1       1.158   2.907   1.931  1.00  0.00    -0.007 A 
HETATM   26  C1  UNL     1       0.381   2.328   3.064  1.00  0.00     0.052 C 
HETATM   27  C22 UNL     1       0.743   3.886   1.046  1.00  0.00     0.150 A 
BRANCH  23  28
HETATM   28  O1  UNL     1       4.010   3.219  -0.150  1.00  0.00    -0.346 OA
ATOM     29  H1  UNL     1       4.102   3.253  -1.095  1.00  0.00     0.219 HD
ENDBRANCH  23  28
BRANCH  27  30
HETATM   30  O7  UNL     1      -0.493   4.498   1.087  1.00  0.00    -0.345 OA
ATOM     31  H7  UNL     1      -0.643   5.416   0.894  1.00  0.00     0.219 HD
ENDBRANCH  27  30
ENDBRANCH  21  22
ENDBRANCH  20  21
ENDBRANCH  18  20
BRANCH  17  32
HETATM   32  C8  UNL     1       4.419   8.396   0.942  1.00  0.00     0.293 C 
HETATM   33  O2  UNL     1       3.548   9.224   0.923  1.00  0.00    -0.300 OA
ENDBRANCH  17  32
ENDBRANCH  14  17
ENDBRANCH   1  13
BRANCH   8  34
HETATM   34  C12 UNL     1      -0.735   5.168   8.965  1.00  0.00     0.096 A 
HETATM   35  C13 UNL     1      -2.104   5.286   8.870  1.00  0.00     0.167 A 
HETATM   36  N7  UNL     1      -2.689   4.499   9.828  1.00  0.00    -0.094 N 
HETATM   37  N8  UNL     1      -3.864   4.123  10.313  1.00  0.00    -0.275 N 
HETATM   38  C15 UNL     1      -1.686   3.911  10.496  1.00  0.00     0.704 A 
HETATM   39  C14 UNL     1      -3.636   3.272  11.319  1.00  0.00     0.215 A 
ATOM     40  H8  UNL     1      -4.778   4.429   9.979  1.00  0.00     0.189 HD
HETATM   41  N9  UNL     1      -2.303   3.148  11.426  1.00  0.00    -0.185 N 
ATOM     42  H9  UNL     1      -1.824   2.562  12.110  1.00  0.00     0.185 HD
HETATM   43  N10 UNL     1      -0.513   4.318   9.970  1.00  0.00    -0.186 N 
ATOM     44  H10 UNL     1       0.408   4.020  10.293  1.00  0.00     0.184 HD
ENDBRANCH   8  34
BRANCH   9  45
HETATM   45  C17 UNL     1       1.438   7.203   9.902  1.00  0.00     0.083 A 
HETATM   46  C18 UNL     1       2.455   6.870  10.782  1.00  0.00     0.143 A 
HETATM   47  N11 UNL     1       2.264   7.529  11.912  1.00  0.00    -0.285 N 
HETATM   48  N12 UNL     1       1.182   8.254  11.776  1.00  0.00    -0.240 N 
HETATM   49  N13 UNL     1       0.661   8.082  10.585  1.00  0.00    -0.284 N 
ATOM     50  H12 UNL     1       0.799   8.867  12.495  1.00  0.00     0.208 HD
ATOM     51  H13 UNL     1      -0.183   8.531  10.232  1.00  0.00     0.188 HD
BRANCH  47  52
HETATM   52  C19 UNL     1       3.039   7.533  13.147  1.00  0.00     0.175 C 
BRANCH  52  53
HETATM   53  C20 UNL     1       2.137   7.135  14.292  1.00  0.00     0.185 C 
BRANCH  53  54
HETATM   54  O5  UNL     1       1.438   5.966  13.964  1.00  0.00    -0.399 OA
ATOM     55  H5  UNL     1       0.726   5.833  14.579  1.00  0.00     0.209 HD
ENDBRANCH  53  54
ENDBRANCH  52  53
ENDBRANCH  47  52
ENDBRANCH   9  45
TORSDOF 14
ENDMDL
MODEL 3
REMARK VINA RESULT: -8.799326792      0.894      1.124
REMARK  14 active torsions:
REMARK  status: ('A' for Active; 'I' for Inactive)
REMARK    1  A    between atoms: C4_4  and  O1_5 
REMARK    2  A    between atoms: N1_7  and  C5_8 
REMARK    3  A    between atoms: C5_8  and  C6_9 
REMARK    4  A    between atoms: C6_9  and  N2_10 
REMARK    5  A    between atoms: C7_12  and  C8_13 
REMARK    6  A    between atoms: C7_12  and  C9_15 
REMARK       I    between atoms: C9_15  and  N3_17 
REMARK    7  A    between atoms: N3_17  and  N4_19 
REMARK       I    between atoms: N4_19  and  C10_21 
REMARK       I    between atoms: C10_21  and  N5_23 
REMARK    8  A    between atoms: C11_26  and  C12_27 
REMARK    9  A    between atoms: C16_38  and  C17_39 
REMARK   10  A    between atoms: N11_41  and  C19_42 
REMARK   11  A    between atoms: C19_42  and  C20_43 
REMARK   12  A    between atoms: C20_43  and  O5_44 
REMARK   13  A    between atoms: C21_50  and  O6_51 
REMARK   14  A    between atoms: C22_53  and  O7_54 
ROOT
HETATM    1  N4  UNL     1       3.033   7.638   3.931  1.00  0.00    -0.247 N 
ATOM      2  H4  UNL     1       3.424   8.338   4.562  1.00  0.00     0.192 HD
HETATM    3  C10 UNL     1       2.178   6.686   4.493  1.00  0.00     0.362 C 
HETATM    4  O4  UNL     1       1.695   5.805   3.739  1.00  0.00    -0.243 OA
HETATM    5  N5  UNL     1       1.819   6.654   5.862  1.00  0.00    -0.180 N 
HETATM    6  N6  UNL     1       0.994   5.769   6.453  1.00  0.00    -0.285 N 
ATOM      7  H6  UNL     1       0.539   5.000   5.961  1.00  0.00     0.188 HD
HETATM    8  C11 UNL     1       0.842   6.011   7.742  1.00  0.00     0.094 A 
HETATM    9  C16 UNL     1       1.596   7.109   8.051  1.00  0.00     0.077 A 
HETATM   10  C21 UNL     1       2.192   7.487   6.860  1.00  0.00     0.181 A 
ENDROOT
BRANCH  10  11
HETATM   11  O6  UNL     1       3.041   8.589   6.806  1.00  0.00    -0.344 OA
ATOM     12  H6  UNL     1       3.950   8.655   7.075  1.00  0.00     0.219 HD
ENDBRANCH  10  11
BRANCH   1  13
HETATM   13  N3  UNL     1       3.397   7.718   2.594  1.00  0.00    -0.261 N 
HETATM   14  C9  UNL     1       4.535   8.274   2.042  1.00  0.00     0.289 C 
HETATM   15  O3  UNL     1       5.485   8.813   2.650  1.00  0.00    -0.264 OA
ATOM     16  H3  UNL     1       2.737   7.313   1.931  1.00  0.00     0.190 HD
BRANCH  14  17
HETATM   17  C7  UNL     1       4.654   8.245   0.524  1.00  0.00     0.140 C 
HETATM   18  N2  UNL     1       4.506   7.051  -0.097  1.00  0.00    -0.361 N 
ATOM     19  H2  UNL     1       5.372   6.701  -0.509  1.00  0.00     0.165 HD
BRANCH  18  20
HETATM   20  C6  UNL     1       3.441   6.217  -0.288  1.00  0.00     0.081 C 
BRANCH  20  21
HETATM   21  C5  UNL     1       3.625   4.734  -0.344  1.00  0.00     0.177 C 
BRANCH  21  22
HETATM   22  N1  UNL     1       2.422   4.074   0.190  1.00  0.00    -0.303 N 
HETATM   23  C4  UNL     1       1.283   3.891  -0.445  1.00  0.00     0.144 A 
HETATM   24  C3  UNL     1       0.396   3.234   0.426  1.00  0.00     0.067 A 
HETATM   25  C2  UNL     1       1.082   3.045   1.602  1.00  0.00    -0.007 A 
HETATM   26  C1  UNL     1       0.529   2.385   2.820  1.00  0.00     0.052 C 
HETATM   27  C22 UNL     1       2.350   3.575   1.441  1.00  0.00     0.150 A 
BRANCH  23  28
HETATM   28  O1  UNL     1       0.918   4.241  -1.730  1.00  0.00    -0.346 OA
ATOM     29  H1  UNL     1       0.983   5.135  -2.045  1.00  0.00     0.219 HD
ENDBRANCH  23  28
BRANCH  27  30
HETATM   30  O7  UNL     1       3.327   3.566   2.416  1.00  0.00    -0.345 OA
ATOM     31  H7  UNL     1       4.238   3.348   2.259  1.00  0.00     0.219 HD
ENDBRANCH  27  30
ENDBRANCH  21  22
ENDBRANCH  20  21
ENDBRANCH  18  20
BRANCH  17  32
HETATM   32  C8  UNL     1       3.957   9.414  -0.042  1.00  0.00     0.293 C 
HETATM   33  O2  UNL     1       2.983   9.974   0.383  1.00  0.00    -0.300 OA
ENDBRANCH  17  32
ENDBRANCH  14  17
ENDBRANCH   1  13
BRANCH   8  34
HETATM   34  C12 UNL     1       0.004   5.225   8.668  1.00  0.00     0.096 A 
HETATM   35  C13 UNL     1       0.428   4.248   9.541  1.00  0.00     0.167 A 
HETATM   36  N7  UNL     1      -0.655   3.755  10.223  1.00  0.00    -0.094 N 
HETATM   37  N8  UNL     1      -1.009   2.875  11.149  1.00  0.00    -0.275 N 
HETATM   38  C15 UNL     1      -1.723   4.426   9.768  1.00  0.00     0.704 A 
HETATM   39  C14 UNL     1      -2.333   2.964  11.310  1.00  0.00     0.215 A 
ATOM     40  H8  UNL     1      -0.383   2.243  11.649  1.00  0.00     0.189 HD
HETATM   41  N9  UNL     1      -2.763   3.913  10.462  1.00  0.00    -0.185 N 
ATOM     42  H9  UNL     1      -3.734   4.206  10.357  1.00  0.00     0.185 HD
HETATM   43  N10 UNL     1      -1.318   5.310   8.833  1.00  0.00    -0.186 N 
ATOM     44  H10 UNL     1      -1.932   5.948   8.326  1.00  0.00     0.184 HD
ENDBRANCH   8  34
BRANCH   9  45
HETATM   45  C17 UNL     1       1.735   7.730   9.352  1.00  0.00     0.083 A 
HETATM   46  C18 UNL     1       2.653   7.453  10.353  1.00  0.00     0.143 A 
HETATM   47  N11 UNL     1       2.418   8.263  11.372  1.00  0.00    -0.285 N 
HETATM   48  N12 UNL     1       1.404   9.026  11.052  1.00  0.00    -0.240 N 
HETATM   49  N13 UNL     1       0.970   8.734   9.850  1.00  0.00    -0.284 N 
ATOM     50  H12 UNL     1       1.008   9.748  11.654  1.00  0.00     0.208 HD
ATOM     51  H13 UNL     1       0.190   9.183   9.371  1.00  0.00     0.188 HD
BRANCH  47  52
HETATM   52  C19 UNL     1       3.089   8.378  12.661  1.00  0.00     0.175 C 
BRANCH  52  53
HETATM   53  C20 UNL     1       2.593   7.280  13.572  1.00  0.00     0.185 C 
BRANCH  53  54
HETATM   54  O5  UNL     1       1.192   7.254  13.568  1.00  0.00    -0.399 OA
ATOM     55  H5  UNL     1       0.872   6.980  14.419  1.00  0.00     0.209 HD
ENDBRANCH  53  54
ENDBRANCH  52  53
ENDBRANCH  47  52
ENDBRANCH   9  45
TORSDOF 14
ENDMDL
MODEL 4
REMARK VINA RESULT: -8.700874642      2.478      3.068
REMARK  14 active torsions:
REMARK  status: ('A' for Active; 'I' for Inactive)
REMARK    1  A    between atoms: C4_4  and  O1_5 
REMARK    2  A    between atoms: N1_7  and  C5_8 
REMARK    3  A    between atoms: C5_8  and  C6_9 
REMARK    4  A    between atoms: C6_9  and  N2_10 
REMARK    5  A    between atoms: C7_12  and  C8_13 
REMARK    6  A    between atoms: C7_12  and  C9_15 
REMARK       I    between atoms: C9_15  and  N3_17 
REMARK    7  A    between atoms: N3_17  and  N4_19 
REMARK       I    between atoms: N4_19  and  C10_21 
REMARK       I    between atoms: C10_21  and  N5_23 
REMARK    8  A    between atoms: C11_26  and  C12_27 
REMARK    9  A    between atoms: C16_38  and  C17_39 
REMARK   10  A    between atoms: N11_41  and  C19_42 
REMARK   11  A    between atoms: C19_42  and  C20_43 
REMARK   12  A    between atoms: C20_43  and  O5_44 
REMARK   13  A    between atoms: C21_50  and  O6_51 
REMARK   14  A    between atoms: C22_53  and  O7_54 
ROOT
HETATM    1  N4  UNL     1       3.447   5.109   3.980  1.00  0.00    -0.247 N 
ATOM      2  H4  UNL     1       3.937   4.546   4.676  1.00  0.00     0.192 HD
HETATM    3  C10 UNL     1       2.305   5.791   4.407  1.00  0.00     0.362 C 
HETATM    4  O4  UNL     1       1.677   6.479   3.564  1.00  0.00    -0.243 OA
HETATM    5  N5  UNL     1       1.811   5.756   5.733  1.00  0.00    -0.180 N 
HETATM    6  N6  UNL     1       0.724   6.400   6.199  1.00  0.00    -0.285 N 
ATOM      7  H6  UNL     1       0.121   6.987   5.624  1.00  0.00     0.188 HD
HETATM    8  C11 UNL     1       0.531   6.185   7.488  1.00  0.00     0.094 A 
HETATM    9  C16 UNL     1       1.527   5.357   7.925  1.00  0.00     0.077 A 
HETATM   10  C21 UNL     1       2.308   5.107   6.811  1.00  0.00     0.181 A 
ENDROOT
BRANCH  10  11
HETATM   11  O6  UNL     1       3.430   4.288   6.895  1.00  0.00    -0.344 OA
ATOM     12  H6  UNL     1       4.060   4.211   7.603  1.00  0.00     0.219 HD
ENDBRANCH  10  11
BRANCH   1  13
HETATM   13  N3  UNL     1       3.977   5.127   2.697  1.00  0.00    -0.261 N 
HETATM   14  C9  UNL     1       4.550   6.184   2.016  1.00  0.00     0.289 C 
HETATM   15  O3  UNL     1       4.720   7.349   2.433  1.00  0.00    -0.264 OA
ATOM     16  H3  UNL     1       3.937   4.243   2.189  1.00  0.00     0.190 HD
BRANCH  14  17
HETATM   17  C7  UNL     1       5.022   5.916   0.592  1.00  0.00     0.140 C 
HETATM   18  N2  UNL     1       4.175   5.267  -0.240  1.00  0.00    -0.361 N 
ATOM     19  H2  UNL     1       4.486   4.325  -0.478  1.00  0.00     0.165 HD
BRANCH  18  20
HETATM   20  C6  UNL     1       2.990   5.609  -0.829  1.00  0.00     0.081 C 
BRANCH  20  21
HETATM   21  C5  UNL     1       1.904   4.598  -1.018  1.00  0.00     0.177 C 
BRANCH  21  22
HETATM   22  N1  UNL     1       1.680   3.882   0.249  1.00  0.00    -0.303 N 
HETATM   23  C4  UNL     1       2.443   2.941   0.762  1.00  0.00     0.144 A 
HETATM   24  C3  UNL     1       1.864   2.516   1.970  1.00  0.00     0.067 A 
HETATM   25  C2  UNL     1       0.722   3.263   2.133  1.00  0.00    -0.007 A 
HETATM   26  C1  UNL     1      -0.220   3.149   3.283  1.00  0.00     0.052 C 
HETATM   27  C22 UNL     1       0.618   4.115   1.047  1.00  0.00     0.150 A 
BRANCH  23  28
HETATM   28  O1  UNL     1       3.618   2.394   0.283  1.00  0.00    -0.346 OA
ATOM     29  H1  UNL     1       4.053   1.674   0.724  1.00  0.00     0.219 HD
ENDBRANCH  23  28
BRANCH  27  30
HETATM   30  O7  UNL     1      -0.407   5.022   0.867  1.00  0.00    -0.345 OA
ATOM     31  H7  UNL     1      -1.207   4.837   0.388  1.00  0.00     0.219 HD
ENDBRANCH  27  30
ENDBRANCH  21  22
ENDBRANCH  20  21
ENDBRANCH  18  20
BRANCH  17  32
HETATM   32  C8  UNL     1       5.725   7.105   0.080  1.00  0.00     0.293 C 
HETATM   33  O2  UNL     1       6.704   7.147  -0.614  1.00  0.00    -0.300 OA
ENDBRANCH  17  32
ENDBRANCH  14  17
ENDBRANCH   1  13
BRANCH   8  34
HETATM   34  C12 UNL     1      -0.570   6.747   8.294  1.00  0.00     0.096 A 
HETATM   35  C13 UNL     1      -1.871   6.950   7.891  1.00  0.00     0.167 A 
HETATM   36  N7  UNL     1      -2.583   7.493   8.930  1.00  0.00    -0.094 N 
HETATM   37  N8  UNL     1      -3.788   7.926   9.272  1.00  0.00    -0.275 N 
HETATM   38  C15 UNL     1      -1.723   7.617   9.951  1.00  0.00     0.704 A 
HETATM   39  C14 UNL     1      -3.726   8.343  10.541  1.00  0.00     0.215 A 
ATOM     40  H8  UNL     1      -4.615   7.938   8.674  1.00  0.00     0.189 HD
HETATM   41  N9  UNL     1      -2.460   8.152  10.949  1.00  0.00    -0.185 N 
ATOM     42  H9  UNL     1      -2.106   8.378  11.878  1.00  0.00     0.185 HD
HETATM   43  N10 UNL     1      -0.513   7.165   9.561  1.00  0.00    -0.186 N 
ATOM     44  H10 UNL     1       0.321   7.145  10.147  1.00  0.00     0.184 HD
ENDBRANCH   8  34
BRANCH   9  45
HETATM   45  C17 UNL     1       1.709   4.851   9.271  1.00  0.00     0.083 A 
HETATM   46  C18 UNL     1       2.701   5.160  10.188  1.00  0.00     0.143 A 
HETATM   47  N11 UNL     1       2.480   4.468  11.293  1.00  0.00    -0.285 N 
HETATM   48  N12 UNL     1       1.402   3.749  11.107  1.00  0.00    -0.240 N 
HETATM   49  N13 UNL     1       0.915   3.953   9.906  1.00  0.00    -0.284 N 
ATOM     50  H12 UNL     1       0.997   3.119  11.799  1.00  0.00     0.208 HD
ATOM     51  H13 UNL     1       0.083   3.512   9.517  1.00  0.00     0.188 HD
BRANCH  47  52
HETATM   52  C19 UNL     1       3.223   4.427  12.546  1.00  0.00     0.175 C 
BRANCH  52  53
HETATM   53  C20 UNL     1       3.329   2.991  13.006  1.00  0.00     0.185 C 
BRANCH  53  54
HETATM   54  O5  UNL     1       2.274   2.692  13.878  1.00  0.00    -0.399 OA
ATOM     55  H5  UNL     1       2.474   3.015  14.748  1.00  0.00     0.209 HD
ENDBRANCH  53  54
ENDBRANCH  52  53
ENDBRANCH  47  52
ENDBRANCH   9  45
TORSDOF 14
ENDMDL
MODEL 5
REMARK VINA RESULT: -8.692804118      2.286      4.186
REMARK  14 active torsions:
REMARK  status: ('A' for Active; 'I' for Inactive)
REMARK    1  A    between atoms: C4_4  and  O1_5 
REMARK    2  A    between atoms: N1_7  and  C5_8 
REMARK    3  A    between atoms: C5_8  and  C6_9 
REMARK    4  A    between atoms: C6_9  and  N2_10 
REMARK    5  A    between atoms: C7_12  and  C8_13 
REMARK    6  A    between atoms: C7_12  and  C9_15 
REMARK       I    between atoms: C9_15  and  N3_17 
REMARK    7  A    between atoms: N3_17  and  N4_19 
REMARK       I    between atoms: N4_19  and  C10_21 
REMARK       I    between atoms: C10_21  and  N5_23 
REMARK    8  A    between atoms: C11_26  and  C12_27 
REMARK    9  A    between atoms: C16_38  and  C17_39 
REMARK   10  A    between atoms: N11_41  and  C19_42 
REMARK   11  A    between atoms: C19_42  and  C20_43 
REMARK   12  A    between atoms: C20_43  and  O5_44 
REMARK   13  A    between atoms: C21_50  and  O6_51 
REMARK   14  A    between atoms: C22_53  and  O7_54 
ROOT
HETATM    1  N4  UNL     1       1.656   4.993   3.689  1.00  0.00    -0.247 N 
ATOM      2  H4  UNL     1       1.906   5.934   3.993  1.00  0.00     0.192 HD
HETATM    3  C10 UNL     1       0.945   4.202   4.594  1.00  0.00     0.362 C 
HETATM    4  O4  UNL     1       0.638   3.034   4.247  1.00  0.00    -0.243 OA
HETATM    5  N5  UNL     1       0.546   4.636   5.881  1.00  0.00    -0.180 N 
HETATM    6  N6  UNL     1      -0.148   3.921   6.787  1.00  0.00    -0.285 N 
ATOM      7  H6  UNL     1      -0.455   2.960   6.639  1.00  0.00     0.188 HD
HETATM    8  C11 UNL     1      -0.384   4.607   7.890  1.00  0.00     0.094 A 
HETATM    9  C16 UNL     1       0.170   5.847   7.735  1.00  0.00     0.077 A 
HETATM   10  C21 UNL     1       0.742   5.835   6.475  1.00  0.00     0.181 A 
ENDROOT
BRANCH  10  11
HETATM   11  O6  UNL     1       1.404   6.956   5.981  1.00  0.00    -0.344 OA
ATOM     12  H6  UNL     1       2.131   6.998   5.371  1.00  0.00     0.219 HD
ENDBRANCH  10  11
BRANCH   1  13
HETATM   13  N3  UNL     1       2.053   4.617   2.412  1.00  0.00    -0.261 N 
HETATM   14  C9  UNL     1       1.277   4.457   1.280  1.00  0.00     0.289 C 
HETATM   15  O3  UNL     1       0.045   4.636   1.176  1.00  0.00    -0.264 OA
ATOM     16  H3  UNL     1       3.049   4.433   2.295  1.00  0.00     0.190 HD
BRANCH  14  17
HETATM   17  C7  UNL     1       1.988   4.001   0.012  1.00  0.00     0.140 C 
HETATM   18  N2  UNL     1       2.044   4.869  -1.026  1.00  0.00    -0.361 N 
ATOM     19  H2  UNL     1       1.476   4.581  -1.822  1.00  0.00     0.165 HD
BRANCH  18  20
HETATM   20  C6  UNL     1       2.702   6.049  -1.229  1.00  0.00     0.081 C 
BRANCH  20  21
HETATM   21  C5  UNL     1       3.091   6.921  -0.078  1.00  0.00     0.177 C 
BRANCH  21  22
HETATM   22  N1  UNL     1       4.282   7.706  -0.443  1.00  0.00    -0.303 N 
HETATM   23  C4  UNL     1       4.295   8.936  -0.911  1.00  0.00     0.144 A 
HETATM   24  C3  UNL     1       5.633   9.305  -1.141  1.00  0.00     0.067 A 
HETATM   25  C2  UNL     1       6.396   8.221  -0.778  1.00  0.00    -0.007 A 
HETATM   26  C1  UNL     1       7.884   8.157  -0.857  1.00  0.00     0.052 C 
HETATM   27  C22 UNL     1       5.538   7.226  -0.343  1.00  0.00     0.150 A 
BRANCH  23  28
HETATM   28  O1  UNL     1       3.246   9.797  -1.170  1.00  0.00    -0.346 OA
ATOM     29  H1  UNL     1       2.635   9.645  -1.881  1.00  0.00     0.219 HD
ENDBRANCH  23  28
BRANCH  27  30
HETATM   30  O7  UNL     1       5.948   5.987   0.104  1.00  0.00    -0.345 OA
ATOM     31  H7  UNL     1       6.775   5.580  -0.128  1.00  0.00     0.219 HD
ENDBRANCH  27  30
ENDBRANCH  21  22
ENDBRANCH  20  21
ENDBRANCH  18  20
BRANCH  17  32
HETATM   32  C8  UNL     1       3.217   3.274   0.377  1.00  0.00     0.293 C 
HETATM   33  O2  UNL     1       4.357   3.611   0.208  1.00  0.00    -0.300 OA
ENDBRANCH  17  32
ENDBRANCH  14  17
ENDBRANCH   1  13
BRANCH   8  34
HETATM   34  C12 UNL     1      -1.119   4.108   9.068  1.00  0.00     0.096 A 
HETATM   35  C13 UNL     1      -2.426   4.383   9.406  1.00  0.00     0.167 A 
HETATM   36  N7  UNL     1      -2.733   3.733  10.574  1.00  0.00    -0.094 N 
HETATM   37  N8  UNL     1      -3.712   3.531  11.444  1.00  0.00    -0.275 N 
HETATM   38  C15 UNL     1      -1.625   3.072  10.939  1.00  0.00     0.704 A 
HETATM   39  C14 UNL     1      -3.246   2.723  12.402  1.00  0.00     0.215 A 
ATOM     40  H8  UNL     1      -4.653   3.923  11.393  1.00  0.00     0.189 HD
HETATM   41  N9  UNL     1      -1.970   2.447  12.087  1.00  0.00    -0.185 N 
ATOM     42  H9  UNL     1      -1.349   1.851  12.635  1.00  0.00     0.185 HD
HETATM   43  N10 UNL     1      -0.658   3.301  10.027  1.00  0.00    -0.186 N 
ATOM     44  H10 UNL     1       0.285   2.916  10.065  1.00  0.00     0.184 HD
ENDBRANCH   8  34
BRANCH   9  45
HETATM   45  C17 UNL     1       0.160   6.931   8.697  1.00  0.00     0.083 A 
HETATM   46  C18 UNL     1       1.232   7.556   9.313  1.00  0.00     0.143 A 
HETATM   47  N11 UNL     1       0.763   8.495  10.118  1.00  0.00    -0.285 N 
HETATM   48  N12 UNL     1      -0.543   8.483  10.030  1.00  0.00    -0.240 N 
HETATM   49  N13 UNL     1      -0.938   7.558   9.189  1.00  0.00    -0.284 N 
ATOM     50  H12 UNL     1      -1.165   9.107  10.543  1.00  0.00     0.208 HD
ATOM     51  H13 UNL     1      -1.906   7.345   8.946  1.00  0.00     0.188 HD
BRANCH  47  52
HETATM   52  C19 UNL     1       1.465   9.429  10.989  1.00  0.00     0.175 C 
BRANCH  52  53
HETATM   53  C20 UNL     1       1.612  10.751  10.273  1.00  0.00     0.185 C 
BRANCH  53  54
HETATM   54  O5  UNL     1       0.361  11.368  10.149  1.00  0.00    -0.399 OA
ATOM     55  H5  UNL     1       0.234  11.663   9.255  1.00  0.00     0.209 HD
ENDBRANCH  53  54
ENDBRANCH  52  53
ENDBRANCH  47  52
ENDBRANCH   9  45
TORSDOF 14
ENDMDL
