MODEL 1
REMARK VINA RESULT: -6.447247014      0.000      0.000
REMARK  8 active torsions:
REMARK  status: ('A' for Active; 'I' for Inactive)
REMARK    1  A    between atoms: C2_2  and  C3_3 
REMARK       I    between atoms: C3_3  and  N1_5 
REMARK    2  A    between atoms: N1_5  and  C4_7 
REMARK    3  A    between atoms: C4_7  and  C5_8 
REMARK    4  A    between atoms: N2_11  and  C8_12 
REMARK    5  A    between atoms: C9_15  and  N4_16 
REMARK    6  A    between atoms: N4_16  and  C10_18 
REMARK    7  A    between atoms: C10_18  and  C11_19 
REMARK    8  A    between atoms: C15_23  and  C16_24 
ROOT
HETATM    1  C8  UNL     1      26.580  -0.138  51.919  1.00  0.00     0.682 A 
HETATM    2  N3  UNL     1      27.438   0.054  50.908  1.00  0.00    -0.177 N 
ATOM      3  H3  UNL     1      27.460   0.975  50.469  1.00  0.00     0.185 HD
HETATM    4  C9  UNL     1      28.283  -0.901  50.427  1.00  0.00     0.118 A 
HETATM    5  C14 UNL     1      28.209  -2.123  51.061  1.00  0.00     0.076 A 
HETATM    6  C15 UNL     1      27.335  -2.366  52.118  1.00  0.00     0.053 A 
HETATM    7  N5  UNL     1      26.546  -1.355  52.508  1.00  0.00    -0.193 N 
ATOM      8  H5  UNL     1      25.896  -1.509  53.278  1.00  0.00     0.184 HD
ENDROOT
BRANCH   1   9
HETATM    9  N2  UNL     1      25.713   0.900  52.340  1.00  0.00    -0.218 N 
HETATM   10  C7  UNL     1      25.390   0.928  53.763  1.00  0.00     0.141 C 
HETATM   11  C6  UNL     1      25.102   2.314  54.228  1.00  0.00     0.027 C 
HETATM   12  C5  UNL     1      24.027   2.994  53.396  1.00  0.00     0.006 C 
HETATM   13  C20 UNL     1      23.818   2.335  52.057  1.00  0.00     0.027 C 
HETATM   14  C19 UNL     1      25.154   1.920  51.500  1.00  0.00     0.141 C 
BRANCH  12  15
HETATM   15  C4  UNL     1      22.709   3.006  54.119  1.00  0.00     0.127 C 
BRANCH  15  16
HETATM   16  N1  UNL     1      21.676   3.573  53.304  1.00  0.00    -0.361 N 
HETATM   17  C3  UNL     1      20.745   4.544  53.779  1.00  0.00     0.217 C 
HETATM   18  O1  UNL     1      20.805   4.943  54.980  1.00  0.00    -0.274 OA
ATOM     19  H1  UNL     1      21.602   3.266  52.334  1.00  0.00     0.162 HD
BRANCH  17  20
HETATM   20  C2  UNL     1      19.683   5.127  52.923  1.00  0.00     0.098 C 
HETATM   21  C1  UNL     1      19.985   4.772  51.466  1.00  0.00     0.014 C 
ENDBRANCH  17  20
ENDBRANCH  15  16
ENDBRANCH  12  15
ENDBRANCH   1   9
BRANCH   4  22
HETATM   22  N4  UNL     1      29.074  -0.633  49.447  1.00  0.00    -0.375 N 
ATOM     23  H4  UNL     1      28.740  -0.036  48.691  1.00  0.00     0.161 HD
BRANCH  22  24
HETATM   24  C10 UNL     1      30.394  -1.141  49.386  1.00  0.00     0.126 C 
BRANCH  24  25
HETATM   25  C11 UNL     1      31.378  -0.388  50.271  1.00  0.00     0.003 A 
HETATM   26  C12 UNL     1      32.729  -1.097  50.424  1.00  0.00     0.007 A 
HETATM   27  C13 UNL     1      31.774  -1.006  51.572  1.00  0.00     0.007 A 
ENDBRANCH  24  25
ENDBRANCH  22  24
ENDBRANCH   4  22
BRANCH   6  28
HETATM   28  C16 UNL     1      27.336  -3.706  52.749  1.00  0.00     0.072 C 
HETATM   29  C17 UNL     1      28.747  -3.928  53.284  1.00  0.00     0.039 C 
HETATM   30  C18 UNL     1      26.304  -3.902  53.808  1.00  0.00     0.039 C 
HETATM   31 CL1  UNL     1      27.063  -4.912  51.474  1.00  0.00    -0.113 Cl
ENDBRANCH   6  28
TORSDOF 8
ENDMDL
MODEL 2
REMARK VINA RESULT: -6.442490225      4.092      8.362
REMARK  8 active torsions:
REMARK  status: ('A' for Active; 'I' for Inactive)
REMARK    1  A    between atoms: C2_2  and  C3_3 
REMARK       I    between atoms: C3_3  and  N1_5 
REMARK    2  A    between atoms: N1_5  and  C4_7 
REMARK    3  A    between atoms: C4_7  and  C5_8 
REMARK    4  A    between atoms: N2_11  and  C8_12 
REMARK    5  A    between atoms: C9_15  and  N4_16 
REMARK    6  A    between atoms: N4_16  and  C10_18 
REMARK    7  A    between atoms: C10_18  and  C11_19 
REMARK    8  A    between atoms: C15_23  and  C16_24 
ROOT
HETATM    1  C8  UNL     1      27.324   0.233  51.377  1.00  0.00     0.682 A 
HETATM    2  N3  UNL     1      26.743  -0.818  51.971  1.00  0.00    -0.177 N 
ATOM      3  H3  UNL     1      27.302  -1.659  52.106  1.00  0.00     0.185 HD
HETATM    4  C9  UNL     1      25.452  -0.834  52.408  1.00  0.00     0.118 A 
HETATM    5  C14 UNL     1      24.747   0.332  52.201  1.00  0.00     0.076 A 
HETATM    6  C15 UNL     1      25.312   1.449  51.590  1.00  0.00     0.053 A 
HETATM    7  N5  UNL     1      26.590   1.354  51.197  1.00  0.00    -0.193 N 
ATOM      8  H5  UNL     1      27.025   2.158  50.746  1.00  0.00     0.184 HD
ENDROOT
BRANCH   1   9
HETATM    9  N2  UNL     1      28.665   0.160  50.925  1.00  0.00    -0.218 N 
HETATM   10  C7  UNL     1      29.205  -1.183  50.737  1.00  0.00     0.141 C 
HETATM   11  C6  UNL     1      30.252  -1.203  49.677  1.00  0.00     0.027 C 
HETATM   12  C5  UNL     1      31.353  -0.186  49.927  1.00  0.00     0.006 C 
HETATM   13  C20 UNL     1      30.942   0.896  50.893  1.00  0.00     0.027 C 
HETATM   14  C19 UNL     1      29.510   1.278  50.622  1.00  0.00     0.141 C 
BRANCH  12  15
HETATM   15  C4  UNL     1      32.588  -0.848  50.471  1.00  0.00     0.127 C 
BRANCH  15  16
HETATM   16  N1  UNL     1      32.598  -0.832  51.903  1.00  0.00    -0.361 N 
HETATM   17  C3  UNL     1      33.704  -0.368  52.677  1.00  0.00     0.217 C 
HETATM   18  O1  UNL     1      34.749   0.053  52.097  1.00  0.00    -0.274 OA
ATOM     19  H1  UNL     1      31.771  -1.170  52.397  1.00  0.00     0.162 HD
BRANCH  17  20
HETATM   20  C2  UNL     1      33.698  -0.352  54.160  1.00  0.00     0.098 C 
HETATM   21  C1  UNL     1      32.706   0.713  54.630  1.00  0.00     0.014 C 
ENDBRANCH  17  20
ENDBRANCH  15  16
ENDBRANCH  12  15
ENDBRANCH   1   9
BRANCH   4  22
HETATM   22  N4  UNL     1      24.969  -1.890  52.967  1.00  0.00    -0.375 N 
ATOM     23  H4  UNL     1      24.004  -2.155  52.771  1.00  0.00     0.161 HD
BRANCH  22  24
HETATM   24  C10 UNL     1      25.737  -2.693  53.843  1.00  0.00     0.126 C 
BRANCH  24  25
HETATM   25  C11 UNL     1      26.044  -4.077  53.288  1.00  0.00     0.003 A 
HETATM   26  C12 UNL     1      27.405  -4.627  53.736  1.00  0.00     0.007 A 
HETATM   27  C13 UNL     1      27.171  -4.215  52.316  1.00  0.00     0.007 A 
ENDBRANCH  24  25
ENDBRANCH  22  24
ENDBRANCH   4  22
BRANCH   6  28
HETATM   28  C16 UNL     1      24.482   2.665  51.424  1.00  0.00     0.072 C 
HETATM   29  C17 UNL     1      25.453   3.824  51.219  1.00  0.00     0.039 C 
HETATM   30  C18 UNL     1      23.470   2.589  50.330  1.00  0.00     0.039 C 
HETATM   31 CL1  UNL     1      23.629   2.959  52.954  1.00  0.00    -0.113 Cl
ENDBRANCH   6  28
TORSDOF 8
ENDMDL
MODEL 3
REMARK VINA RESULT: -6.430670269      1.960      4.159
REMARK  8 active torsions:
REMARK  status: ('A' for Active; 'I' for Inactive)
REMARK    1  A    between atoms: C2_2  and  C3_3 
REMARK       I    between atoms: C3_3  and  N1_5 
REMARK    2  A    between atoms: N1_5  and  C4_7 
REMARK    3  A    between atoms: C4_7  and  C5_8 
REMARK    4  A    between atoms: N2_11  and  C8_12 
REMARK    5  A    between atoms: C9_15  and  N4_16 
REMARK    6  A    between atoms: N4_16  and  C10_18 
REMARK    7  A    between atoms: C10_18  and  C11_19 
REMARK    8  A    between atoms: C15_23  and  C16_24 
ROOT
HETATM    1  C8  UNL     1      27.221  -0.483  51.412  1.00  0.00     0.682 A 
HETATM    2  N3  UNL     1      27.392  -1.646  52.055  1.00  0.00    -0.177 N 
ATOM      3  H3  UNL     1      26.638  -1.973  52.659  1.00  0.00     0.185 HD
HETATM    4  C9  UNL     1      28.509  -2.420  51.953  1.00  0.00     0.118 A 
HETATM    5  C14 UNL     1      29.491  -1.928  51.121  1.00  0.00     0.076 A 
HETATM    6  C15 UNL     1      29.355  -0.725  50.432  1.00  0.00     0.053 A 
HETATM    7  N5  UNL     1      28.214  -0.043  50.608  1.00  0.00    -0.193 N 
ATOM      8  H5  UNL     1      28.092   0.842  50.115  1.00  0.00     0.184 HD
ENDROOT
BRANCH   1   9
HETATM    9  N2  UNL     1      26.040   0.279  51.595  1.00  0.00    -0.218 N 
HETATM   10  C7  UNL     1      26.229   1.699  51.869  1.00  0.00     0.141 C 
HETATM   11  C6  UNL     1      25.077   2.506  51.376  1.00  0.00     0.027 C 
HETATM   12  C5  UNL     1      23.746   2.005  51.911  1.00  0.00     0.006 C 
HETATM   13  C20 UNL     1      23.817   0.590  52.425  1.00  0.00     0.027 C 
HETATM   14  C19 UNL     1      24.698  -0.222  51.512  1.00  0.00     0.141 C 
BRANCH  12  15
HETATM   15  C4  UNL     1      23.246   2.879  53.026  1.00  0.00     0.127 C 
BRANCH  15  16
HETATM   16  N1  UNL     1      21.983   3.469  52.698  1.00  0.00    -0.361 N 
HETATM   17  C3  UNL     1      21.137   4.103  53.657  1.00  0.00     0.217 C 
HETATM   18  O1  UNL     1      21.491   4.158  54.872  1.00  0.00    -0.274 OA
ATOM     19  H1  UNL     1      21.671   3.434  51.727  1.00  0.00     0.162 HD
BRANCH  17  20
HETATM   20  C2  UNL     1      19.834   4.714  53.301  1.00  0.00     0.098 C 
HETATM   21  C1  UNL     1      19.868   5.104  51.823  1.00  0.00     0.014 C 
ENDBRANCH  17  20
ENDBRANCH  15  16
ENDBRANCH  12  15
ENDBRANCH   1   9
BRANCH   4  22
HETATM   22  N4  UNL     1      28.593  -3.525  52.610  1.00  0.00    -0.375 N 
ATOM     23  H4  UNL     1      29.509  -3.955  52.737  1.00  0.00     0.161 HD
BRANCH  22  24
HETATM   24  C10 UNL     1      27.455  -4.162  53.159  1.00  0.00     0.126 C 
BRANCH  24  25
HETATM   25  C11 UNL     1      26.896  -5.274  52.282  1.00  0.00     0.003 A 
HETATM   26  C12 UNL     1      25.710  -6.014  52.914  1.00  0.00     0.007 A 
HETATM   27  C13 UNL     1      27.038  -6.685  52.754  1.00  0.00     0.007 A 
ENDBRANCH  24  25
ENDBRANCH  22  24
ENDBRANCH   4  22
BRANCH   6  28
HETATM   28  C16 UNL     1      30.457  -0.283  49.547  1.00  0.00     0.072 C 
HETATM   29  C17 UNL     1      31.734  -0.364  50.377  1.00  0.00     0.039 C 
HETATM   30  C18 UNL     1      30.576  -1.041  48.268  1.00  0.00     0.039 C 
HETATM   31 CL1  UNL     1      30.192   1.430  49.158  1.00  0.00    -0.113 Cl
ENDBRANCH   6  28
TORSDOF 8
ENDMDL
MODEL 4
REMARK VINA RESULT: -6.394499914      4.149      8.418
REMARK  8 active torsions:
REMARK  status: ('A' for Active; 'I' for Inactive)
REMARK    1  A    between atoms: C2_2  and  C3_3 
REMARK       I    between atoms: C3_3  and  N1_5 
REMARK    2  A    between atoms: N1_5  and  C4_7 
REMARK    3  A    between atoms: C4_7  and  C5_8 
REMARK    4  A    between atoms: N2_11  and  C8_12 
REMARK    5  A    between atoms: C9_15  and  N4_16 
REMARK    6  A    between atoms: N4_16  and  C10_18 
REMARK    7  A    between atoms: C10_18  and  C11_19 
REMARK    8  A    between atoms: C15_23  and  C16_24 
ROOT
HETATM    1  C8  UNL     1      27.787   2.066  51.350  1.00  0.00     0.682 A 
HETATM    2  N3  UNL     1      28.064   3.101  52.154  1.00  0.00    -0.177 N 
ATOM      3  H3  UNL     1      29.045   3.326  52.321  1.00  0.00     0.185 HD
HETATM    4  C9  UNL     1      27.120   3.871  52.765  1.00  0.00     0.118 A 
HETATM    5  C14 UNL     1      25.814   3.520  52.500  1.00  0.00     0.076 A 
HETATM    6  C15 UNL     1      25.480   2.454  51.668  1.00  0.00     0.053 A 
HETATM    7  N5  UNL     1      26.489   1.762  51.122  1.00  0.00    -0.193 N 
ATOM      8  H5  UNL     1      26.270   0.976  50.510  1.00  0.00     0.184 HD
ENDROOT
BRANCH   1   9
HETATM    9  N2  UNL     1      28.828   1.295  50.776  1.00  0.00    -0.218 N 
HETATM   10  C7  UNL     1      29.053  -0.020  51.367  1.00  0.00     0.141 C 
HETATM   11  C6  UNL     1      29.602  -0.978  50.368  1.00  0.00     0.027 C 
HETATM   12  C5  UNL     1      30.852  -0.451  49.683  1.00  0.00     0.006 C 
HETATM   13  C20 UNL     1      31.003   1.043  49.810  1.00  0.00     0.027 C 
HETATM   14  C19 UNL     1      29.649   1.688  49.667  1.00  0.00     0.141 C 
BRANCH  12  15
HETATM   15  C4  UNL     1      32.089  -1.092  50.246  1.00  0.00     0.127 C 
BRANCH  15  16
HETATM   16  N1  UNL     1      32.169  -0.909  51.665  1.00  0.00    -0.361 N 
HETATM   17  C3  UNL     1      33.292  -0.320  52.320  1.00  0.00     0.217 C 
HETATM   18  O1  UNL     1      34.289   0.065  51.641  1.00  0.00    -0.274 OA
ATOM     19  H1  UNL     1      31.381  -1.216  52.237  1.00  0.00     0.162 HD
BRANCH  17  20
HETATM   20  C2  UNL     1      33.358  -0.133  53.790  1.00  0.00     0.098 C 
HETATM   21  C1  UNL     1      32.016   0.422  54.270  1.00  0.00     0.014 C 
ENDBRANCH  17  20
ENDBRANCH  15  16
ENDBRANCH  12  15
ENDBRANCH   1   9
BRANCH   4  22
HETATM   22  N4  UNL     1      27.474   4.847  53.528  1.00  0.00    -0.375 N 
ATOM     23  H4  UNL     1      27.545   5.784  53.131  1.00  0.00     0.161 HD
BRANCH  22  24
HETATM   24  C10 UNL     1      27.767   4.660  54.900  1.00  0.00     0.126 C 
BRANCH  24  25
HETATM   25  C11 UNL     1      28.284   3.266  55.227  1.00  0.00     0.003 A 
HETATM   26  C12 UNL     1      27.644   2.654  56.480  1.00  0.00     0.007 A 
HETATM   27  C13 UNL     1      29.078   3.082  56.479  1.00  0.00     0.007 A 
ENDBRANCH  24  25
ENDBRANCH  22  24
ENDBRANCH   4  22
BRANCH   6  28
HETATM   28  C16 UNL     1      24.048   2.160  51.428  1.00  0.00     0.072 C 
HETATM   29  C17 UNL     1      23.313   2.522  52.714  1.00  0.00     0.039 C 
HETATM   30  C18 UNL     1      23.458   2.842  50.240  1.00  0.00     0.039 C 
HETATM   31 CL1  UNL     1      23.880   0.406  51.204  1.00  0.00    -0.113 Cl
ENDBRANCH   6  28
TORSDOF 8
ENDMDL
MODEL 5
REMARK VINA RESULT: -6.296056611      2.593      3.573
REMARK  8 active torsions:
REMARK  status: ('A' for Active; 'I' for Inactive)
REMARK    1  A    between atoms: C2_2  and  C3_3 
REMARK       I    between atoms: C3_3  and  N1_5 
REMARK    2  A    between atoms: N1_5  and  C4_7 
REMARK    3  A    between atoms: C4_7  and  C5_8 
REMARK    4  A    between atoms: N2_11  and  C8_12 
REMARK    5  A    between atoms: C9_15  and  N4_16 
REMARK    6  A    between atoms: N4_16  and  C10_18 
REMARK    7  A    between atoms: C10_18  and  C11_19 
REMARK    8  A    between atoms: C15_23  and  C16_24 
ROOT
HETATM    1  C8  UNL     1      27.194  -1.369  52.669  1.00  0.00     0.682 A 
HETATM    2  N3  UNL     1      28.478  -1.208  52.322  1.00  0.00    -0.177 N 
ATOM      3  H3  UNL     1      28.779  -0.282  52.021  1.00  0.00     0.185 HD
HETATM    4  C9  UNL     1      29.408  -2.205  52.345  1.00  0.00     0.118 A 
HETATM    5  C14 UNL     1      28.942  -3.433  52.762  1.00  0.00     0.076 A 
HETATM    6  C15 UNL     1      27.617  -3.644  53.134  1.00  0.00     0.053 A 
HETATM    7  N5  UNL     1      26.786  -2.593  53.071  1.00  0.00    -0.193 N 
ATOM      8  H5  UNL     1      25.811  -2.723  53.336  1.00  0.00     0.184 HD
ENDROOT
BRANCH   1   9
HETATM    9  N2  UNL     1      26.281  -0.287  52.588  1.00  0.00    -0.218 N 
HETATM   10  C7  UNL     1      25.541  -0.164  51.337  1.00  0.00     0.141 C 
HETATM   11  C6  UNL     1      24.212   0.473  51.553  1.00  0.00     0.027 C 
HETATM   12  C5  UNL     1      24.316   1.806  52.275  1.00  0.00     0.006 C 
HETATM   13  C20 UNL     1      25.626   1.978  52.999  1.00  0.00     0.027 C 
HETATM   14  C19 UNL     1      26.016   0.666  53.628  1.00  0.00     0.141 C 
BRANCH  12  15
HETATM   15  C4  UNL     1      24.162   2.954  51.317  1.00  0.00     0.127 C 
BRANCH  15  16
HETATM   16  N1  UNL     1      25.412   3.290  50.703  1.00  0.00    -0.361 N 
HETATM   17  C3  UNL     1      25.611   4.462  49.914  1.00  0.00     0.217 C 
HETATM   18  O1  UNL     1      24.649   5.265  49.722  1.00  0.00    -0.274 OA
ATOM     19  H1  UNL     1      26.201   2.658  50.837  1.00  0.00     0.162 HD
BRANCH  17  20
HETATM   20  C2  UNL     1      26.912   4.800  49.288  1.00  0.00     0.098 C 
HETATM   21  C1  UNL     1      27.929   3.724  49.672  1.00  0.00     0.014 C 
ENDBRANCH  17  20
ENDBRANCH  15  16
ENDBRANCH  12  15
ENDBRANCH   1   9
BRANCH   4  22
HETATM   22  N4  UNL     1      30.623  -1.965  51.991  1.00  0.00    -0.375 N 
ATOM     23  H4  UNL     1      31.299  -2.729  51.998  1.00  0.00     0.161 HD
BRANCH  22  24
HETATM   24  C10 UNL     1      31.049  -0.676  51.592  1.00  0.00     0.126 C 
BRANCH  24  25
HETATM   25  C11 UNL     1      31.398  -0.581  50.113  1.00  0.00     0.003 A 
HETATM   26  C12 UNL     1      30.553   0.447  49.349  1.00  0.00     0.007 A 
HETATM   27  C13 UNL     1      30.377  -1.021  49.115  1.00  0.00     0.007 A 
ENDBRANCH  24  25
ENDBRANCH  22  24
ENDBRANCH   4  22
BRANCH   6  28
HETATM   28  C16 UNL     1      27.210  -4.995  53.585  1.00  0.00     0.072 C 
HETATM   29  C17 UNL     1      28.463  -5.655  54.149  1.00  0.00     0.039 C 
HETATM   30  C18 UNL     1      26.083  -5.017  54.562  1.00  0.00     0.039 C 
HETATM   31 CL1  UNL     1      26.725  -5.927  52.153  1.00  0.00    -0.113 Cl
ENDBRANCH   6  28
TORSDOF 8
ENDMDL
