MODEL 1
REMARK VINA RESULT: -7.224919892      0.000      0.000
REMARK  6 active torsions:
REMARK  status: ('A' for Active; 'I' for Inactive)
REMARK    1  A    between atoms: O1_2  and  C2_3 
REMARK    2  A    between atoms: N2_7  and  C4_9 
REMARK    3  A    between atoms: C4_9  and  C5_10 
REMARK    4  A    between atoms: C8_13  and  C9_14 
REMARK       I    between atoms: C9_14  and  N3_16 
REMARK    5  A    between atoms: N3_16  and  C10_18 
REMARK    6  A    between atoms: C18_27  and  C19_28 
ROOT
HETATM    1  C4  UNL     1      30.415  -0.281  49.289  1.00  0.00     0.126 C 
ENDROOT
BRANCH   1   2
HETATM    2  N2  UNL     1      29.189  -0.074  49.996  1.00  0.00    -0.376 N 
HETATM    3  C3  UNL     1      28.703   1.102  50.097  1.00  0.00     0.106 A 
HETATM    4  N1  UNL     1      29.321   2.145  49.556  1.00  0.00    -0.308 N 
HETATM    5  C17 UNL     1      27.525   1.275  50.779  1.00  0.00     0.078 A 
HETATM    6  C2  UNL     1      28.816   3.385  49.660  1.00  0.00     0.225 A 
ATOM      7  H1  UNL     1      30.196   2.003  49.051  1.00  0.00     0.171 HD
HETATM    8  N4  UNL     1      27.659   3.548  50.330  1.00  0.00    -0.322 N 
HETATM    9  C18 UNL     1      27.000   2.531  50.892  1.00  0.00     0.044 A 
ATOM     10  H4  UNL     1      27.271   4.487  50.412  1.00  0.00     0.169 HD
ATOM     11  H2  UNL     1      28.703  -0.866  50.418  1.00  0.00     0.161 HD
BRANCH   6  12
HETATM   12  O1  UNL     1      29.483   4.463  49.083  1.00  0.00    -0.327 OA
HETATM   13  C1  UNL     1      28.917   5.150  47.995  1.00  0.00     0.213 C 
ENDBRANCH   6  12
BRANCH   9  14
HETATM   14  C19 UNL     1      25.722   2.702  51.633  1.00  0.00    -0.035 A 
HETATM   15  C20 UNL     1      25.391   3.323  52.714  1.00  0.00    -0.017 A 
HETATM   16  C21 UNL     1      24.015   2.947  52.645  1.00  0.00     0.032 A 
HETATM   17  C22 UNL     1      24.347   2.232  51.417  1.00  0.00     0.044 A 
ENDBRANCH   9  14
ENDBRANCH   1   2
BRANCH   1  18
HETATM   18  C5  UNL     1      31.351  -1.046  50.235  1.00  0.00     0.003 C 
HETATM   19  C6  UNL     1      30.529  -1.540  51.377  1.00  0.00     0.007 C 
HETATM   20  C7  UNL     1      31.195  -1.055  52.669  1.00  0.00     0.014 C 
HETATM   21  C8  UNL     1      32.636  -1.576  52.591  1.00  0.00     0.078 C 
HETATM   22  C15 UNL     1      33.373  -0.635  51.665  1.00  0.00     0.014 C 
HETATM   23  C16 UNL     1      32.438  -0.088  50.628  1.00  0.00     0.007 C 
BRANCH  21  24
HETATM   24  C9  UNL     1      33.260  -1.498  53.914  1.00  0.00     0.222 C 
HETATM   25  O2  UNL     1      33.594  -2.550  54.500  1.00  0.00    -0.273 OA
HETATM   26  N3  UNL     1      33.468  -0.214  54.498  1.00  0.00    -0.356 N 
ATOM     27  H3  UNL     1      33.189   0.635  54.005  1.00  0.00     0.162 HD
BRANCH  26  28
HETATM   28  C10 UNL     1      34.084  -0.142  55.801  1.00  0.00     0.087 C 
HETATM   29  C11 UNL     1      33.582   1.080  56.547  1.00  0.00     0.028 C 
HETATM   30  C12 UNL     1      34.649   1.237  57.614  1.00  0.00     0.039 C 
HETATM   31  C13 UNL     1      35.921   0.826  56.937  1.00  0.00     0.172 C 
HETATM   32  F1  UNL     1      36.591  -0.144  57.676  1.00  0.00    -0.249 F 
HETATM   33  C14 UNL     1      35.555   0.240  55.596  1.00  0.00     0.062 C 
ENDBRANCH  26  28
ENDBRANCH  21  24
ENDBRANCH   1  18
TORSDOF 6
ENDMDL
MODEL 2
REMARK VINA RESULT: -7.157547891      1.263      1.539
REMARK  6 active torsions:
REMARK  status: ('A' for Active; 'I' for Inactive)
REMARK    1  A    between atoms: O1_2  and  C2_3 
REMARK    2  A    between atoms: N2_7  and  C4_9 
REMARK    3  A    between atoms: C4_9  and  C5_10 
REMARK    4  A    between atoms: C8_13  and  C9_14 
REMARK       I    between atoms: C9_14  and  N3_16 
REMARK    5  A    between atoms: N3_16  and  C10_18 
REMARK    6  A    between atoms: C18_27  and  C19_28 
ROOT
HETATM    1  C4  UNL     1      29.334  -0.575  49.679  1.00  0.00     0.126 C 
ENDROOT
BRANCH   1   2
HETATM    2  N2  UNL     1      28.223  -0.300  50.537  1.00  0.00    -0.376 N 
HETATM    3  C3  UNL     1      27.790   0.895  50.653  1.00  0.00     0.106 A 
HETATM    4  N1  UNL     1      28.357   1.895  49.988  1.00  0.00    -0.308 N 
HETATM    5  C17 UNL     1      26.721   1.135  51.480  1.00  0.00     0.078 A 
HETATM    6  C2  UNL     1      27.907   3.154  50.108  1.00  0.00     0.225 A 
ATOM      7  H1  UNL     1      29.150   1.703  49.376  1.00  0.00     0.171 HD
HETATM    8  N4  UNL     1      26.858   3.383  50.921  1.00  0.00    -0.322 N 
HETATM    9  C18 UNL     1      26.253   2.411  51.610  1.00  0.00     0.044 A 
ATOM     10  H4  UNL     1      26.512   4.337  51.015  1.00  0.00     0.169 HD
ATOM     11  H2  UNL     1      27.777  -1.058  51.054  1.00  0.00     0.161 HD
BRANCH   6  12
HETATM   12  O1  UNL     1      28.519   4.186  49.399  1.00  0.00    -0.327 OA
HETATM   13  C1  UNL     1      27.777   4.971  48.501  1.00  0.00     0.213 C 
ENDBRANCH   6  12
BRANCH   9  14
HETATM   14  C19 UNL     1      25.094   2.655  52.511  1.00  0.00    -0.035 A 
HETATM   15  C20 UNL     1      23.844   2.345  52.463  1.00  0.00    -0.017 A 
HETATM   16  C21 UNL     1      23.524   2.969  53.707  1.00  0.00     0.032 A 
HETATM   17  C22 UNL     1      24.933   3.340  53.799  1.00  0.00     0.044 A 
ENDBRANCH   9  14
ENDBRANCH   1   2
BRANCH   1  18
HETATM   18  C5  UNL     1      30.477  -1.067  50.577  1.00  0.00     0.003 C 
HETATM   19  C6  UNL     1      30.206  -0.579  51.959  1.00  0.00     0.007 C 
HETATM   20  C7  UNL     1      31.449   0.179  52.434  1.00  0.00     0.014 C 
HETATM   21  C8  UNL     1      32.605  -0.817  52.279  1.00  0.00     0.078 C 
HETATM   22  C15 UNL     1      32.964  -0.818  50.810  1.00  0.00     0.014 C 
HETATM   23  C16 UNL     1      31.748  -0.541  49.977  1.00  0.00     0.007 C 
BRANCH  21  24
HETATM   24  C9  UNL     1      33.768  -0.346  53.035  1.00  0.00     0.222 C 
HETATM   25  O2  UNL     1      34.755   0.111  52.421  1.00  0.00    -0.273 OA
HETATM   26  N3  UNL     1      33.735  -0.424  54.458  1.00  0.00    -0.356 N 
ATOM     27  H3  UNL     1      32.920  -0.800  54.942  1.00  0.00     0.162 HD
BRANCH  26  28
HETATM   28  C10 UNL     1      34.883   0.043  55.199  1.00  0.00     0.087 C 
HETATM   29  C11 UNL     1      35.273  -0.977  56.251  1.00  0.00     0.028 C 
HETATM   30  C12 UNL     1      36.123  -0.134  57.183  1.00  0.00     0.039 C 
HETATM   31  C13 UNL     1      35.471   1.216  57.168  1.00  0.00     0.172 C 
HETATM   32  F1  UNL     1      36.394   2.214  56.872  1.00  0.00    -0.249 F 
HETATM   33  C14 UNL     1      34.418   1.202  56.089  1.00  0.00     0.062 C 
ENDBRANCH  26  28
ENDBRANCH  21  24
ENDBRANCH   1  18
TORSDOF 6
ENDMDL
MODEL 3
REMARK VINA RESULT: -7.133655271      3.235      8.634
REMARK  6 active torsions:
REMARK  status: ('A' for Active; 'I' for Inactive)
REMARK    1  A    between atoms: O1_2  and  C2_3 
REMARK    2  A    between atoms: N2_7  and  C4_9 
REMARK    3  A    between atoms: C4_9  and  C5_10 
REMARK    4  A    between atoms: C8_13  and  C9_14 
REMARK       I    between atoms: C9_14  and  N3_16 
REMARK    5  A    between atoms: N3_16  and  C10_18 
REMARK    6  A    between atoms: C18_27  and  C19_28 
ROOT
HETATM    1  C4  UNL     1      33.133  -1.835  53.357  1.00  0.00     0.126 C 
ENDROOT
BRANCH   1   2
HETATM    2  N2  UNL     1      32.699  -0.847  54.296  1.00  0.00    -0.376 N 
HETATM    3  C3  UNL     1      33.557  -0.227  55.010  1.00  0.00     0.106 A 
HETATM    4  N1  UNL     1      34.855  -0.486  54.897  1.00  0.00    -0.308 N 
HETATM    5  C17 UNL     1      33.117   0.717  55.903  1.00  0.00     0.078 A 
HETATM    6  C2  UNL     1      35.761   0.162  55.646  1.00  0.00     0.225 A 
ATOM      7  H1  UNL     1      35.169  -1.190  54.228  1.00  0.00     0.171 HD
HETATM    8  N4  UNL     1      35.323   1.087  56.520  1.00  0.00    -0.322 N 
HETATM    9  C18 UNL     1      34.029   1.383  56.670  1.00  0.00     0.044 A 
ATOM     10  H4  UNL     1      36.008   1.582  57.091  1.00  0.00     0.169 HD
ATOM     11  H2  UNL     1      31.705  -0.638  54.395  1.00  0.00     0.161 HD
BRANCH   6  12
HETATM   12  O1  UNL     1      37.118  -0.127  55.508  1.00  0.00    -0.327 OA
HETATM   13  C1  UNL     1      38.028   0.237  56.514  1.00  0.00     0.213 C 
ENDBRANCH   6  12
BRANCH   9  14
HETATM   14  C19 UNL     1      33.536   2.404  57.634  1.00  0.00    -0.035 A 
HETATM   15  C20 UNL     1      34.096   3.374  58.274  1.00  0.00    -0.017 A 
HETATM   16  C21 UNL     1      32.895   3.786  58.929  1.00  0.00     0.032 A 
HETATM   17  C22 UNL     1      32.224   2.699  58.223  1.00  0.00     0.044 A 
ENDBRANCH   9  14
ENDBRANCH   1   2
BRANCH   1  18
HETATM   18  C5  UNL     1      32.277  -1.658  52.097  1.00  0.00     0.003 C 
HETATM   19  C6  UNL     1      32.747  -0.425  51.403  1.00  0.00     0.007 C 
HETATM   20  C7  UNL     1      31.528   0.478  51.189  1.00  0.00     0.014 C 
HETATM   21  C8  UNL     1      30.521  -0.391  50.425  1.00  0.00     0.078 C 
HETATM   22  C15 UNL     1      29.878  -1.292  51.455  1.00  0.00     0.014 C 
HETATM   23  C16 UNL     1      30.849  -1.600  52.555  1.00  0.00     0.007 C 
BRANCH  21  24
HETATM   24  C9  UNL     1      29.478   0.459  49.845  1.00  0.00     0.222 C 
HETATM   25  O2  UNL     1      29.120   0.272  48.662  1.00  0.00    -0.273 OA
HETATM   26  N3  UNL     1      28.899   1.481  50.654  1.00  0.00    -0.356 N 
ATOM     27  H3  UNL     1      29.205   1.619  51.617  1.00  0.00     0.162 HD
BRANCH  26  28
HETATM   28  C10 UNL     1      27.872   2.315  50.078  1.00  0.00     0.087 C 
HETATM   29  C11 UNL     1      28.456   3.653  49.669  1.00  0.00     0.028 C 
HETATM   30  C12 UNL     1      27.206   4.504  49.559  1.00  0.00     0.039 C 
HETATM   31  C13 UNL     1      26.310   3.999  50.650  1.00  0.00     0.172 C 
HETATM   32  F1  UNL     1      25.052   3.672  50.153  1.00  0.00    -0.249 F 
HETATM   33  C14 UNL     1      26.941   2.752  51.216  1.00  0.00     0.062 C 
ENDBRANCH  26  28
ENDBRANCH  21  24
ENDBRANCH   1  18
TORSDOF 6
ENDMDL
MODEL 4
REMARK VINA RESULT: -7.102312805      2.200      2.646
REMARK  6 active torsions:
REMARK  status: ('A' for Active; 'I' for Inactive)
REMARK    1  A    between atoms: O1_2  and  C2_3 
REMARK    2  A    between atoms: N2_7  and  C4_9 
REMARK    3  A    between atoms: C4_9  and  C5_10 
REMARK    4  A    between atoms: C8_13  and  C9_14 
REMARK       I    between atoms: C9_14  and  N3_16 
REMARK    5  A    between atoms: N3_16  and  C10_18 
REMARK    6  A    between atoms: C18_27  and  C19_28 
ROOT
HETATM    1  C4  UNL     1      30.126   1.162  49.594  1.00  0.00     0.126 C 
ENDROOT
BRANCH   1   2
HETATM    2  N2  UNL     1      28.922   1.113  50.363  1.00  0.00    -0.376 N 
HETATM    3  C3  UNL     1      28.107   2.095  50.332  1.00  0.00     0.106 A 
HETATM    4  N1  UNL     1      28.360   3.169  49.594  1.00  0.00    -0.308 N 
HETATM    5  C17 UNL     1      26.957   2.025  51.078  1.00  0.00     0.078 A 
HETATM    6  C2  UNL     1      27.506   4.205  49.558  1.00  0.00     0.225 A 
ATOM      7  H1  UNL     1      29.217   3.208  49.044  1.00  0.00     0.171 HD
HETATM    8  N4  UNL     1      26.380   4.131  50.293  1.00  0.00    -0.322 N 
HETATM    9  C18 UNL     1      26.081   3.072  51.050  1.00  0.00     0.044 A 
ATOM     10  H4  UNL     1      25.729   4.915  50.269  1.00  0.00     0.169 HD
ATOM     11  H2  UNL     1      28.714   0.294  50.936  1.00  0.00     0.161 HD
BRANCH   6  12
HETATM   12  O1  UNL     1      27.794   5.322  48.775  1.00  0.00    -0.327 OA
HETATM   13  C1  UNL     1      28.813   5.270  47.810  1.00  0.00     0.213 C 
ENDBRANCH   6  12
BRANCH   9  14
HETATM   14  C19 UNL     1      24.839   2.981  51.864  1.00  0.00    -0.035 A 
HETATM   15  C20 UNL     1      23.602   2.748  51.586  1.00  0.00    -0.017 A 
HETATM   16  C21 UNL     1      23.158   2.853  52.939  1.00  0.00     0.032 A 
HETATM   17  C22 UNL     1      24.548   3.120  53.297  1.00  0.00     0.044 A 
ENDBRANCH   9  14
ENDBRANCH   1   2
BRANCH   1  18
HETATM   18  C5  UNL     1      31.138   0.243  50.292  1.00  0.00     0.003 C 
HETATM   19  C6  UNL     1      30.635  -1.155  50.169  1.00  0.00     0.007 C 
HETATM   20  C7  UNL     1      30.578  -1.751  51.579  1.00  0.00     0.014 C 
HETATM   21  C8  UNL     1      31.998  -1.585  52.137  1.00  0.00     0.078 C 
HETATM   22  C15 UNL     1      32.110  -0.141  52.574  1.00  0.00     0.014 C 
HETATM   23  C16 UNL     1      31.256   0.734  51.705  1.00  0.00     0.007 C 
BRANCH  21  24
HETATM   24  C9  UNL     1      32.166  -2.435  53.318  1.00  0.00     0.222 C 
HETATM   25  O2  UNL     1      31.238  -3.197  53.664  1.00  0.00    -0.273 OA
HETATM   26  N3  UNL     1      33.392  -2.365  54.042  1.00  0.00    -0.356 N 
ATOM     27  H3  UNL     1      34.139  -1.736  53.745  1.00  0.00     0.162 HD
BRANCH  26  28
HETATM   28  C10 UNL     1      33.554  -3.204  55.205  1.00  0.00     0.087 C 
HETATM   29  C11 UNL     1      34.515  -2.559  56.184  1.00  0.00     0.028 C 
HETATM   30  C12 UNL     1      34.909  -3.746  57.042  1.00  0.00     0.039 C 
HETATM   31  C13 UNL     1      34.943  -4.903  56.091  1.00  0.00     0.172 C 
HETATM   32  F1  UNL     1      34.167  -5.959  56.558  1.00  0.00    -0.249 F 
HETATM   33  C14 UNL     1      34.369  -4.432  54.778  1.00  0.00     0.062 C 
ENDBRANCH  26  28
ENDBRANCH  21  24
ENDBRANCH   1  18
TORSDOF 6
ENDMDL
MODEL 5
REMARK VINA RESULT: -7.071506504      2.240      2.698
REMARK  6 active torsions:
REMARK  status: ('A' for Active; 'I' for Inactive)
REMARK    1  A    between atoms: O1_2  and  C2_3 
REMARK    2  A    between atoms: N2_7  and  C4_9 
REMARK    3  A    between atoms: C4_9  and  C5_10 
REMARK    4  A    between atoms: C8_13  and  C9_14 
REMARK       I    between atoms: C9_14  and  N3_16 
REMARK    5  A    between atoms: N3_16  and  C10_18 
REMARK    6  A    between atoms: C18_27  and  C19_28 
ROOT
HETATM    1  C4  UNL     1      30.557   0.042  49.394  1.00  0.00     0.126 C 
ENDROOT
BRANCH   1   2
HETATM    2  N2  UNL     1      29.299   0.177  50.061  1.00  0.00    -0.376 N 
HETATM    3  C3  UNL     1      28.736   1.321  50.129  1.00  0.00     0.106 A 
HETATM    4  N1  UNL     1      29.301   2.395  49.590  1.00  0.00    -0.308 N 
HETATM    5  C17 UNL     1      27.528   1.426  50.773  1.00  0.00     0.078 A 
HETATM    6  C2  UNL     1      28.713   3.599  49.660  1.00  0.00     0.225 A 
ATOM      7  H1  UNL     1      30.198   2.302  49.113  1.00  0.00     0.171 HD
HETATM    8  N4  UNL     1      27.529   3.697  50.293  1.00  0.00    -0.322 N 
HETATM    9  C18 UNL     1      26.920   2.646  50.850  1.00  0.00     0.044 A 
ATOM     10  H4  UNL     1      27.078   4.610  50.348  1.00  0.00     0.169 HD
ATOM     11  H2  UNL     1      28.853  -0.638  50.481  1.00  0.00     0.161 HD
BRANCH   6  12
HETATM   12  O1  UNL     1      29.327   4.711  49.085  1.00  0.00    -0.327 OA
HETATM   13  C1  UNL     1      28.911   5.183  47.829  1.00  0.00     0.213 C 
ENDBRANCH   6  12
BRANCH   9  14
HETATM   14  C19 UNL     1      25.612   2.745  51.552  1.00  0.00    -0.035 A 
HETATM   15  C20 UNL     1      25.234   3.254  52.674  1.00  0.00    -0.017 A 
HETATM   16  C21 UNL     1      23.864   2.889  52.510  1.00  0.00     0.032 A 
HETATM   17  C22 UNL     1      24.249   2.301  51.231  1.00  0.00     0.044 A 
ENDBRANCH   9  14
ENDBRANCH   1   2
BRANCH   1  18
HETATM   18  C5  UNL     1      31.379  -0.976  50.196  1.00  0.00     0.003 C 
HETATM   19  C6  UNL     1      30.479  -1.568  51.227  1.00  0.00     0.007 C 
HETATM   20  C7  UNL     1      31.158  -1.394  52.588  1.00  0.00     0.014 C 
HETATM   21  C8  UNL     1      32.536  -2.051  52.431  1.00  0.00     0.078 C 
HETATM   22  C15 UNL     1      33.395  -1.050  51.691  1.00  0.00     0.014 C 
HETATM   23  C16 UNL     1      32.552  -0.229  50.759  1.00  0.00     0.007 C 
BRANCH  21  24
HETATM   24  C9  UNL     1      33.129  -2.275  53.751  1.00  0.00     0.222 C 
HETATM   25  O2  UNL     1      33.327  -1.303  54.510  1.00  0.00    -0.273 OA
HETATM   26  N3  UNL     1      33.466  -3.608  54.132  1.00  0.00    -0.356 N 
ATOM     27  H3  UNL     1      33.298  -4.390  53.498  1.00  0.00     0.162 HD
BRANCH  26  28
HETATM   28  C10 UNL     1      34.050  -3.824  55.433  1.00  0.00     0.087 C 
HETATM   29  C11 UNL     1      35.293  -4.685  55.310  1.00  0.00     0.028 C 
HETATM   30  C12 UNL     1      35.458  -5.177  56.735  1.00  0.00     0.039 C 
HETATM   31  C13 UNL     1      34.056  -5.360  57.235  1.00  0.00     0.172 C 
HETATM   32  F1  UNL     1      33.862  -4.687  58.436  1.00  0.00    -0.249 F 
HETATM   33  C14 UNL     1      33.125  -4.776  56.202  1.00  0.00     0.062 C 
ENDBRANCH  26  28
ENDBRANCH  21  24
ENDBRANCH   1  18
TORSDOF 6
ENDMDL
