MODEL 1
REMARK VINA RESULT: -9.105027053      0.000      0.000
REMARK  12 active torsions:
REMARK  status: ('A' for Active; 'I' for Inactive)
REMARK    1  A    between atoms: C2_2  and  N1_3 
REMARK    2  A    between atoms: N1_3  and  C3_4 
REMARK    3  A    between atoms: C3_4  and  C4_5 
REMARK    4  A    between atoms: C4_5  and  C5_6 
REMARK    5  A    between atoms: C5_6  and  C6_7 
REMARK    6  A    between atoms: C6_7  and  C7_8 
REMARK    7  A    between atoms: C7_8  and  C8_9 
REMARK    8  A    between atoms: C12_16  and  C13_17 
REMARK    9  A    between atoms: C13_17  and  C14_18 
REMARK   10  A    between atoms: C14_18  and  C15_19 
REMARK       I    between atoms: C15_19  and  N3_21 
REMARK   11  A    between atoms: N3_21  and  C16_23 
REMARK   12  A    between atoms: C20_34  and  N7_35 
ROOT
HETATM    1  C8  UNL     1      22.168  30.867  12.877  1.00  0.00     0.084 C 
HETATM    2  C9  UNL     1      22.727  32.112  13.447  1.00  0.00     0.034 C 
HETATM    3  C10 UNL     1      23.162  32.114  14.866  1.00  0.00     0.105 C 
HETATM    4  C11 UNL     1      23.065  33.519  15.359  1.00  0.00     0.223 C 
HETATM    5  O1  UNL     1      23.427  34.321  14.417  1.00  0.00    -0.273 OA
HETATM    6  N2  UNL     1      22.668  34.011  16.610  1.00  0.00    -0.317 N 
ATOM      7  H2  UNL     1      23.460  34.433  17.095  1.00  0.00     0.170 HD
HETATM    8  C12 UNL     1      21.529  34.098  17.383  1.00  0.00     0.086 C 
HETATM    9  N6  UNL     1      20.429  33.208  17.370  1.00  0.00    -0.315 N 
ATOM     10  H6  UNL     1      19.838  33.372  18.185  1.00  0.00     0.170 HD
HETATM   11  C19 UNL     1      19.905  32.188  16.601  1.00  0.00     0.246 C 
HETATM   12  O3  UNL     1      19.841  30.991  17.091  1.00  0.00    -0.271 OA
HETATM   13  C20 UNL     1      19.356  32.198  15.214  1.00  0.00     0.190 C 
HETATM   14  C25 UNL     1      19.355  30.793  14.646  1.00  0.00     0.138 C 
HETATM   15  C26 UNL     1      19.630  30.699  13.213  1.00  0.00     0.220 C 
HETATM   16  O5  UNL     1      18.681  30.229  12.480  1.00  0.00    -0.274 OA
HETATM   17  N9  UNL     1      20.785  31.048  12.520  1.00  0.00    -0.356 N 
ATOM     18  H9  UNL     1      20.628  31.503  11.621  1.00  0.00     0.162 HD
ENDROOT
BRANCH   8  19
HETATM   19  C13 UNL     1      20.926  35.484  17.526  1.00  0.00     0.086 C 
BRANCH  19  20
HETATM   20  C14 UNL     1      19.916  35.695  18.570  1.00  0.00     0.111 C 
BRANCH  20  21
HETATM   21  C15 UNL     1      18.540  36.008  18.188  1.00  0.00     0.236 C 
HETATM   22  O2  UNL     1      17.503  35.435  18.596  1.00  0.00    -0.273 OA
HETATM   23  N3  UNL     1      18.340  37.088  17.254  1.00  0.00    -0.160 N 
ATOM     24  H3  UNL     1      18.275  36.867  16.260  1.00  0.00     0.187 HD
BRANCH  23  25
HETATM   25  C16 UNL     1      18.240  38.306  17.615  1.00  0.00     0.684 A 
HETATM   26  N4  UNL     1      17.809  38.742  18.830  1.00  0.00    -0.200 N 
HETATM   27  C17 UNL     1      17.853  40.082  18.804  1.00  0.00     0.123 A 
ATOM     28  H4  UNL     1      17.509  38.159  19.612  1.00  0.00     0.183 HD
HETATM   29  C18 UNL     1      18.311  40.486  17.574  1.00  0.00     0.123 A 
HETATM   30  N5  UNL     1      18.541  39.368  16.863  1.00  0.00    -0.200 N 
ATOM     31  H5  UNL     1      18.890  39.336  15.905  1.00  0.00     0.183 HD
ENDBRANCH  23  25
ENDBRANCH  20  21
ENDBRANCH  19  20
ENDBRANCH   8  19
BRANCH  13  32
HETATM   32  N7  UNL     1      17.959  32.631  15.206  1.00  0.00    -0.320 N 
HETATM   33  C21 UNL     1      16.884  31.663  15.459  1.00  0.00     0.130 C 
HETATM   34  C22 UNL     1      15.636  32.455  15.842  1.00  0.00     0.040 C 
HETATM   35  C23 UNL     1      15.280  33.371  14.663  1.00  0.00     0.126 C 
HETATM   36  N8  UNL     1      16.333  34.350  14.528  1.00  0.00    -0.343 N 
HETATM   37  C24 UNL     1      17.664  33.996  14.955  1.00  0.00     0.319 C 
ATOM     38  H8  UNL     1      16.139  35.272  14.138  1.00  0.00     0.164 HD
HETATM   39  O4  UNL     1      18.548  34.898  15.100  1.00  0.00    -0.247 OA
ENDBRANCH  13  32
BRANCH   1  40
HETATM   40  C7  UNL     1      22.510  29.629  13.622  1.00  0.00     0.025 C 
BRANCH  40  41
HETATM   41  C6  UNL     1      23.433  28.705  12.897  1.00  0.00     0.002 C 
BRANCH  41  42
HETATM   42  C5  UNL     1      22.901  28.186  11.604  1.00  0.00     0.002 C 
BRANCH  42  43
HETATM   43  C4  UNL     1      21.732  27.264  11.711  1.00  0.00     0.028 C 
BRANCH  43  44
HETATM   44  C3  UNL     1      20.495  27.852  11.071  1.00  0.00     0.237 C 
BRANCH  44  45
HETATM   45  N1  UNL     1      19.514  26.841  10.736  1.00  0.00    -0.067 N 
HETATM   46  C27 UNL     1      20.210  25.721  10.147  1.00  0.00     0.237 C 
HETATM   47  C28 UNL     1      19.925  25.718   8.683  1.00  0.00     0.029 C 
HETATM   48  C29 UNL     1      18.801  26.672   8.462  1.00  0.00     0.029 C 
HETATM   49  C30 UNL     1      18.615  27.375   9.764  1.00  0.00     0.237 C 
BRANCH  45  50
HETATM   50  C2  UNL     1      18.734  26.442  11.893  1.00  0.00     0.233 C 
HETATM   51  C1  UNL     1      18.368  24.965  11.813  1.00  0.00     0.035 C 
ENDBRANCH  45  50
ENDBRANCH  44  45
ENDBRANCH  43  44
ENDBRANCH  42  43
ENDBRANCH  41  42
ENDBRANCH  40  41
ENDBRANCH   1  40
TORSDOF 12
ENDMDL
MODEL 2
REMARK VINA RESULT: -9.047544365      1.499      2.595
REMARK  12 active torsions:
REMARK  status: ('A' for Active; 'I' for Inactive)
REMARK    1  A    between atoms: C2_2  and  N1_3 
REMARK    2  A    between atoms: N1_3  and  C3_4 
REMARK    3  A    between atoms: C3_4  and  C4_5 
REMARK    4  A    between atoms: C4_5  and  C5_6 
REMARK    5  A    between atoms: C5_6  and  C6_7 
REMARK    6  A    between atoms: C6_7  and  C7_8 
REMARK    7  A    between atoms: C7_8  and  C8_9 
REMARK    8  A    between atoms: C12_16  and  C13_17 
REMARK    9  A    between atoms: C13_17  and  C14_18 
REMARK   10  A    between atoms: C14_18  and  C15_19 
REMARK       I    between atoms: C15_19  and  N3_21 
REMARK   11  A    between atoms: N3_21  and  C16_23 
REMARK   12  A    between atoms: C20_34  and  N7_35 
ROOT
HETATM    1  C8  UNL     1      21.902  30.509  12.956  1.00  0.00     0.084 C 
HETATM    2  C9  UNL     1      22.536  31.761  13.425  1.00  0.00     0.034 C 
HETATM    3  C10 UNL     1      23.020  31.833  14.826  1.00  0.00     0.105 C 
HETATM    4  C11 UNL     1      23.003  33.269  15.229  1.00  0.00     0.223 C 
HETATM    5  O1  UNL     1      23.366  33.992  14.226  1.00  0.00    -0.273 OA
HETATM    6  N2  UNL     1      22.672  33.859  16.458  1.00  0.00    -0.317 N 
ATOM      7  H2  UNL     1      23.498  34.273  16.888  1.00  0.00     0.170 HD
HETATM    8  C12 UNL     1      21.566  34.047  17.259  1.00  0.00     0.086 C 
HETATM    9  N6  UNL     1      20.427  33.211  17.340  1.00  0.00    -0.315 N 
ATOM     10  H6  UNL     1      19.873  33.453  18.161  1.00  0.00     0.170 HD
HETATM   11  C19 UNL     1      19.832  32.169  16.657  1.00  0.00     0.246 C 
HETATM   12  O3  UNL     1      19.732  31.010  17.225  1.00  0.00    -0.271 OA
HETATM   13  C20 UNL     1      19.236  32.116  15.290  1.00  0.00     0.190 C 
HETATM   14  C25 UNL     1      19.152  30.679  14.815  1.00  0.00     0.138 C 
HETATM   15  C26 UNL     1      19.372  30.481  13.383  1.00  0.00     0.220 C 
HETATM   16  O5  UNL     1      18.378  30.010  12.713  1.00  0.00    -0.274 OA
HETATM   17  N9  UNL     1      20.517  30.731  12.633  1.00  0.00    -0.356 N 
ATOM     18  H9  UNL     1      20.349  31.135  11.711  1.00  0.00     0.162 HD
ENDROOT
BRANCH   8  19
HETATM   19  C13 UNL     1      21.030  35.466  17.330  1.00  0.00     0.086 C 
BRANCH  19  20
HETATM   20  C14 UNL     1      20.100  35.801  18.415  1.00  0.00     0.111 C 
BRANCH  20  21
HETATM   21  C15 UNL     1      18.682  35.992  18.115  1.00  0.00     0.236 C 
HETATM   22  O2  UNL     1      17.726  35.318  18.563  1.00  0.00    -0.273 OA
HETATM   23  N3  UNL     1      18.333  37.067  17.220  1.00  0.00    -0.160 N 
ATOM     24  H3  UNL     1      18.233  36.861  16.225  1.00  0.00     0.187 HD
BRANCH  23  25
HETATM   25  C16 UNL     1      18.142  38.264  17.615  1.00  0.00     0.684 A 
HETATM   26  N4  UNL     1      18.327  39.386  16.868  1.00  0.00    -0.200 N 
HETATM   27  C17 UNL     1      18.018  40.433  17.649  1.00  0.00     0.123 A 
ATOM     28  H4  UNL     1      18.641  39.424  15.898  1.00  0.00     0.183 HD
HETATM   29  C18 UNL     1      17.641  39.966  18.884  1.00  0.00     0.123 A 
HETATM   30  N5  UNL     1      17.727  38.625  18.832  1.00  0.00    -0.200 N 
ATOM     31  H5  UNL     1      17.510  37.987  19.598  1.00  0.00     0.183 HD
ENDBRANCH  23  25
ENDBRANCH  20  21
ENDBRANCH  19  20
ENDBRANCH   8  19
BRANCH  13  32
HETATM   32  N7  UNL     1      17.860  32.612  15.298  1.00  0.00    -0.320 N 
HETATM   33  C21 UNL     1      16.749  31.704  15.613  1.00  0.00     0.130 C 
HETATM   34  C22 UNL     1      15.548  32.566  15.995  1.00  0.00     0.040 C 
HETATM   35  C23 UNL     1      15.204  33.454  14.791  1.00  0.00     0.126 C 
HETATM   36  N8  UNL     1      16.297  34.378  14.595  1.00  0.00    -0.343 N 
HETATM   37  C24 UNL     1      17.620  33.980  15.003  1.00  0.00     0.319 C 
ATOM     38  H8  UNL     1      16.135  35.294  14.176  1.00  0.00     0.164 HD
HETATM   39  O4  UNL     1      18.548  34.844  15.095  1.00  0.00    -0.247 OA
ENDBRANCH  13  32
BRANCH   1  40
HETATM   40  C7  UNL     1      22.215  29.307  13.768  1.00  0.00     0.025 C 
BRANCH  40  41
HETATM   41  C6  UNL     1      22.508  28.078  12.971  1.00  0.00     0.002 C 
BRANCH  41  42
HETATM   42  C5  UNL     1      21.465  27.729  11.965  1.00  0.00     0.002 C 
BRANCH  42  43
HETATM   43  C4  UNL     1      21.932  26.901  10.813  1.00  0.00     0.028 C 
BRANCH  43  44
HETATM   44  C3  UNL     1      23.060  25.975  11.211  1.00  0.00     0.237 C 
BRANCH  44  45
HETATM   45  N1  UNL     1      24.255  26.193  10.425  1.00  0.00    -0.067 N 
HETATM   46  C27 UNL     1      25.380  26.256  11.330  1.00  0.00     0.237 C 
HETATM   47  C28 UNL     1      25.823  27.677  11.416  1.00  0.00     0.029 C 
HETATM   48  C29 UNL     1      25.141  28.409  10.312  1.00  0.00     0.029 C 
HETATM   49  C30 UNL     1      24.144  27.449   9.756  1.00  0.00     0.237 C 
BRANCH  45  50
HETATM   50  C2  UNL     1      24.433  25.165   9.416  1.00  0.00     0.233 C 
HETATM   51  C1  UNL     1      24.365  25.765   8.016  1.00  0.00     0.035 C 
ENDBRANCH  45  50
ENDBRANCH  44  45
ENDBRANCH  43  44
ENDBRANCH  42  43
ENDBRANCH  41  42
ENDBRANCH  40  41
ENDBRANCH   1  40
TORSDOF 12
ENDMDL
MODEL 3
REMARK VINA RESULT: -9.040159863      0.448      1.282
REMARK  12 active torsions:
REMARK  status: ('A' for Active; 'I' for Inactive)
REMARK    1  A    between atoms: C2_2  and  N1_3 
REMARK    2  A    between atoms: N1_3  and  C3_4 
REMARK    3  A    between atoms: C3_4  and  C4_5 
REMARK    4  A    between atoms: C4_5  and  C5_6 
REMARK    5  A    between atoms: C5_6  and  C6_7 
REMARK    6  A    between atoms: C6_7  and  C7_8 
REMARK    7  A    between atoms: C7_8  and  C8_9 
REMARK    8  A    between atoms: C12_16  and  C13_17 
REMARK    9  A    between atoms: C13_17  and  C14_18 
REMARK   10  A    between atoms: C14_18  and  C15_19 
REMARK       I    between atoms: C15_19  and  N3_21 
REMARK   11  A    between atoms: N3_21  and  C16_23 
REMARK   12  A    between atoms: C20_34  and  N7_35 
ROOT
HETATM    1  C8  UNL     1      22.223  30.881  12.895  1.00  0.00     0.084 C 
HETATM    2  C9  UNL     1      22.759  32.142  13.455  1.00  0.00     0.034 C 
HETATM    3  C10 UNL     1      23.193  32.163  14.875  1.00  0.00     0.105 C 
HETATM    4  C11 UNL     1      23.070  33.569  15.357  1.00  0.00     0.223 C 
HETATM    5  O1  UNL     1      23.416  34.371  14.409  1.00  0.00    -0.273 OA
HETATM    6  N2  UNL     1      22.663  34.063  16.604  1.00  0.00    -0.317 N 
ATOM      7  H2  UNL     1      23.446  34.504  17.086  1.00  0.00     0.170 HD
HETATM    8  C12 UNL     1      21.523  34.134  17.376  1.00  0.00     0.086 C 
HETATM    9  N6  UNL     1      20.439  33.224  17.370  1.00  0.00    -0.315 N 
ATOM     10  H6  UNL     1      19.845  33.382  18.184  1.00  0.00     0.170 HD
HETATM   11  C19 UNL     1      19.934  32.188  16.609  1.00  0.00     0.246 C 
HETATM   12  O3  UNL     1      19.893  30.993  17.107  1.00  0.00    -0.271 OA
HETATM   13  C20 UNL     1      19.386  32.177  15.222  1.00  0.00     0.190 C 
HETATM   14  C25 UNL     1      19.412  30.768  14.664  1.00  0.00     0.138 C 
HETATM   15  C26 UNL     1      19.688  30.668  13.232  1.00  0.00     0.220 C 
HETATM   16  O5  UNL     1      18.749  30.175  12.502  1.00  0.00    -0.274 OA
HETATM   17  N9  UNL     1      20.837  31.034  12.537  1.00  0.00    -0.356 N 
ATOM     18  H9  UNL     1      20.671  31.479  11.634  1.00  0.00     0.162 HD
ENDROOT
BRANCH   8  19
HETATM   19  C13 UNL     1      20.893  35.510  17.508  1.00  0.00     0.086 C 
BRANCH  19  20
HETATM   20  C14 UNL     1      19.892  35.714  18.562  1.00  0.00     0.111 C 
BRANCH  20  21
HETATM   21  C15 UNL     1      18.509  36.011  18.194  1.00  0.00     0.236 C 
HETATM   22  O2  UNL     1      17.483  35.424  18.609  1.00  0.00    -0.273 OA
HETATM   23  N3  UNL     1      18.287  37.091  17.265  1.00  0.00    -0.160 N 
ATOM     24  H3  UNL     1      18.215  36.872  16.271  1.00  0.00     0.187 HD
BRANCH  23  25
HETATM   25  C16 UNL     1      18.175  38.307  17.630  1.00  0.00     0.684 A 
HETATM   26  N4  UNL     1      18.508  39.394  16.883  1.00  0.00    -0.200 N 
HETATM   27  C17 UNL     1      18.240  40.479  17.625  1.00  0.00     0.123 A 
ATOM     28  H4  UNL     1      18.889  39.386  15.936  1.00  0.00     0.183 HD
HETATM   29  C18 UNL     1      17.740  40.070  18.838  1.00  0.00     0.123 A 
HETATM   30  N5  UNL     1      17.712  38.726  18.810  1.00  0.00    -0.200 N 
ATOM     31  H5  UNL     1      17.389  38.124  19.568  1.00  0.00     0.183 HD
ENDBRANCH  23  25
ENDBRANCH  20  21
ENDBRANCH  19  20
ENDBRANCH   8  19
BRANCH  13  32
HETATM   32  N7  UNL     1      17.981  32.583  15.210  1.00  0.00    -0.320 N 
HETATM   33  C21 UNL     1      16.924  31.596  15.464  1.00  0.00     0.130 C 
HETATM   34  C22 UNL     1      15.661  32.365  15.843  1.00  0.00     0.040 C 
HETATM   35  C23 UNL     1      15.289  33.271  14.661  1.00  0.00     0.126 C 
HETATM   36  N8  UNL     1      16.324  34.269  14.526  1.00  0.00    -0.343 N 
HETATM   37  C24 UNL     1      17.660  33.942  14.955  1.00  0.00     0.319 C 
ATOM     38  H8  UNL     1      16.113  35.187  14.133  1.00  0.00     0.164 HD
HETATM   39  O4  UNL     1      18.528  34.860  15.100  1.00  0.00    -0.247 OA
ENDBRANCH  13  32
BRANCH   1  40
HETATM   40  C7  UNL     1      22.589  29.656  13.649  1.00  0.00     0.025 C 
BRANCH  40  41
HETATM   41  C6  UNL     1      23.603  28.793  12.974  1.00  0.00     0.002 C 
BRANCH  41  42
HETATM   42  C5  UNL     1      23.193  28.286  11.634  1.00  0.00     0.002 C 
BRANCH  42  43
HETATM   43  C4  UNL     1      22.335  27.064  11.641  1.00  0.00     0.028 C 
BRANCH  43  44
HETATM   44  C3  UNL     1      20.897  27.388  11.301  1.00  0.00     0.237 C 
BRANCH  44  45
HETATM   45  N1  UNL     1      20.281  26.365  10.482  1.00  0.00    -0.067 N 
HETATM   46  C27 UNL     1      19.222  26.983   9.718  1.00  0.00     0.237 C 
HETATM   47  C28 UNL     1      17.919  26.548  10.299  1.00  0.00     0.029 C 
HETATM   48  C29 UNL     1      18.217  25.419  11.225  1.00  0.00     0.029 C 
HETATM   49  C30 UNL     1      19.703  25.377  11.336  1.00  0.00     0.237 C 
BRANCH  45  50
HETATM   50  C2  UNL     1      21.248  25.704   9.626  1.00  0.00     0.233 C 
HETATM   51  C1  UNL     1      20.621  25.340   8.285  1.00  0.00     0.035 C 
ENDBRANCH  45  50
ENDBRANCH  44  45
ENDBRANCH  43  44
ENDBRANCH  42  43
ENDBRANCH  41  42
ENDBRANCH  40  41
ENDBRANCH   1  40
TORSDOF 12
ENDMDL
MODEL 4
REMARK VINA RESULT: -8.755139100      2.407      9.805
REMARK  12 active torsions:
REMARK  status: ('A' for Active; 'I' for Inactive)
REMARK    1  A    between atoms: C2_2  and  N1_3 
REMARK    2  A    between atoms: N1_3  and  C3_4 
REMARK    3  A    between atoms: C3_4  and  C4_5 
REMARK    4  A    between atoms: C4_5  and  C5_6 
REMARK    5  A    between atoms: C5_6  and  C6_7 
REMARK    6  A    between atoms: C6_7  and  C7_8 
REMARK    7  A    between atoms: C7_8  and  C8_9 
REMARK    8  A    between atoms: C12_16  and  C13_17 
REMARK    9  A    between atoms: C13_17  and  C14_18 
REMARK   10  A    between atoms: C14_18  and  C15_19 
REMARK       I    between atoms: C15_19  and  N3_21 
REMARK   11  A    between atoms: N3_21  and  C16_23 
REMARK   12  A    between atoms: C20_34  and  N7_35 
ROOT
HETATM    1  C8  UNL     1      19.146  33.867  16.980  1.00  0.00     0.084 C 
HETATM    2  C9  UNL     1      20.580  33.502  17.015  1.00  0.00     0.034 C 
HETATM    3  C10 UNL     1      21.467  33.991  15.930  1.00  0.00     0.105 C 
HETATM    4  C11 UNL     1      22.604  33.032  15.819  1.00  0.00     0.223 C 
HETATM    5  O1  UNL     1      22.938  32.636  16.999  1.00  0.00    -0.273 OA
HETATM    6  N2  UNL     1      23.282  32.564  14.685  1.00  0.00    -0.317 N 
ATOM      7  H2  UNL     1      24.240  32.913  14.673  1.00  0.00     0.170 HD
HETATM    8  C12 UNL     1      23.046  31.773  13.581  1.00  0.00     0.086 C 
HETATM    9  N6  UNL     1      21.803  31.573  12.934  1.00  0.00    -0.315 N 
ATOM     10  H6  UNL     1      21.949  31.133  12.025  1.00  0.00     0.170 HD
HETATM   11  C19 UNL     1      20.456  31.787  13.146  1.00  0.00     0.246 C 
HETATM   12  O3  UNL     1      19.813  32.610  12.380  1.00  0.00    -0.271 OA
HETATM   13  C20 UNL     1      19.527  31.211  14.162  1.00  0.00     0.190 C 
HETATM   14  C25 UNL     1      18.300  32.090  14.302  1.00  0.00     0.138 C 
HETATM   15  C26 UNL     1      17.745  32.178  15.651  1.00  0.00     0.220 C 
HETATM   16  O5  UNL     1      16.553  31.715  15.809  1.00  0.00    -0.274 OA
HETATM   17  N9  UNL     1      18.328  32.696  16.804  1.00  0.00    -0.356 N 
ATOM     18  H9  UNL     1      18.148  32.164  17.655  1.00  0.00     0.162 HD
ENDROOT
BRANCH   8  19
HETATM   19  C13 UNL     1      23.726  30.415  13.577  1.00  0.00     0.086 C 
BRANCH  19  20
HETATM   20  C14 UNL     1      22.950  29.254  13.125  1.00  0.00     0.111 C 
BRANCH  20  21
HETATM   21  C15 UNL     1      23.517  28.354  12.123  1.00  0.00     0.236 C 
HETATM   22  O2  UNL     1      24.648  27.816  12.156  1.00  0.00    -0.273 OA
HETATM   23  N3  UNL     1      22.700  28.039  10.977  1.00  0.00    -0.160 N 
ATOM     24  H3  UNL     1      22.806  28.602  10.133  1.00  0.00     0.187 HD
BRANCH  23  25
HETATM   25  C16 UNL     1      21.852  27.087  10.972  1.00  0.00     0.684 A 
HETATM   26  N4  UNL     1      21.774  26.089  11.893  1.00  0.00    -0.200 N 
HETATM   27  C17 UNL     1      20.754  25.297  11.528  1.00  0.00     0.123 A 
ATOM     28  H4  UNL     1      22.376  25.965  12.707  1.00  0.00     0.183 HD
HETATM   29  C18 UNL     1      20.194  25.799  10.379  1.00  0.00     0.123 A 
HETATM   30  N5  UNL     1      20.894  26.903  10.060  1.00  0.00    -0.200 N 
ATOM     31  H5  UNL     1      20.720  27.503   9.254  1.00  0.00     0.183 HD
ENDBRANCH  23  25
ENDBRANCH  20  21
ENDBRANCH  19  20
ENDBRANCH   8  19
BRANCH  13  32
HETATM   32  N7  UNL     1      19.031  29.902  13.737  1.00  0.00    -0.320 N 
HETATM   33  C21 UNL     1      18.152  29.790  12.566  1.00  0.00     0.130 C 
HETATM   34  C22 UNL     1      18.187  28.335  12.106  1.00  0.00     0.040 C 
HETATM   35  C23 UNL     1      17.674  27.464  13.261  1.00  0.00     0.126 C 
HETATM   36  N8  UNL     1      18.629  27.550  14.341  1.00  0.00    -0.343 N 
HETATM   37  C24 UNL     1      19.418  28.750  14.470  1.00  0.00     0.319 C 
ATOM     38  H8  UNL     1      18.742  26.779  14.998  1.00  0.00     0.164 HD
HETATM   39  O4  UNL     1      20.439  28.764  15.227  1.00  0.00    -0.247 OA
ENDBRANCH  13  32
BRANCH   1  40
HETATM   40  C7  UNL     1      18.821  35.044  16.136  1.00  0.00     0.025 C 
BRANCH  40  41
HETATM   41  C6  UNL     1      17.895  36.027  16.773  1.00  0.00     0.002 C 
BRANCH  41  42
HETATM   42  C5  UNL     1      18.321  36.496  18.122  1.00  0.00     0.002 C 
BRANCH  42  43
HETATM   43  C4  UNL     1      19.066  37.790  18.149  1.00  0.00     0.028 C 
BRANCH  43  44
HETATM   44  C3  UNL     1      20.554  37.576  18.317  1.00  0.00     0.237 C 
BRANCH  44  45
HETATM   45  N1  UNL     1      21.334  38.400  17.418  1.00  0.00    -0.067 N 
HETATM   46  C27 UNL     1      21.906  37.540  16.407  1.00  0.00     0.237 C 
HETATM   47  C28 UNL     1      23.364  37.402  16.688  1.00  0.00     0.029 C 
HETATM   48  C29 UNL     1      23.707  38.441  17.701  1.00  0.00     0.029 C 
HETATM   49  C30 UNL     1      22.401  39.001  18.153  1.00  0.00     0.237 C 
BRANCH  45  50
HETATM   50  C2  UNL     1      20.539  39.464  16.835  1.00  0.00     0.233 C 
HETATM   51  C1  UNL     1      21.130  39.909  15.501  1.00  0.00     0.035 C 
ENDBRANCH  45  50
ENDBRANCH  44  45
ENDBRANCH  43  44
ENDBRANCH  42  43
ENDBRANCH  41  42
ENDBRANCH  40  41
ENDBRANCH   1  40
TORSDOF 12
ENDMDL
MODEL 5
REMARK VINA RESULT: -8.701875071      1.309      1.843
REMARK  12 active torsions:
REMARK  status: ('A' for Active; 'I' for Inactive)
REMARK    1  A    between atoms: C2_2  and  N1_3 
REMARK    2  A    between atoms: N1_3  and  C3_4 
REMARK    3  A    between atoms: C3_4  and  C4_5 
REMARK    4  A    between atoms: C4_5  and  C5_6 
REMARK    5  A    between atoms: C5_6  and  C6_7 
REMARK    6  A    between atoms: C6_7  and  C7_8 
REMARK    7  A    between atoms: C7_8  and  C8_9 
REMARK    8  A    between atoms: C12_16  and  C13_17 
REMARK    9  A    between atoms: C13_17  and  C14_18 
REMARK   10  A    between atoms: C14_18  and  C15_19 
REMARK       I    between atoms: C15_19  and  N3_21 
REMARK   11  A    between atoms: N3_21  and  C16_23 
REMARK   12  A    between atoms: C20_34  and  N7_35 
ROOT
HETATM    1  C8  UNL     1      21.581  30.578  12.648  1.00  0.00     0.084 C 
HETATM    2  C9  UNL     1      22.437  31.668  13.166  1.00  0.00     0.034 C 
HETATM    3  C10 UNL     1      23.053  31.515  14.507  1.00  0.00     0.105 C 
HETATM    4  C11 UNL     1      23.290  32.884  15.048  1.00  0.00     0.223 C 
HETATM    5  O1  UNL     1      23.664  33.657  14.086  1.00  0.00    -0.273 OA
HETATM    6  N2  UNL     1      23.166  33.373  16.356  1.00  0.00    -0.317 N 
ATOM      7  H2  UNL     1      24.082  33.617  16.733  1.00  0.00     0.170 HD
HETATM    8  C12 UNL     1      22.180  33.624  17.286  1.00  0.00     0.086 C 
HETATM    9  N6  UNL     1      20.941  32.952  17.407  1.00  0.00    -0.315 N 
ATOM     10  H6  UNL     1      20.507  33.177  18.302  1.00  0.00     0.170 HD
HETATM   11  C19 UNL     1      20.134  32.088  16.694  1.00  0.00     0.246 C 
HETATM   12  O3  UNL     1      19.913  30.897  17.154  1.00  0.00    -0.271 OA
HETATM   13  C20 UNL     1      19.414  32.272  15.401  1.00  0.00     0.190 C 
HETATM   14  C25 UNL     1      19.071  30.923  14.799  1.00  0.00     0.138 C 
HETATM   15  C26 UNL     1      19.126  30.858  13.340  1.00  0.00     0.220 C 
HETATM   16  O5  UNL     1      18.015  30.610  12.738  1.00  0.00    -0.274 OA
HETATM   17  N9  UNL     1      20.221  31.027  12.499  1.00  0.00    -0.356 N 
ATOM     18  H9  UNL     1      20.031  31.551  11.644  1.00  0.00     0.162 HD
ENDROOT
BRANCH   8  19
HETATM   19  C13 UNL     1      21.874  35.088  17.552  1.00  0.00     0.086 C 
BRANCH  19  20
HETATM   20  C14 UNL     1      22.409  36.087  16.620  1.00  0.00     0.111 C 
BRANCH  20  21
HETATM   21  C15 UNL     1      22.179  37.508  16.877  1.00  0.00     0.236 C 
HETATM   22  O2  UNL     1      22.649  38.470  16.226  1.00  0.00    -0.273 OA
HETATM   23  N3  UNL     1      21.320  37.852  17.983  1.00  0.00    -0.160 N 
ATOM     24  H3  UNL     1      21.746  38.038  18.891  1.00  0.00     0.187 HD
BRANCH  23  25
HETATM   25  C16 UNL     1      20.052  37.934  17.876  1.00  0.00     0.684 A 
HETATM   26  N4  UNL     1      19.378  38.782  17.053  1.00  0.00    -0.200 N 
HETATM   27  C17 UNL     1      18.070  38.555  17.241  1.00  0.00     0.123 A 
ATOM     28  H4  UNL     1      19.790  39.463  16.414  1.00  0.00     0.183 HD
HETATM   29  C18 UNL     1      17.924  37.565  18.182  1.00  0.00     0.123 A 
HETATM   30  N5  UNL     1      19.165  37.202  18.555  1.00  0.00    -0.200 N 
ATOM     31  H5  UNL     1      19.391  36.485  19.243  1.00  0.00     0.183 HD
ENDBRANCH  23  25
ENDBRANCH  20  21
ENDBRANCH  19  20
ENDBRANCH   8  19
BRANCH  13  32
HETATM   32  N7  UNL     1      18.135  32.952  15.605  1.00  0.00    -0.320 N 
HETATM   33  C21 UNL     1      16.889  32.179  15.665  1.00  0.00     0.130 C 
HETATM   34  C22 UNL     1      15.835  33.061  16.331  1.00  0.00     0.040 C 
HETATM   35  C23 UNL     1      15.658  34.316  15.466  1.00  0.00     0.126 C 
HETATM   36  N8  UNL     1      16.887  35.072  15.523  1.00  0.00    -0.343 N 
HETATM   37  C24 UNL     1      18.123  34.364  15.747  1.00  0.00     0.319 C 
ATOM     38  H8  UNL     1      16.881  36.085  15.408  1.00  0.00     0.164 HD
HETATM   39  O4  UNL     1      19.175  35.002  16.066  1.00  0.00    -0.247 OA
ENDBRANCH  13  32
BRANCH   1  40
HETATM   40  C7  UNL     1      21.782  29.261  13.301  1.00  0.00     0.025 C 
BRANCH  40  41
HETATM   41  C6  UNL     1      22.874  28.433  12.706  1.00  0.00     0.002 C 
BRANCH  41  42
HETATM   42  C5  UNL     1      22.406  27.217  11.983  1.00  0.00     0.002 C 
BRANCH  42  43
HETATM   43  C4  UNL     1      21.187  27.397  11.139  1.00  0.00     0.028 C 
BRANCH  43  44
HETATM   44  C3  UNL     1      20.397  26.113  11.014  1.00  0.00     0.237 C 
BRANCH  44  45
HETATM   45  N1  UNL     1      18.969  26.343  11.009  1.00  0.00    -0.067 N 
HETATM   46  C27 UNL     1      18.397  25.578   9.925  1.00  0.00     0.237 C 
HETATM   47  C28 UNL     1      18.014  26.526   8.841  1.00  0.00     0.029 C 
HETATM   48  C29 UNL     1      18.083  27.896   9.424  1.00  0.00     0.029 C 
HETATM   49  C30 UNL     1      18.725  27.728  10.759  1.00  0.00     0.237 C 
BRANCH  45  50
HETATM   50  C2  UNL     1      18.363  26.008  12.284  1.00  0.00     0.233 C 
HETATM   51  C1  UNL     1      18.010  27.270  13.063  1.00  0.00     0.035 C 
ENDBRANCH  45  50
ENDBRANCH  44  45
ENDBRANCH  43  44
ENDBRANCH  42  43
ENDBRANCH  41  42
ENDBRANCH  40  41
ENDBRANCH   1  40
TORSDOF 12
ENDMDL
