MODEL 1
REMARK VINA RESULT: -5.616729681      0.000      0.000
REMARK  12 active torsions:
REMARK  status: ('A' for Active; 'I' for Inactive)
REMARK    1  A    between atoms: C3_3  and  N1_4 
REMARK       I    between atoms: N1_4  and  C4_6 
REMARK       I    between atoms: C4_6  and  N3_10 
REMARK    2  A    between atoms: N4_18  and  C13_20 
REMARK    3  A    between atoms: C13_20  and  C14_21 
REMARK    4  A    between atoms: C17_26  and  C18_27 
REMARK    5  A    between atoms: C18_27  and  C19_28 
REMARK    6  A    between atoms: C21_35  and  C22_36 
REMARK    7  A    between atoms: C22_36  and  C23_37 
REMARK    8  A    between atoms: C23_37  and  C24_38 
REMARK    9  A    between atoms: C24_38  and  C25_39 
REMARK   10  A    between atoms: C25_39  and  C26_40 
REMARK   11  A    between atoms: C26_40  and  C27_41 
REMARK   12  A    between atoms: C27_41  and  C28_42 
ROOT
HETATM    1  C1  UNL     1      22.570  40.224  11.019  1.00  0.00     0.014 C 
HETATM    2  C2  UNL     1      23.683  40.658  11.209  1.00  0.00    -0.097 C 
HETATM    3  C3  UNL     1      25.034  41.172  11.436  1.00  0.00     0.231 C 
ENDROOT
BRANCH   3   4
HETATM    4  N1  UNL     1      24.982  42.515  11.976  1.00  0.00    -0.216 N 
HETATM    5  C4  UNL     1      24.130  42.894  13.035  1.00  0.00     0.670 C 
HETATM    6  N2  UNL     1      23.165  43.712  12.746  1.00  0.00    -0.235 N 
HETATM    7  N3  UNL     1      24.268  42.443  14.368  1.00  0.00    -0.217 N 
ATOM      8  H22 UNL     1      23.066  44.037  11.785  1.00  0.00     0.174 HD
ATOM      9  H21 UNL     1      22.550  43.986  13.511  1.00  0.00     0.174 HD
HETATM   10  C5  UNL     1      25.569  42.093  14.862  1.00  0.00     0.141 C 
HETATM   11  C31 UNL     1      23.078  42.355  15.181  1.00  0.00     0.161 C 
HETATM   12  C6  UNL     1      26.329  43.237  15.483  1.00  0.00     0.020 C 
HETATM   13  C7  UNL     1      27.264  42.769  16.543  1.00  0.00     0.002 C 
HETATM   14  C8  UNL     1      26.642  41.985  17.660  1.00  0.00     0.000 C 
HETATM   15  C9  UNL     1      25.611  42.832  18.314  1.00  0.00     0.002 C 
HETATM   16  C10 UNL     1      24.761  42.119  19.352  1.00  0.00     0.028 C 
HETATM   17  C11 UNL     1      23.615  41.349  18.806  1.00  0.00     0.241 C 
HETATM   18  N4  UNL     1      22.312  41.962  18.803  1.00  0.00    -0.033 N 
HETATM   19  C12 UNL     1      21.653  41.363  19.978  1.00  0.00     0.277 C 
HETATM   20  C16 UNL     1      21.527  41.633  17.598  1.00  0.00     0.394 C 
HETATM   21  N5  UNL     1      20.170  41.429  17.969  1.00  0.00    -0.366 N 
HETATM   22  N9  UNL     1      22.028  40.658  16.707  1.00  0.00    -0.301 N 
HETATM   23  C17 UNL     1      19.240  41.171  16.894  1.00  0.00     0.181 C 
ATOM     24  H5  UNL     1      19.868  41.462  18.943  1.00  0.00     0.157 HD
HETATM   25  C20 UNL     1      18.972  39.696  16.901  1.00  0.00     0.245 C 
HETATM   26  O2  UNL     1      17.741  39.490  16.726  1.00  0.00    -0.271 OA
HETATM   27  N7  UNL     1      19.680  38.472  17.042  1.00  0.00    -0.324 N 
HETATM   28  C21 UNL     1      21.047  38.075  16.865  1.00  0.00     0.080 C 
ATOM     29  H7  UNL     1      19.081  37.701  17.336  1.00  0.00     0.169 HD
HETATM   30  C29 UNL     1      21.961  39.222  16.627  1.00  0.00     0.269 C 
HETATM   31  O4  UNL     1      23.063  38.781  16.205  1.00  0.00    -0.266 OA
HETATM   32  C30 UNL     1      22.802  40.955  15.487  1.00  0.00     0.150 C 
ATOM     33  H1  UNL     1      25.593  43.223  11.570  1.00  0.00     0.178 HD
BRANCH  18  34
HETATM   34  C13 UNL     1      22.270  43.367  18.957  1.00  0.00     0.241 C 
BRANCH  34  35
HETATM   35  C14 UNL     1      21.693  44.030  20.135  1.00  0.00     0.024 C 
HETATM   36  C15 UNL     1      22.601  44.846  21.008  1.00  0.00     0.007 C 
ENDBRANCH  34  35
ENDBRANCH  18  34
BRANCH  23  37
HETATM   37  C18 UNL     1      17.923  41.818  17.265  1.00  0.00     0.134 C 
BRANCH  37  38
HETATM   38  C19 UNL     1      17.889  42.469  18.572  1.00  0.00     0.233 C 
HETATM   39  N6  UNL     1      18.199  43.842  18.689  1.00  0.00    -0.062 NA
HETATM   40  O1  UNL     1      17.589  41.832  19.598  1.00  0.00    -0.277 OA
ENDBRANCH  37  38
ENDBRANCH  23  37
BRANCH  28  41
HETATM   41  C22 UNL     1      21.583  37.028  17.761  1.00  0.00     0.063 C 
BRANCH  41  42
HETATM   42  C23 UNL     1      21.741  35.653  17.311  1.00  0.00     0.006 C 
BRANCH  42  43
HETATM   43  C24 UNL     1      21.558  35.260  15.917  1.00  0.00     0.000 C 
BRANCH  43  44
HETATM   44  C25 UNL     1      20.452  34.301  15.592  1.00  0.00     0.000 C 
BRANCH  44  45
HETATM   45  C26 UNL     1      19.546  34.046  16.771  1.00  0.00     0.009 C 
BRANCH  45  46
HETATM   46  C27 UNL     1      18.169  34.629  16.603  1.00  0.00     0.099 C 
BRANCH  46  47
HETATM   47  C28 UNL     1      17.620  35.285  17.789  1.00  0.00     0.231 C 
HETATM   48  N8  UNL     1      16.281  35.053  18.171  1.00  0.00    -0.062 NA
HETATM   49  O3  UNL     1      18.279  36.071  18.517  1.00  0.00    -0.277 OA
ENDBRANCH  46  47
ENDBRANCH  45  46
ENDBRANCH  44  45
ENDBRANCH  43  44
ENDBRANCH  42  43
ENDBRANCH  41  42
ENDBRANCH  28  41
ENDBRANCH   3   4
TORSDOF 12
ENDMDL
MODEL 2
REMARK VINA RESULT: -5.521927842      2.449      7.772
REMARK  12 active torsions:
REMARK  status: ('A' for Active; 'I' for Inactive)
REMARK    1  A    between atoms: C3_3  and  N1_4 
REMARK       I    between atoms: N1_4  and  C4_6 
REMARK       I    between atoms: C4_6  and  N3_10 
REMARK    2  A    between atoms: N4_18  and  C13_20 
REMARK    3  A    between atoms: C13_20  and  C14_21 
REMARK    4  A    between atoms: C17_26  and  C18_27 
REMARK    5  A    between atoms: C18_27  and  C19_28 
REMARK    6  A    between atoms: C21_35  and  C22_36 
REMARK    7  A    between atoms: C22_36  and  C23_37 
REMARK    8  A    between atoms: C23_37  and  C24_38 
REMARK    9  A    between atoms: C24_38  and  C25_39 
REMARK   10  A    between atoms: C25_39  and  C26_40 
REMARK   11  A    between atoms: C26_40  and  C27_41 
REMARK   12  A    between atoms: C27_41  and  C28_42 
ROOT
HETATM    1  C1  UNL     1      23.605  35.263  15.043  1.00  0.00     0.014 C 
HETATM    2  C2  UNL     1      22.669  34.587  15.409  1.00  0.00    -0.097 C 
HETATM    3  C3  UNL     1      21.536  33.767  15.839  1.00  0.00     0.231 C 
ENDROOT
BRANCH   3   4
HETATM    4  N1  UNL     1      21.225  34.024  17.230  1.00  0.00    -0.216 N 
HETATM    5  C4  UNL     1      21.553  35.226  17.891  1.00  0.00     0.670 C 
HETATM    6  N2  UNL     1      22.456  35.156  18.820  1.00  0.00    -0.235 N 
HETATM    7  N3  UNL     1      20.962  36.478  17.605  1.00  0.00    -0.217 N 
ATOM      8  H22 UNL     1      22.883  34.253  19.027  1.00  0.00     0.174 HD
ATOM      9  H21 UNL     1      22.693  36.025  19.298  1.00  0.00     0.174 HD
HETATM   10  C5  UNL     1      19.619  36.524  17.101  1.00  0.00     0.141 C 
HETATM   11  C31 UNL     1      21.746  37.668  17.838  1.00  0.00     0.161 C 
HETATM   12  C6  UNL     1      18.555  36.598  18.166  1.00  0.00     0.020 C 
HETATM   13  C7  UNL     1      17.342  37.316  17.687  1.00  0.00     0.002 C 
HETATM   14  C8  UNL     1      17.567  38.709  17.181  1.00  0.00     0.000 C 
HETATM   15  C9  UNL     1      18.163  39.519  18.276  1.00  0.00     0.002 C 
HETATM   16  C10 UNL     1      18.620  40.910  17.868  1.00  0.00     0.028 C 
HETATM   17  C11 UNL     1      19.966  40.972  17.246  1.00  0.00     0.241 C 
HETATM   18  N4  UNL     1      21.092  41.325  18.072  1.00  0.00    -0.033 N 
HETATM   19  C12 UNL     1      21.308  42.750  17.761  1.00  0.00     0.277 C 
HETATM   20  C16 UNL     1      22.313  40.573  17.729  1.00  0.00     0.394 C 
HETATM   21  N5  UNL     1      23.435  41.441  17.818  1.00  0.00    -0.366 N 
HETATM   22  N9  UNL     1      22.308  39.764  16.571  1.00  0.00    -0.301 N 
HETATM   23  C17 UNL     1      24.730  40.846  17.586  1.00  0.00     0.181 C 
ATOM     24  H5  UNL     1      23.330  42.433  18.034  1.00  0.00     0.157 HD
HETATM   25  C20 UNL     1      25.139  41.230  16.196  1.00  0.00     0.245 C 
HETATM   26  O2  UNL     1      26.356  41.555  16.188  1.00  0.00    -0.271 OA
HETATM   27  N7  UNL     1      24.573  41.336  14.896  1.00  0.00    -0.324 N 
HETATM   28  C21 UNL     1      23.434  40.754  14.245  1.00  0.00     0.080 C 
ATOM     29  H7  UNL     1      25.094  41.967  14.289  1.00  0.00     0.169 HD
HETATM   30  C29 UNL     1      22.562  39.988  15.171  1.00  0.00     0.269 C 
HETATM   31  O4  UNL     1      21.765  39.287  14.491  1.00  0.00    -0.266 OA
HETATM   32  C30 UNL     1      22.038  38.313  16.561  1.00  0.00     0.150 C 
ATOM     33  H1  UNL     1      20.744  33.297  17.760  1.00  0.00     0.178 HD
BRANCH  18  34
HETATM   34  C13 UNL     1      20.913  41.214  19.471  1.00  0.00     0.241 C 
BRANCH  34  35
HETATM   35  C14 UNL     1      20.921  42.370  20.377  1.00  0.00     0.024 C 
HETATM   36  C15 UNL     1      19.747  42.565  21.292  1.00  0.00     0.007 C 
ENDBRANCH  34  35
ENDBRANCH  18  34
BRANCH  23  37
HETATM   37  C18 UNL     1      25.720  41.538  18.498  1.00  0.00     0.134 C 
BRANCH  37  38
HETATM   38  C19 UNL     1      25.730  41.073  19.883  1.00  0.00     0.233 C 
HETATM   39  N6  UNL     1      24.538  41.080  20.643  1.00  0.00    -0.062 NA
HETATM   40  O1  UNL     1      26.778  40.665  20.415  1.00  0.00    -0.277 OA
ENDBRANCH  37  38
ENDBRANCH  23  37
BRANCH  28  41
HETATM   41  C22 UNL     1      22.715  41.577  13.250  1.00  0.00     0.063 C 
BRANCH  41  42
HETATM   42  C23 UNL     1      23.061  41.532  11.837  1.00  0.00     0.006 C 
BRANCH  42  43
HETATM   43  C24 UNL     1      22.792  40.366  11.001  1.00  0.00     0.000 C 
BRANCH  43  44
HETATM   44  C25 UNL     1      23.837  39.949  10.010  1.00  0.00     0.000 C 
BRANCH  44  45
HETATM   45  C26 UNL     1      25.036  40.865  10.018  1.00  0.00     0.009 C 
BRANCH  45  46
HETATM   46  C27 UNL     1      26.342  40.138  10.186  1.00  0.00     0.099 C 
BRANCH  46  47
HETATM   47  C28 UNL     1      27.166  40.584  11.310  1.00  0.00     0.231 C 
HETATM   48  N8  UNL     1      26.603  41.381  12.329  1.00  0.00    -0.062 NA
HETATM   49  O3  UNL     1      28.384  40.298  11.433  1.00  0.00    -0.277 OA
ENDBRANCH  46  47
ENDBRANCH  45  46
ENDBRANCH  44  45
ENDBRANCH  43  44
ENDBRANCH  42  43
ENDBRANCH  41  42
ENDBRANCH  28  41
ENDBRANCH   3   4
TORSDOF 12
ENDMDL
MODEL 3
REMARK VINA RESULT: -5.497905320      2.617      7.872
REMARK  12 active torsions:
REMARK  status: ('A' for Active; 'I' for Inactive)
REMARK    1  A    between atoms: C3_3  and  N1_4 
REMARK       I    between atoms: N1_4  and  C4_6 
REMARK       I    between atoms: C4_6  and  N3_10 
REMARK    2  A    between atoms: N4_18  and  C13_20 
REMARK    3  A    between atoms: C13_20  and  C14_21 
REMARK    4  A    between atoms: C17_26  and  C18_27 
REMARK    5  A    between atoms: C18_27  and  C19_28 
REMARK    6  A    between atoms: C21_35  and  C22_36 
REMARK    7  A    between atoms: C22_36  and  C23_37 
REMARK    8  A    between atoms: C23_37  and  C24_38 
REMARK    9  A    between atoms: C24_38  and  C25_39 
REMARK   10  A    between atoms: C25_39  and  C26_40 
REMARK   11  A    between atoms: C26_40  and  C27_41 
REMARK   12  A    between atoms: C27_41  and  C28_42 
ROOT
HETATM    1  C1  UNL     1      23.624  35.207  15.145  1.00  0.00     0.014 C 
HETATM    2  C2  UNL     1      22.966  34.260  15.515  1.00  0.00    -0.097 C 
HETATM    3  C3  UNL     1      22.173  33.110  15.949  1.00  0.00     0.231 C 
ENDROOT
BRANCH   3   4
HETATM    4  N1  UNL     1      21.636  33.336  17.275  1.00  0.00    -0.216 N 
HETATM    5  C4  UNL     1      21.657  34.592  17.917  1.00  0.00     0.670 C 
HETATM    6  N2  UNL     1      22.424  34.705  18.958  1.00  0.00    -0.235 N 
HETATM    7  N3  UNL     1      20.901  35.712  17.500  1.00  0.00    -0.217 N 
ATOM      8  H22 UNL     1      22.969  33.897  19.259  1.00  0.00     0.174 HD
ATOM      9  H21 UNL     1      22.439  35.612  19.422  1.00  0.00     0.174 HD
HETATM   10  C5  UNL     1      19.652  35.507  16.825  1.00  0.00     0.141 C 
HETATM   11  C31 UNL     1      21.428  37.027  17.779  1.00  0.00     0.161 C 
HETATM   12  C6  UNL     1      18.457  35.412  17.738  1.00  0.00     0.020 C 
HETATM   13  C7  UNL     1      17.214  35.892  17.073  1.00  0.00     0.002 C 
HETATM   14  C8  UNL     1      17.260  37.292  16.538  1.00  0.00     0.000 C 
HETATM   15  C9  UNL     1      17.552  38.218  17.663  1.00  0.00     0.002 C 
HETATM   16  C10 UNL     1      17.811  39.659  17.255  1.00  0.00     0.028 C 
HETATM   17  C11 UNL     1      19.197  39.947  16.811  1.00  0.00     0.241 C 
HETATM   18  N4  UNL     1      20.122  40.513  17.760  1.00  0.00    -0.033 N 
HETATM   19  C12 UNL     1      20.127  41.946  17.415  1.00  0.00     0.277 C 
HETATM   20  C16 UNL     1      21.490  39.984  17.612  1.00  0.00     0.394 C 
HETATM   21  N5  UNL     1      22.421  41.040  17.807  1.00  0.00    -0.366 N 
HETATM   22  N9  UNL     1      21.784  39.162  16.501  1.00  0.00    -0.301 N 
HETATM   23  C17 UNL     1      23.820  40.681  17.773  1.00  0.00     0.181 C 
ATOM     24  H5  UNL     1      22.118  42.002  17.962  1.00  0.00     0.157 HD
HETATM   25  C20 UNL     1      24.340  41.101  16.431  1.00  0.00     0.245 C 
HETATM   26  O2  UNL     1      25.472  41.638  16.567  1.00  0.00    -0.271 OA
HETATM   27  N7  UNL     1      23.947  41.076  15.065  1.00  0.00    -0.324 N 
HETATM   28  C21 UNL     1      23.026  40.287  14.299  1.00  0.00     0.080 C 
ATOM     29  H7  UNL     1      24.427  41.777  14.503  1.00  0.00     0.169 HD
HETATM   30  C29 UNL     1      22.182  39.397  15.138  1.00  0.00     0.269 C 
HETATM   31  O4  UNL     1      21.619  38.551  14.392  1.00  0.00    -0.266 OA
HETATM   32  C30 UNL     1      21.774  37.687  16.523  1.00  0.00     0.150 C 
ATOM     33  H1  UNL     1      21.221  32.547  17.770  1.00  0.00     0.178 HD
BRANCH  18  34
HETATM   34  C13 UNL     1      19.776  40.402  19.127  1.00  0.00     0.241 C 
BRANCH  34  35
HETATM   35  C14 UNL     1      19.491  41.563  19.981  1.00  0.00     0.024 C 
HETATM   36  C15 UNL     1      18.172  41.612  20.696  1.00  0.00     0.007 C 
ENDBRANCH  34  35
ENDBRANCH  18  34
BRANCH  23  37
HETATM   37  C18 UNL     1      24.541  41.558  18.773  1.00  0.00     0.134 C 
BRANCH  37  38
HETATM   38  C19 UNL     1      23.734  42.019  19.900  1.00  0.00     0.233 C 
HETATM   39  N6  UNL     1      23.264  41.097  20.861  1.00  0.00    -0.062 NA
HETATM   40  O1  UNL     1      23.448  43.223  20.034  1.00  0.00    -0.277 OA
ENDBRANCH  37  38
ENDBRANCH  23  37
BRANCH  28  41
HETATM   41  C22 UNL     1      22.316  40.946  13.182  1.00  0.00     0.063 C 
BRANCH  41  42
HETATM   42  C23 UNL     1      22.889  40.999  11.846  1.00  0.00     0.006 C 
BRANCH  42  43
HETATM   43  C24 UNL     1      23.974  41.910  11.495  1.00  0.00     0.000 C 
BRANCH  43  44
HETATM   44  C25 UNL     1      25.382  41.403  11.582  1.00  0.00     0.000 C 
BRANCH  44  45
HETATM   45  C26 UNL     1      26.012  41.218  10.223  1.00  0.00     0.009 C 
BRANCH  45  46
HETATM   46  C27 UNL     1      26.207  39.775   9.847  1.00  0.00     0.099 C 
BRANCH  46  47
HETATM   47  C28 UNL     1      25.195  39.222   8.947  1.00  0.00     0.231 C 
HETATM   48  N8  UNL     1      25.567  38.734   7.676  1.00  0.00    -0.062 NA
HETATM   49  O3  UNL     1      23.973  39.150   9.236  1.00  0.00    -0.277 OA
ENDBRANCH  46  47
ENDBRANCH  45  46
ENDBRANCH  44  45
ENDBRANCH  43  44
ENDBRANCH  42  43
ENDBRANCH  41  42
ENDBRANCH  28  41
ENDBRANCH   3   4
TORSDOF 12
ENDMDL
MODEL 4
REMARK VINA RESULT: -5.464115239      2.627      7.856
REMARK  12 active torsions:
REMARK  status: ('A' for Active; 'I' for Inactive)
REMARK    1  A    between atoms: C3_3  and  N1_4 
REMARK       I    between atoms: N1_4  and  C4_6 
REMARK       I    between atoms: C4_6  and  N3_10 
REMARK    2  A    between atoms: N4_18  and  C13_20 
REMARK    3  A    between atoms: C13_20  and  C14_21 
REMARK    4  A    between atoms: C17_26  and  C18_27 
REMARK    5  A    between atoms: C18_27  and  C19_28 
REMARK    6  A    between atoms: C21_35  and  C22_36 
REMARK    7  A    between atoms: C22_36  and  C23_37 
REMARK    8  A    between atoms: C23_37  and  C24_38 
REMARK    9  A    between atoms: C24_38  and  C25_39 
REMARK   10  A    between atoms: C25_39  and  C26_40 
REMARK   11  A    between atoms: C26_40  and  C27_41 
REMARK   12  A    between atoms: C27_41  and  C28_42 
ROOT
HETATM    1  C1  UNL     1      23.688  35.144  15.142  1.00  0.00     0.014 C 
HETATM    2  C2  UNL     1      23.026  34.222  15.564  1.00  0.00    -0.097 C 
HETATM    3  C3  UNL     1      22.227  33.102  16.062  1.00  0.00     0.231 C 
ENDROOT
BRANCH   3   4
HETATM    4  N1  UNL     1      21.731  33.386  17.392  1.00  0.00    -0.216 N 
HETATM    5  C4  UNL     1      21.746  34.673  17.970  1.00  0.00     0.670 C 
HETATM    6  N2  UNL     1      22.546  34.854  18.975  1.00  0.00    -0.235 N 
HETATM    7  N3  UNL     1      20.953  35.755  17.523  1.00  0.00    -0.217 N 
ATOM      8  H22 UNL     1      23.118  34.074  19.298  1.00  0.00     0.174 HD
ATOM      9  H21 UNL     1      22.557  35.784  19.393  1.00  0.00     0.174 HD
HETATM   10  C5  UNL     1      19.686  35.491  16.904  1.00  0.00     0.141 C 
HETATM   11  C31 UNL     1      21.460  37.093  17.716  1.00  0.00     0.161 C 
HETATM   12  C6  UNL     1      18.525  35.419  17.862  1.00  0.00     0.020 C 
HETATM   13  C7  UNL     1      17.250  35.840  17.218  1.00  0.00     0.002 C 
HETATM   14  C8  UNL     1      17.247  37.210  16.611  1.00  0.00     0.000 C 
HETATM   15  C9  UNL     1      17.557  38.199  17.677  1.00  0.00     0.002 C 
HETATM   16  C10 UNL     1      17.771  39.622  17.188  1.00  0.00     0.028 C 
HETATM   17  C11 UNL     1      19.135  39.915  16.681  1.00  0.00     0.241 C 
HETATM   18  N4  UNL     1      20.079  40.547  17.567  1.00  0.00    -0.033 N 
HETATM   19  C12 UNL     1      20.041  41.960  17.150  1.00  0.00     0.277 C 
HETATM   20  C16 UNL     1      21.453  40.038  17.398  1.00  0.00     0.394 C 
HETATM   21  N5  UNL     1      22.366  41.121  17.506  1.00  0.00    -0.366 N 
HETATM   22  N9  UNL     1      21.725  39.166  16.320  1.00  0.00    -0.301 N 
HETATM   23  C17 UNL     1      23.770  40.788  17.441  1.00  0.00     0.181 C 
ATOM     24  H5  UNL     1      22.047  42.083  17.623  1.00  0.00     0.157 HD
HETATM   25  C20 UNL     1      24.236  41.150  16.062  1.00  0.00     0.245 C 
HETATM   26  O2  UNL     1      25.359  41.715  16.130  1.00  0.00    -0.271 OA
HETATM   27  N7  UNL     1      23.796  41.046  14.714  1.00  0.00    -0.324 N 
HETATM   28  C21 UNL     1      22.867  40.201  14.022  1.00  0.00     0.080 C 
ATOM     29  H7  UNL     1      24.242  41.727  14.100  1.00  0.00     0.169 HD
HETATM   30  C29 UNL     1      22.072  39.339  14.933  1.00  0.00     0.269 C 
HETATM   31  O4  UNL     1      21.502  38.444  14.252  1.00  0.00    -0.266 OA
HETATM   32  C30 UNL     1      21.749  37.694  16.417  1.00  0.00     0.150 C 
ATOM     33  H1  UNL     1      21.350  32.615  17.941  1.00  0.00     0.178 HD
BRANCH  18  34
HETATM   34  C13 UNL     1      19.783  40.499  18.949  1.00  0.00     0.241 C 
BRANCH  34  35
HETATM   35  C14 UNL     1      19.383  41.680  19.727  1.00  0.00     0.024 C 
HETATM   36  C15 UNL     1      18.018  41.691  20.350  1.00  0.00     0.007 C 
ENDBRANCH  34  35
ENDBRANCH  18  34
BRANCH  23  37
HETATM   37  C18 UNL     1      24.506  41.730  18.369  1.00  0.00     0.134 C 
BRANCH  37  38
HETATM   38  C19 UNL     1      24.459  41.378  19.787  1.00  0.00     0.233 C 
HETATM   39  N6  UNL     1      23.230  41.033  20.392  1.00  0.00    -0.062 NA
HETATM   40  O1  UNL     1      25.492  41.376  20.481  1.00  0.00    -0.277 OA
ENDBRANCH  37  38
ENDBRANCH  23  37
BRANCH  28  41
HETATM   41  C22 UNL     1      22.105  40.787  12.899  1.00  0.00     0.063 C 
BRANCH  41  42
HETATM   42  C23 UNL     1      22.194  40.239  11.554  1.00  0.00     0.006 C 
BRANCH  42  43
HETATM   43  C24 UNL     1      23.249  40.621  10.620  1.00  0.00     0.000 C 
BRANCH  43  44
HETATM   44  C25 UNL     1      23.980  39.533   9.893  1.00  0.00     0.000 C 
BRANCH  44  45
HETATM   45  C26 UNL     1      25.380  39.941   9.503  1.00  0.00     0.009 C 
BRANCH  45  46
HETATM   46  C27 UNL     1      25.859  41.179  10.212  1.00  0.00     0.099 C 
BRANCH  46  47
HETATM   47  C28 UNL     1      26.673  40.940  11.404  1.00  0.00     0.231 C 
HETATM   48  N8  UNL     1      26.270  41.460  12.653  1.00  0.00    -0.062 NA
HETATM   49  O3  UNL     1      27.745  40.283  11.392  1.00  0.00    -0.277 OA
ENDBRANCH  46  47
ENDBRANCH  45  46
ENDBRANCH  44  45
ENDBRANCH  43  44
ENDBRANCH  42  43
ENDBRANCH  41  42
ENDBRANCH  28  41
ENDBRANCH   3   4
TORSDOF 12
ENDMDL
MODEL 5
REMARK VINA RESULT: -5.460060538      2.643      7.958
REMARK  12 active torsions:
REMARK  status: ('A' for Active; 'I' for Inactive)
REMARK    1  A    between atoms: C3_3  and  N1_4 
REMARK       I    between atoms: N1_4  and  C4_6 
REMARK       I    between atoms: C4_6  and  N3_10 
REMARK    2  A    between atoms: N4_18  and  C13_20 
REMARK    3  A    between atoms: C13_20  and  C14_21 
REMARK    4  A    between atoms: C17_26  and  C18_27 
REMARK    5  A    between atoms: C18_27  and  C19_28 
REMARK    6  A    between atoms: C21_35  and  C22_36 
REMARK    7  A    between atoms: C22_36  and  C23_37 
REMARK    8  A    between atoms: C23_37  and  C24_38 
REMARK    9  A    between atoms: C24_38  and  C25_39 
REMARK   10  A    between atoms: C25_39  and  C26_40 
REMARK   11  A    between atoms: C26_40  and  C27_41 
REMARK   12  A    between atoms: C27_41  and  C28_42 
ROOT
HETATM    1  C1  UNL     1      20.718  32.422  14.283  1.00  0.00     0.014 C 
HETATM    2  C2  UNL     1      21.529  32.780  15.107  1.00  0.00    -0.097 C 
HETATM    3  C3  UNL     1      22.518  33.211  16.095  1.00  0.00     0.231 C 
ENDROOT
BRANCH   3   4
HETATM    4  N1  UNL     1      21.894  33.402  17.388  1.00  0.00    -0.216 N 
HETATM    5  C4  UNL     1      21.806  34.654  18.031  1.00  0.00     0.670 C 
HETATM    6  N2  UNL     1      22.504  34.806  19.114  1.00  0.00    -0.235 N 
HETATM    7  N3  UNL     1      21.014  35.732  17.572  1.00  0.00    -0.217 N 
ATOM      8  H22 UNL     1      23.076  34.030  19.446  1.00  0.00     0.174 HD
ATOM      9  H21 UNL     1      22.441  35.711  19.579  1.00  0.00     0.174 HD
HETATM   10  C5  UNL     1      19.820  35.458  16.825  1.00  0.00     0.141 C 
HETATM   11  C31 UNL     1      21.448  37.073  17.880  1.00  0.00     0.161 C 
HETATM   12  C6  UNL     1      18.581  35.293  17.667  1.00  0.00     0.020 C 
HETATM   13  C7  UNL     1      17.353  35.705  16.932  1.00  0.00     0.002 C 
HETATM   14  C8  UNL     1      17.350  37.106  16.401  1.00  0.00     0.000 C 
HETATM   15  C9  UNL     1      17.524  38.043  17.542  1.00  0.00     0.002 C 
HETATM   16  C10 UNL     1      17.723  39.498  17.150  1.00  0.00     0.028 C 
HETATM   17  C11 UNL     1      19.115  39.866  16.787  1.00  0.00     0.241 C 
HETATM   18  N4  UNL     1      19.950  40.480  17.788  1.00  0.00    -0.033 N 
HETATM   19  C12 UNL     1      19.893  41.912  17.444  1.00  0.00     0.277 C 
HETATM   20  C16 UNL     1      21.352  40.029  17.719  1.00  0.00     0.394 C 
HETATM   21  N5  UNL     1      22.209  41.136  17.968  1.00  0.00    -0.366 N 
HETATM   22  N9  UNL     1      21.755  39.229  16.627  1.00  0.00    -0.301 N 
HETATM   23  C17 UNL     1      23.625  40.856  18.014  1.00  0.00     0.181 C 
ATOM     24  H5  UNL     1      21.843  42.078  18.105  1.00  0.00     0.157 HD
HETATM   25  C20 UNL     1      24.198  41.311  16.705  1.00  0.00     0.245 C 
HETATM   26  O2  UNL     1      25.287  41.910  16.906  1.00  0.00    -0.271 OA
HETATM   27  N7  UNL     1      23.885  41.268  15.319  1.00  0.00    -0.324 N 
HETATM   28  C21 UNL     1      23.056  40.431  14.501  1.00  0.00     0.080 C 
ATOM     29  H7  UNL     1      24.357  41.997  14.785  1.00  0.00     0.169 HD
HETATM   30  C29 UNL     1      22.218  39.492  15.288  1.00  0.00     0.269 C 
HETATM   31  O4  UNL     1      21.748  38.618  14.511  1.00  0.00    -0.266 OA
HETATM   32  C30 UNL     1      21.828  37.756  16.647  1.00  0.00     0.150 C 
ATOM     33  H1  UNL     1      21.496  32.588  17.857  1.00  0.00     0.178 HD
BRANCH  18  34
HETATM   34  C13 UNL     1      19.532  40.344  19.132  1.00  0.00     0.241 C 
BRANCH  34  35
HETATM   35  C14 UNL     1      19.138  41.484  19.971  1.00  0.00     0.024 C 
HETATM   36  C15 UNL     1      17.742  41.513  20.521  1.00  0.00     0.007 C 
ENDBRANCH  34  35
ENDBRANCH  18  34
BRANCH  23  37
HETATM   37  C18 UNL     1      24.237  41.769  19.055  1.00  0.00     0.134 C 
BRANCH  37  38
HETATM   38  C19 UNL     1      23.366  42.116  20.176  1.00  0.00     0.233 C 
HETATM   39  N6  UNL     1      22.981  41.126  21.108  1.00  0.00    -0.062 NA
HETATM   40  O1  UNL     1      22.950  43.279  20.329  1.00  0.00    -0.277 OA
ENDBRANCH  37  38
ENDBRANCH  23  37
BRANCH  28  41
HETATM   41  C22 UNL     1      22.376  41.053  13.345  1.00  0.00     0.063 C 
BRANCH  41  42
HETATM   42  C23 UNL     1      22.971  41.039  12.017  1.00  0.00     0.006 C 
BRANCH  42  43
HETATM   43  C24 UNL     1      23.893  42.075  11.561  1.00  0.00     0.000 C 
BRANCH  43  44
HETATM   44  C25 UNL     1      23.634  42.719  10.232  1.00  0.00     0.000 C 
BRANCH  44  45
HETATM   45  C26 UNL     1      23.014  41.764   9.242  1.00  0.00     0.009 C 
BRANCH  45  46
HETATM   46  C27 UNL     1      24.000  41.204   8.254  1.00  0.00     0.099 C 
BRANCH  46  47
HETATM   47  C28 UNL     1      24.359  39.800   8.458  1.00  0.00     0.231 C 
HETATM   48  N8  UNL     1      25.163  39.130   7.511  1.00  0.00    -0.062 NA
HETATM   49  O3  UNL     1      23.986  39.125   9.451  1.00  0.00    -0.277 OA
ENDBRANCH  46  47
ENDBRANCH  45  46
ENDBRANCH  44  45
ENDBRANCH  43  44
ENDBRANCH  42  43
ENDBRANCH  41  42
ENDBRANCH  28  41
ENDBRANCH   3   4
TORSDOF 12
ENDMDL
