MODEL 1
REMARK VINA RESULT: -6.464512479      0.000      0.000
REMARK  5 active torsions:
REMARK  status: ('A' for Active; 'I' for Inactive)
REMARK    1  A    between atoms: C3_4  and  N2_5 
REMARK    2  A    between atoms: N3_9  and  C7_10 
REMARK    3  A    between atoms: C7_10  and  C8_11 
REMARK    4  A    between atoms: C8_11  and  C9_12 
REMARK    5  A    between atoms: C15_23  and  N5_24 
ROOT
HETATM    1  N1  UNL     1      28.465   4.654   4.019  1.00  0.00    -0.191 NA
HETATM    2  C1  UNL     1      27.362   4.309   3.986  1.00  0.00     0.105 C 
HETATM    3  C2  UNL     1      25.983   3.905   3.965  1.00  0.00     0.117 A 
HETATM    4  C3  UNL     1      25.585   2.595   3.808  1.00  0.00     0.127 A 
HETATM    5  N4  UNL     1      24.259   2.273   3.802  1.00  0.00    -0.348 N 
ATOM      6  H4  UNL     1      23.989   1.297   3.683  1.00  0.00     0.167 HD
HETATM    7  C13 UNL     1      23.298   3.201   3.948  1.00  0.00     0.134 A 
HETATM    8  C14 UNL     1      23.635   4.523   4.109  1.00  0.00     0.159 A 
HETATM    9  F1  UNL     1      22.694   5.513   4.262  1.00  0.00    -0.202 F 
HETATM   10  C15 UNL     1      24.993   4.868   4.115  1.00  0.00     0.091 A 
ENDROOT
BRANCH   4  11
HETATM   11  N2  UNL     1      26.571   1.580   3.650  1.00  0.00    -0.361 N 
HETATM   12  C4  UNL     1      26.809   0.822   4.846  1.00  0.00     0.126 C 
HETATM   13  C5  UNL     1      27.030  -0.647   4.563  1.00  0.00     0.040 C 
HETATM   14  C6  UNL     1      28.112  -0.885   3.555  1.00  0.00     0.128 C 
HETATM   15  N3  UNL     1      28.866   0.323   3.443  1.00  0.00    -0.372 N 
HETATM   16  C11 UNL     1      28.611   1.135   2.338  1.00  0.00     0.083 C 
HETATM   17  C12 UNL     1      27.133   1.514   2.323  1.00  0.00     0.169 C 
BRANCH  15  18
HETATM   18  C7  UNL     1      30.077   0.381   4.130  1.00  0.00     0.068 C 
BRANCH  18  19
HETATM   19  C8  UNL     1      30.443   1.714   4.743  1.00  0.00     0.097 C 
BRANCH  19  20
HETATM   20  C9  UNL     1      31.500   1.629   5.766  1.00  0.00     0.027 C 
HETATM   21 CL1  UNL     1      32.242   3.084   6.384  1.00  0.00    -0.088 Cl
HETATM   22  C10 UNL     1      31.906   0.464   6.241  1.00  0.00     0.104 C 
HETATM   23 CL2  UNL     1      33.187   0.407   7.473  1.00  0.00    -0.096 Cl
ENDBRANCH  19  20
ENDBRANCH  18  19
ENDBRANCH  15  18
ENDBRANCH   4  11
BRANCH  10  24
HETATM   24  N5  UNL     1      25.348   6.086   4.256  1.00  0.00    -0.395 N 
ATOM     25  H52 UNL     1      25.823   6.390   5.106  1.00  0.00     0.156 HD
ATOM     26  H51 UNL     1      25.141   6.742   3.502  1.00  0.00     0.156 HD
ENDBRANCH  10  24
TORSDOF 5
ENDMDL
MODEL 2
REMARK VINA RESULT: -6.122168179      1.132      1.247
REMARK  5 active torsions:
REMARK  status: ('A' for Active; 'I' for Inactive)
REMARK    1  A    between atoms: C3_4  and  N2_5 
REMARK    2  A    between atoms: N3_9  and  C7_10 
REMARK    3  A    between atoms: C7_10  and  C8_11 
REMARK    4  A    between atoms: C8_11  and  C9_12 
REMARK    5  A    between atoms: C15_23  and  N5_24 
ROOT
HETATM    1  N1  UNL     1      28.817   4.968   2.838  1.00  0.00    -0.191 NA
HETATM    2  C1  UNL     1      27.715   4.846   3.164  1.00  0.00     0.105 C 
HETATM    3  C2  UNL     1      26.345   4.722   3.583  1.00  0.00     0.117 A 
HETATM    4  C3  UNL     1      25.749   3.512   3.861  1.00  0.00     0.127 A 
HETATM    5  N4  UNL     1      24.446   3.460   4.261  1.00  0.00    -0.348 N 
ATOM      6  H4  UNL     1      24.026   2.552   4.460  1.00  0.00     0.167 HD
HETATM    7  C13 UNL     1      23.697   4.567   4.401  1.00  0.00     0.134 A 
HETATM    8  C14 UNL     1      24.238   5.803   4.137  1.00  0.00     0.159 A 
HETATM    9  F1  UNL     1      23.518   6.967   4.264  1.00  0.00    -0.202 F 
HETATM   10  C15 UNL     1      25.575   5.870   3.725  1.00  0.00     0.091 A 
ENDROOT
BRANCH   4  11
HETATM   11  N2  UNL     1      26.507   2.313   3.726  1.00  0.00    -0.361 N 
HETATM   12  C4  UNL     1      26.975   1.787   4.978  1.00  0.00     0.126 C 
HETATM   13  C5  UNL     1      26.911   0.278   5.028  1.00  0.00     0.040 C 
HETATM   14  C6  UNL     1      27.619  -0.369   3.879  1.00  0.00     0.128 C 
HETATM   15  N3  UNL     1      28.462   0.619   3.284  1.00  0.00    -0.372 N 
HETATM   16  C11 UNL     1      28.011   1.218   2.109  1.00  0.00     0.083 C 
HETATM   17  C12 UNL     1      26.653   1.866   2.362  1.00  0.00     0.169 C 
BRANCH  15  18
HETATM   18  C7  UNL     1      29.815   0.580   3.614  1.00  0.00     0.068 C 
BRANCH  18  19
HETATM   19  C8  UNL     1      30.331   1.705   4.482  1.00  0.00     0.097 C 
BRANCH  19  20
HETATM   20  C9  UNL     1      30.935   1.253   5.748  1.00  0.00     0.027 C 
HETATM   21 CL1  UNL     1      29.952   0.463   6.956  1.00  0.00    -0.088 Cl
HETATM   22  C10 UNL     1      32.221   1.424   5.997  1.00  0.00     0.104 C 
HETATM   23 CL2  UNL     1      32.908   0.865   7.539  1.00  0.00    -0.096 Cl
ENDBRANCH  19  20
ENDBRANCH  18  19
ENDBRANCH  15  18
ENDBRANCH   4  11
BRANCH  10  24
HETATM   24  N5  UNL     1      26.113   6.998   3.464  1.00  0.00    -0.395 N 
ATOM     25  H52 UNL     1      26.399   7.225   2.511  1.00  0.00     0.156 HD
ATOM     26  H51 UNL     1      26.252   7.659   4.230  1.00  0.00     0.156 HD
ENDBRANCH  10  24
TORSDOF 5
ENDMDL
MODEL 3
REMARK VINA RESULT: -5.989014126      3.440      6.353
REMARK  5 active torsions:
REMARK  status: ('A' for Active; 'I' for Inactive)
REMARK    1  A    between atoms: C3_4  and  N2_5 
REMARK    2  A    between atoms: N3_9  and  C7_10 
REMARK    3  A    between atoms: C7_10  and  C8_11 
REMARK    4  A    between atoms: C8_11  and  C9_12 
REMARK    5  A    between atoms: C15_23  and  N5_24 
ROOT
HETATM    1  N1  UNL     1      28.399  -1.560   3.471  1.00  0.00    -0.191 NA
HETATM    2  C1  UNL     1      28.748  -0.564   3.941  1.00  0.00     0.105 C 
HETATM    3  C2  UNL     1      29.201   0.660   4.546  1.00  0.00     0.117 A 
HETATM    4  C3  UNL     1      28.428   1.797   4.613  1.00  0.00     0.127 A 
HETATM    5  N4  UNL     1      28.911   2.927   5.206  1.00  0.00    -0.348 N 
ATOM      6  H4  UNL     1      28.320   3.757   5.242  1.00  0.00     0.167 HD
HETATM    7  C13 UNL     1      30.142   2.980   5.743  1.00  0.00     0.134 A 
HETATM    8  C14 UNL     1      30.959   1.876   5.706  1.00  0.00     0.159 A 
HETATM    9  F1  UNL     1      32.226   1.874   6.240  1.00  0.00    -0.202 F 
HETATM   10  C15 UNL     1      30.475   0.709   5.099  1.00  0.00     0.091 A 
ENDROOT
BRANCH   4  11
HETATM   11  N2  UNL     1      27.116   1.784   4.056  1.00  0.00    -0.361 N 
HETATM   12  C4  UNL     1      27.045   2.367   2.746  1.00  0.00     0.126 C 
HETATM   13  C5  UNL     1      26.103   1.617   1.832  1.00  0.00     0.040 C 
HETATM   14  C6  UNL     1      24.736   1.453   2.419  1.00  0.00     0.128 C 
HETATM   15  N3  UNL     1      24.621   2.378   3.502  1.00  0.00    -0.372 N 
HETATM   16  C11 UNL     1      24.765   1.871   4.793  1.00  0.00     0.083 C 
HETATM   17  C12 UNL     1      26.124   1.187   4.916  1.00  0.00     0.169 C 
BRANCH  15  18
HETATM   18  C7  UNL     1      23.930   3.563   3.253  1.00  0.00     0.068 C 
BRANCH  18  19
HETATM   19  C8  UNL     1      24.114   4.676   4.260  1.00  0.00     0.097 C 
BRANCH  19  20
HETATM   20  C9  UNL     1      25.220   5.595   3.936  1.00  0.00     0.027 C 
HETATM   21 CL1  UNL     1      24.893   7.117   3.146  1.00  0.00    -0.088 Cl
HETATM   22  C10 UNL     1      26.472   5.298   4.237  1.00  0.00     0.104 C 
HETATM   23 CL2  UNL     1      27.776   6.435   3.825  1.00  0.00    -0.096 Cl
ENDBRANCH  19  20
ENDBRANCH  18  19
ENDBRANCH  15  18
ENDBRANCH   4  11
BRANCH  10  24
HETATM   24  N5  UNL     1      31.204  -0.336   5.038  1.00  0.00    -0.395 N 
ATOM     25  H52 UNL     1      31.063  -1.021   4.295  1.00  0.00     0.156 HD
ATOM     26  H51 UNL     1      31.924  -0.469   5.750  1.00  0.00     0.156 HD
ENDBRANCH  10  24
TORSDOF 5
ENDMDL
MODEL 4
REMARK VINA RESULT: -5.775282914      1.202      1.635
REMARK  5 active torsions:
REMARK  status: ('A' for Active; 'I' for Inactive)
REMARK    1  A    between atoms: C3_4  and  N2_5 
REMARK    2  A    between atoms: N3_9  and  C7_10 
REMARK    3  A    between atoms: C7_10  and  C8_11 
REMARK    4  A    between atoms: C8_11  and  C9_12 
REMARK    5  A    between atoms: C15_23  and  N5_24 
ROOT
HETATM    1  N1  UNL     1      27.948   6.151   3.721  1.00  0.00    -0.191 NA
HETATM    2  C1  UNL     1      27.032   5.454   3.823  1.00  0.00     0.105 C 
HETATM    3  C2  UNL     1      25.877   4.609   3.966  1.00  0.00     0.117 A 
HETATM    4  C3  UNL     1      25.955   3.237   4.057  1.00  0.00     0.127 A 
HETATM    5  N4  UNL     1      24.823   2.489   4.199  1.00  0.00    -0.348 N 
ATOM      6  H4  UNL     1      24.905   1.474   4.262  1.00  0.00     0.167 HD
HETATM    7  C13 UNL     1      23.601   3.047   4.256  1.00  0.00     0.134 A 
HETATM    8  C14 UNL     1      23.462   4.411   4.171  1.00  0.00     0.159 A 
HETATM    9  F1  UNL     1      22.238   5.035   4.224  1.00  0.00    -0.202 F 
HETATM   10  C15 UNL     1      24.617   5.191   4.025  1.00  0.00     0.091 A 
ENDROOT
BRANCH   4  11
HETATM   11  N2  UNL     1      27.230   2.604   4.001  1.00  0.00    -0.361 N 
HETATM   12  C4  UNL     1      27.171   1.229   3.592  1.00  0.00     0.126 C 
HETATM   13  C5  UNL     1      28.317   0.849   2.683  1.00  0.00     0.040 C 
HETATM   14  C6  UNL     1      29.654   1.172   3.272  1.00  0.00     0.128 C 
HETATM   15  N3  UNL     1      29.463   1.398   4.670  1.00  0.00    -0.372 N 
HETATM   16  C11 UNL     1      29.432   2.722   5.105  1.00  0.00     0.083 C 
HETATM   17  C12 UNL     1      28.326   3.469   4.364  1.00  0.00     0.169 C 
BRANCH  15  18
HETATM   18  C7  UNL     1      29.788   0.352   5.531  1.00  0.00     0.068 C 
BRANCH  18  19
HETATM   19  C8  UNL     1      30.521   0.724   6.800  1.00  0.00     0.097 C 
BRANCH  19  20
HETATM   20  C9  UNL     1      31.902   1.187   6.576  1.00  0.00     0.027 C 
HETATM   21 CL1  UNL     1      32.226   2.880   6.298  1.00  0.00    -0.088 Cl
HETATM   22  C10 UNL     1      32.921   0.344   6.586  1.00  0.00     0.104 C 
HETATM   23 CL2  UNL     1      34.570   0.945   6.308  1.00  0.00    -0.096 Cl
ENDBRANCH  19  20
ENDBRANCH  18  19
ENDBRANCH  15  18
ENDBRANCH   4  11
BRANCH  10  24
HETATM   24  N5  UNL     1      24.530   6.461   3.936  1.00  0.00    -0.395 N 
ATOM     25  H52 UNL     1      24.364   6.904   3.032  1.00  0.00     0.156 HD
ATOM     26  H51 UNL     1      24.635   7.016   4.786  1.00  0.00     0.156 HD
ENDBRANCH  10  24
TORSDOF 5
ENDMDL
MODEL 5
REMARK VINA RESULT: -5.743822092      1.398      2.343
REMARK  5 active torsions:
REMARK  status: ('A' for Active; 'I' for Inactive)
REMARK    1  A    between atoms: C3_4  and  N2_5 
REMARK    2  A    between atoms: N3_9  and  C7_10 
REMARK    3  A    between atoms: C7_10  and  C8_11 
REMARK    4  A    between atoms: C8_11  and  C9_12 
REMARK    5  A    between atoms: C15_23  and  N5_24 
ROOT
HETATM    1  N1  UNL     1      23.568   2.250   4.700  1.00  0.00    -0.191 NA
HETATM    2  C1  UNL     1      24.315   3.060   4.351  1.00  0.00     0.105 C 
HETATM    3  C2  UNL     1      25.221   4.084   3.905  1.00  0.00     0.117 A 
HETATM    4  C3  UNL     1      26.520   3.826   3.524  1.00  0.00     0.127 A 
HETATM    5  N4  UNL     1      27.329   4.841   3.104  1.00  0.00    -0.348 N 
ATOM      6  H4  UNL     1      28.287   4.626   2.828  1.00  0.00     0.167 HD
HETATM    7  C13 UNL     1      26.905   6.114   3.042  1.00  0.00     0.134 A 
HETATM    8  C14 UNL     1      25.619   6.431   3.409  1.00  0.00     0.159 A 
HETATM    9  F1  UNL     1      25.132   7.716   3.365  1.00  0.00    -0.202 F 
HETATM   10  C15 UNL     1      24.777   5.399   3.844  1.00  0.00     0.091 A 
ENDROOT
BRANCH   4  11
HETATM   11  N2  UNL     1      27.010   2.490   3.575  1.00  0.00    -0.361 N 
HETATM   12  C4  UNL     1      27.337   2.049   4.902  1.00  0.00     0.126 C 
HETATM   13  C5  UNL     1      26.956   0.606   5.140  1.00  0.00     0.040 C 
HETATM   14  C6  UNL     1      27.529  -0.320   4.113  1.00  0.00     0.128 C 
HETATM   15  N3  UNL     1      28.570   0.384   3.434  1.00  0.00    -0.372 N 
HETATM   16  C11 UNL     1      28.274   0.902   2.174  1.00  0.00     0.083 C 
HETATM   17  C12 UNL     1      27.079   1.845   2.286  1.00  0.00     0.169 C 
BRANCH  15  18
HETATM   18  C7  UNL     1      29.880   0.110   3.824  1.00  0.00     0.068 C 
BRANCH  18  19
HETATM   19  C8  UNL     1      30.660   1.259   4.423  1.00  0.00     0.097 C 
BRANCH  19  20
HETATM   20  C9  UNL     1      31.146   0.999   5.790  1.00  0.00     0.027 C 
HETATM   21 CL1  UNL     1      30.022   0.570   7.055  1.00  0.00    -0.088 Cl
HETATM   22  C10 UNL     1      32.432   1.076   6.090  1.00  0.00     0.104 C 
HETATM   23 CL2  UNL     1      32.974   0.758   7.752  1.00  0.00    -0.096 Cl
ENDBRANCH  19  20
ENDBRANCH  18  19
ENDBRANCH  15  18
ENDBRANCH   4  11
BRANCH  10  24
HETATM   24  N5  UNL     1      23.578   5.652   4.200  1.00  0.00    -0.395 N 
ATOM     25  H52 UNL     1      23.179   5.202   5.024  1.00  0.00     0.156 HD
ATOM     26  H51 UNL     1      23.033   6.307   3.639  1.00  0.00     0.156 HD
ENDBRANCH  10  24
TORSDOF 5
ENDMDL
