MODEL 1
REMARK VINA RESULT: -5.475820768      0.000      0.000
REMARK  5 active torsions:
REMARK  status: ('A' for Active; 'I' for Inactive)
REMARK    1  A    between atoms: S1_2  and  N1_4 
REMARK    2  A    between atoms: N1_4  and  C2_6 
REMARK    3  A    between atoms: C2_6  and  C3_7 
REMARK    4  A    between atoms: C3_7  and  C4_8 
REMARK    5  A    between atoms: C4_8  and  C5_9 
ROOT
HETATM    1  C3  UNL     1      94.533  20.758  -1.189  1.00  0.00     0.021 C 
ENDROOT
BRANCH   1   2
HETATM    2  C2  UNL     1      93.291  21.519  -0.806  1.00  0.00     0.129 C 
BRANCH   2   3
HETATM    3  N1  UNL     1      93.092  22.736  -1.535  1.00  0.00    -0.341 N 
ATOM      4  H1  UNL     1      93.735  23.107  -2.235  1.00  0.00     0.169 HD
BRANCH   3   5
HETATM    5  S1  UNL     1      91.603  23.490  -1.060  1.00  0.00     0.105 S 
HETATM    6  C1  UNL     1      90.229  22.539  -1.607  1.00  0.00     0.152 C 
HETATM    7  O1  UNL     1      91.503  25.021  -1.753  1.00  0.00    -0.236 OA
ENDBRANCH   3   5
ENDBRANCH   2   3
ENDBRANCH   1   2
BRANCH   1   8
HETATM    8  C4  UNL     1      94.191  19.506  -1.920  1.00  0.00     0.007 C 
BRANCH   8   9
HETATM    9  C5  UNL     1      95.365  18.650  -2.268  1.00  0.00    -0.004 C 
HETATM   10  C6  UNL     1      95.912  18.069  -0.999  1.00  0.00     0.015 C 
HETATM   11  C7  UNL     1      95.002  16.975  -0.542  1.00  0.00     0.074 C 
HETATM   12  S2  UNL     1      94.669  16.148  -2.150  1.00  0.00    -0.169 SA
HETATM   13  C8  UNL     1      95.112  17.561  -3.237  1.00  0.00     0.078 C 
ENDBRANCH   8   9
ENDBRANCH   1   8
TORSDOF 5
ENDMDL
MODEL 2
REMARK VINA RESULT: -5.445600977      1.025      1.025
REMARK  5 active torsions:
REMARK  status: ('A' for Active; 'I' for Inactive)
REMARK    1  A    between atoms: S1_2  and  N1_4 
REMARK    2  A    between atoms: N1_4  and  C2_6 
REMARK    3  A    between atoms: C2_6  and  C3_7 
REMARK    4  A    between atoms: C3_7  and  C4_8 
REMARK    5  A    between atoms: C4_8  and  C5_9 
ROOT
HETATM    1  C3  UNL     1      94.578  20.812  -1.059  1.00  0.00     0.021 C 
ENDROOT
BRANCH   1   2
HETATM    2  C2  UNL     1      93.500  21.863  -1.050  1.00  0.00     0.129 C 
BRANCH   2   3
HETATM    3  N1  UNL     1      92.212  21.396  -1.470  1.00  0.00    -0.341 N 
ATOM      4  H1  UNL     1      92.001  20.435  -1.739  1.00  0.00     0.169 HD
BRANCH   3   5
HETATM    5  S1  UNL     1      91.062  22.696  -1.458  1.00  0.00     0.105 S 
HETATM    6  C1  UNL     1      89.691  22.296  -0.433  1.00  0.00     0.152 C 
HETATM    7  O1  UNL     1      90.500  22.963  -3.022  1.00  0.00    -0.236 OA
ENDBRANCH   3   5
ENDBRANCH   2   3
ENDBRANCH   1   2
BRANCH   1   8
HETATM    8  C4  UNL     1      94.153  19.612  -1.833  1.00  0.00     0.007 C 
BRANCH   8   9
HETATM    9  C5  UNL     1      95.274  18.729  -2.275  1.00  0.00    -0.004 C 
HETATM   10  C6  UNL     1      95.883  18.103  -1.057  1.00  0.00     0.015 C 
HETATM   11  C7  UNL     1      94.970  17.027  -0.565  1.00  0.00     0.074 C 
HETATM   12  S2  UNL     1      94.506  16.248  -2.165  1.00  0.00    -0.169 SA
HETATM   13  C8  UNL     1      94.923  17.671  -3.249  1.00  0.00     0.078 C 
ENDBRANCH   8   9
ENDBRANCH   1   8
TORSDOF 5
ENDMDL
MODEL 3
REMARK VINA RESULT: -5.185187314      1.364      1.512
REMARK  5 active torsions:
REMARK  status: ('A' for Active; 'I' for Inactive)
REMARK    1  A    between atoms: S1_2  and  N1_4 
REMARK    2  A    between atoms: N1_4  and  C2_6 
REMARK    3  A    between atoms: C2_6  and  C3_7 
REMARK    4  A    between atoms: C3_7  and  C4_8 
REMARK    5  A    between atoms: C4_8  and  C5_9 
ROOT
HETATM    1  C3  UNL     1      94.517  20.647  -0.914  1.00  0.00     0.021 C 
ENDROOT
BRANCH   1   2
HETATM    2  C2  UNL     1      93.512  21.755  -1.094  1.00  0.00     0.129 C 
BRANCH   2   3
HETATM    3  N1  UNL     1      92.214  21.317  -1.512  1.00  0.00    -0.341 N 
ATOM      4  H1  UNL     1      91.985  20.365  -1.799  1.00  0.00     0.169 HD
BRANCH   3   5
HETATM    5  S1  UNL     1      91.084  22.633  -1.461  1.00  0.00     0.105 S 
HETATM    6  C1  UNL     1      89.713  22.230  -0.437  1.00  0.00     0.152 C 
HETATM    7  O1  UNL     1      90.516  22.946  -3.015  1.00  0.00    -0.236 OA
ENDBRANCH   3   5
ENDBRANCH   2   3
ENDBRANCH   1   2
BRANCH   1   8
HETATM    8  C4  UNL     1      94.279  19.543  -1.884  1.00  0.00     0.007 C 
BRANCH   8   9
HETATM    9  C5  UNL     1      95.252  18.413  -1.791  1.00  0.00    -0.004 C 
HETATM   10  C6  UNL     1      94.492  17.171  -1.433  1.00  0.00     0.015 C 
HETATM   11  C7  UNL     1      93.757  16.695  -2.644  1.00  0.00     0.074 C 
HETATM   12  S2  UNL     1      95.060  16.935  -3.920  1.00  0.00    -0.169 SA
HETATM   13  C8  UNL     1      96.071  18.159  -2.996  1.00  0.00     0.078 C 
ENDBRANCH   8   9
ENDBRANCH   1   8
TORSDOF 5
ENDMDL
MODEL 4
REMARK VINA RESULT: -5.159352562      1.200      1.271
REMARK  5 active torsions:
REMARK  status: ('A' for Active; 'I' for Inactive)
REMARK    1  A    between atoms: S1_2  and  N1_4 
REMARK    2  A    between atoms: N1_4  and  C2_6 
REMARK    3  A    between atoms: C2_6  and  C3_7 
REMARK    4  A    between atoms: C3_7  and  C4_8 
REMARK    5  A    between atoms: C4_8  and  C5_9 
ROOT
HETATM    1  C3  UNL     1      94.766  20.409  -1.521  1.00  0.00     0.021 C 
ENDROOT
BRANCH   1   2
HETATM    2  C2  UNL     1      93.891  21.389  -0.784  1.00  0.00     0.129 C 
BRANCH   2   3
HETATM    3  N1  UNL     1      92.549  21.476  -1.278  1.00  0.00    -0.341 N 
ATOM      4  H1  UNL     1      92.036  20.705  -1.707  1.00  0.00     0.169 HD
BRANCH   3   5
HETATM    5  S1  UNL     1      91.920  23.077  -1.046  1.00  0.00     0.105 S 
HETATM    6  C1  UNL     1      90.165  23.042  -0.956  1.00  0.00     0.152 C 
HETATM    7  O1  UNL     1      92.369  24.050  -2.345  1.00  0.00    -0.236 OA
ENDBRANCH   3   5
ENDBRANCH   2   3
ENDBRANCH   1   2
BRANCH   1   8
HETATM    8  C4  UNL     1      94.944  19.154  -0.739  1.00  0.00     0.007 C 
BRANCH   8   9
HETATM    9  C5  UNL     1      95.484  18.004  -1.525  1.00  0.00    -0.004 C 
HETATM   10  C6  UNL     1      96.747  17.541  -0.865  1.00  0.00     0.015 C 
HETATM   11  C7  UNL     1      96.390  16.781   0.371  1.00  0.00     0.074 C 
HETATM   12  S2  UNL     1      94.977  15.789  -0.264  1.00  0.00    -0.169 SA
HETATM   13  C8  UNL     1      94.572  16.853  -1.705  1.00  0.00     0.078 C 
ENDBRANCH   8   9
ENDBRANCH   1   8
TORSDOF 5
ENDMDL
MODEL 5
REMARK VINA RESULT: -5.062748139      1.116      1.644
REMARK  5 active torsions:
REMARK  status: ('A' for Active; 'I' for Inactive)
REMARK    1  A    between atoms: S1_2  and  N1_4 
REMARK    2  A    between atoms: N1_4  and  C2_6 
REMARK    3  A    between atoms: C2_6  and  C3_7 
REMARK    4  A    between atoms: C3_7  and  C4_8 
REMARK    5  A    between atoms: C4_8  and  C5_9 
ROOT
HETATM    1  C3  UNL     1      94.197  20.722  -0.777  1.00  0.00     0.021 C 
ENDROOT
BRANCH   1   2
HETATM    2  C2  UNL     1      92.893  21.360  -1.177  1.00  0.00     0.129 C 
BRANCH   2   3
HETATM    3  N1  UNL     1      92.985  22.756  -1.488  1.00  0.00    -0.341 N 
ATOM      4  H1  UNL     1      93.802  23.208  -1.900  1.00  0.00     0.169 HD
BRANCH   3   5
HETATM    5  S1  UNL     1      91.511  23.569  -1.065  1.00  0.00     0.105 S 
HETATM    6  C1  UNL     1      90.118  22.627  -1.579  1.00  0.00     0.152 C 
HETATM    7  O1  UNL     1      91.456  25.067  -1.833  1.00  0.00    -0.236 OA
ENDBRANCH   3   5
ENDBRANCH   2   3
ENDBRANCH   1   2
BRANCH   1   8
HETATM    8  C4  UNL     1      94.725  19.851  -1.864  1.00  0.00     0.007 C 
BRANCH   8   9
HETATM    9  C5  UNL     1      94.701  18.390  -1.556  1.00  0.00    -0.004 C 
HETATM   10  C6  UNL     1      95.207  17.652  -2.758  1.00  0.00     0.015 C 
HETATM   11  C7  UNL     1      96.692  17.811  -2.827  1.00  0.00     0.074 C 
HETATM   12  S2  UNL     1      97.118  17.578  -1.053  1.00  0.00    -0.169 SA
HETATM   13  C8  UNL     1      95.462  17.964  -0.361  1.00  0.00     0.078 C 
ENDBRANCH   8   9
ENDBRANCH   1   8
TORSDOF 5
ENDMDL
