MODEL 1
REMARK VINA RESULT: -8.187353463      0.000      0.000
REMARK  8 active torsions:
REMARK  status: ('A' for Active; 'I' for Inactive)
REMARK    1  A    between atoms: C2_2  and  C3_3 
REMARK    2  A    between atoms: C3_3  and  C4_4 
REMARK    3  A    between atoms: C4_4  and  C5_5 
REMARK    4  A    between atoms: C5_5  and  C6_6 
REMARK    5  A    between atoms: C6_6  and  C7_7 
REMARK    6  A    between atoms: C7_7  and  N1_8 
REMARK       I    between atoms: N1_8  and  C8_10 
REMARK    7  A    between atoms: C8_10  and  C9_12 
REMARK    8  A    between atoms: C26_31  and  O4_32 
ROOT
HETATM    1  C9  UNL     1      40.437  -3.251  13.699  1.00  0.00     0.102 C 
HETATM    2  C10 UNL     1      39.696  -3.228  12.339  1.00  0.00     0.034 C 
HETATM    3  C11 UNL     1      41.870  -3.263  13.354  1.00  0.00     0.144 C 
HETATM    4  O2  UNL     1      42.549  -4.292  13.390  1.00  0.00    -0.297 OA
HETATM    5  C12 UNL     1      42.557  -2.034  12.946  1.00  0.00     0.080 C 
HETATM    6  C13 UNL     1      41.713  -0.811  13.129  1.00  0.00     0.017 C 
HETATM    7  C14 UNL     1      40.987  -0.885  14.435  1.00  0.00    -0.034 C 
HETATM    8  C15 UNL     1      42.087  -1.079  15.498  1.00  0.00     0.016 C 
HETATM    9  C16 UNL     1      40.226   0.339  14.791  1.00  0.00     0.002 C 
HETATM   10  C17 UNL     1      39.759   1.196  13.667  1.00  0.00     0.007 C 
HETATM   11  C18 UNL     1      38.396   1.819  13.852  1.00  0.00     0.014 C 
HETATM   12  C19 UNL     1      38.084   2.324  15.208  1.00  0.00    -0.014 C 
HETATM   13  C20 UNL     1      36.562   2.248  15.366  1.00  0.00     0.020 C 
HETATM   14  C21 UNL     1      38.611   1.330  16.194  1.00  0.00    -0.063 C 
HETATM   15  C22 UNL     1      38.729   1.671  17.439  1.00  0.00     0.054 C 
HETATM   16  C23 UNL     1      38.344   3.005  17.826  1.00  0.00     0.154 C 
HETATM   17  O3  UNL     1      37.832   3.225  18.938  1.00  0.00    -0.293 OA
HETATM   18  C24 UNL     1      38.563   4.124  16.884  1.00  0.00     0.071 C 
HETATM   19  C25 UNL     1      37.681   5.282  17.192  1.00  0.00     0.073 C 
HETATM   20  C26 UNL     1      37.151   6.074  16.072  1.00  0.00     0.257 C 
HETATM   21  O5  UNL     1      37.991   5.970  14.968  1.00  0.00    -0.361 OA
HETATM   22  C27 UNL     1      37.896   4.652  14.524  1.00  0.00     0.177 C 
HETATM   23  C28 UNL     1      38.611   3.697  15.440  1.00  0.00     0.033 C 
HETATM   24  C29 UNL     1      38.977   0.017  15.624  1.00  0.00     0.020 C 
HETATM   25  C30 UNL     1      39.160  -1.065  16.601  1.00  0.00     0.010 C 
HETATM   26  C31 UNL     1      39.592  -2.333  15.886  1.00  0.00     0.008 C 
HETATM   27  C32 UNL     1      40.032  -2.064  14.479  1.00  0.00     0.019 C 
ENDROOT
BRANCH   1  28
HETATM   28  C8  UNL     1      40.043  -4.564  14.336  1.00  0.00     0.237 C 
HETATM   29  N1  UNL     1      38.848  -5.215  14.016  1.00  0.00    -0.336 N 
ATOM     30  H1  UNL     1      38.287  -4.698  13.338  1.00  0.00     0.168 HD
HETATM   31  O1  UNL     1      40.853  -5.014  15.152  1.00  0.00    -0.272 OA
BRANCH  29  32
HETATM   32  C7  UNL     1      38.243  -6.418  14.415  1.00  0.00     0.087 C 
BRANCH  32  33
HETATM   33  C6  UNL     1      36.777  -6.604  14.412  1.00  0.00    -0.010 C 
BRANCH  33  34
HETATM   34  C5  UNL     1      36.140  -7.862  14.795  1.00  0.00     0.028 C 
BRANCH  34  35
HETATM   35  C4  UNL     1      34.697  -8.037  14.389  1.00  0.00     0.004 C 
BRANCH  35  36
HETATM   36  C3  UNL     1      34.520  -8.060  12.891  1.00  0.00    -0.000 C 
BRANCH  36  37
HETATM   37  C2  UNL     1      34.052  -9.409  12.388  1.00  0.00    -0.005 C 
HETATM   38  C1  UNL     1      32.889  -9.189  11.421  1.00  0.00     0.005 C 
ENDBRANCH  36  37
ENDBRANCH  35  36
ENDBRANCH  34  35
ENDBRANCH  33  34
ENDBRANCH  32  33
ENDBRANCH  29  32
ENDBRANCH   1  28
BRANCH  20  39
HETATM   39  O4  UNL     1      35.826   5.790  15.746  1.00  0.00    -0.371 OA
ATOM     40  H4  UNL     1      35.628   4.863  15.682  1.00  0.00     0.212 HD
ENDBRANCH  20  39
TORSDOF 8
ENDMDL
MODEL 2
REMARK VINA RESULT: -8.083548987      3.673     10.122
REMARK  8 active torsions:
REMARK  status: ('A' for Active; 'I' for Inactive)
REMARK    1  A    between atoms: C2_2  and  C3_3 
REMARK    2  A    between atoms: C3_3  and  C4_4 
REMARK    3  A    between atoms: C4_4  and  C5_5 
REMARK    4  A    between atoms: C5_5  and  C6_6 
REMARK    5  A    between atoms: C6_6  and  C7_7 
REMARK    6  A    between atoms: C7_7  and  N1_8 
REMARK       I    between atoms: N1_8  and  C8_10 
REMARK    7  A    between atoms: C8_10  and  C9_12 
REMARK    8  A    between atoms: C26_31  and  O4_32 
ROOT
HETATM    1  C9  UNL     1      36.451   5.173  14.492  1.00  0.00     0.102 C 
HETATM    2  C10 UNL     1      35.898   5.140  13.045  1.00  0.00     0.034 C 
HETATM    3  C11 UNL     1      35.262   5.310  15.352  1.00  0.00     0.144 C 
HETATM    4  O2  UNL     1      34.929   6.387  15.852  1.00  0.00    -0.297 OA
HETATM    5  C12 UNL     1      34.412   4.154  15.652  1.00  0.00     0.080 C 
HETATM    6  C13 UNL     1      35.002   2.863  15.177  1.00  0.00     0.017 C 
HETATM    7  C14 UNL     1      36.468   2.834  15.475  1.00  0.00    -0.034 C 
HETATM    8  C15 UNL     1      36.576   3.077  16.994  1.00  0.00     0.016 C 
HETATM    9  C16 UNL     1      37.135   1.543  15.176  1.00  0.00     0.002 C 
HETATM   10  C17 UNL     1      36.520   0.691  14.121  1.00  0.00     0.007 C 
HETATM   11  C18 UNL     1      37.495  -0.043  13.232  1.00  0.00     0.014 C 
HETATM   12  C19 UNL     1      38.686  -0.619  13.899  1.00  0.00    -0.014 C 
HETATM   13  C20 UNL     1      39.797  -0.668  12.846  1.00  0.00     0.020 C 
HETATM   14  C21 UNL     1      39.168   0.379  14.904  1.00  0.00    -0.063 C 
HETATM   15  C22 UNL     1      40.008   0.005  15.817  1.00  0.00     0.054 C 
HETATM   16  C23 UNL     1      40.447  -1.368  15.826  1.00  0.00     0.154 C 
HETATM   17  O3  UNL     1      41.604  -1.666  16.172  1.00  0.00    -0.293 OA
HETATM   18  C24 UNL     1      39.504  -2.433  15.420  1.00  0.00     0.071 C 
HETATM   19  C25 UNL     1      40.220  -3.667  14.995  1.00  0.00     0.073 C 
HETATM   20  C26 UNL     1      39.653  -4.458  13.893  1.00  0.00     0.257 C 
HETATM   21  O5  UNL     1      38.280  -4.250  13.806  1.00  0.00    -0.361 OA
HETATM   22  C27 UNL     1      38.108  -2.928  13.396  1.00  0.00     0.177 C 
HETATM   23  C28 UNL     1      38.413  -1.954  14.500  1.00  0.00     0.033 C 
HETATM   24  C29 UNL     1      38.601   1.736  14.760  1.00  0.00     0.020 C 
HETATM   25  C30 UNL     1      39.307   2.793  15.496  1.00  0.00     0.010 C 
HETATM   26  C31 UNL     1      38.583   4.116  15.311  1.00  0.00     0.008 C 
HETATM   27  C32 UNL     1      37.212   3.932  14.737  1.00  0.00     0.019 C 
ENDROOT
BRANCH   1  28
HETATM   28  C8  UNL     1      37.291   6.428  14.560  1.00  0.00     0.237 C 
HETATM   29  N1  UNL     1      37.640   7.023  15.777  1.00  0.00    -0.336 N 
ATOM     30  H1  UNL     1      37.251   6.530  16.581  1.00  0.00     0.168 HD
HETATM   31  O1  UNL     1      37.643   6.883  13.467  1.00  0.00    -0.272 OA
BRANCH  29  32
HETATM   32  C7  UNL     1      38.403   8.143  16.144  1.00  0.00     0.087 C 
BRANCH  32  33
HETATM   33  C6  UNL     1      38.785   8.413  17.545  1.00  0.00    -0.010 C 
BRANCH  33  34
HETATM   34  C5  UNL     1      38.539   7.464  18.628  1.00  0.00     0.028 C 
BRANCH  34  35
HETATM   35  C4  UNL     1      39.743   6.737  19.174  1.00  0.00     0.004 C 
BRANCH  35  36
HETATM   36  C3  UNL     1      40.316   5.750  18.186  1.00  0.00    -0.000 C 
BRANCH  36  37
HETATM   37  C2  UNL     1      41.669   6.180  17.663  1.00  0.00    -0.005 C 
HETATM   38  C1  UNL     1      41.758   5.806  16.184  1.00  0.00     0.005 C 
ENDBRANCH  36  37
ENDBRANCH  35  36
ENDBRANCH  34  35
ENDBRANCH  33  34
ENDBRANCH  32  33
ENDBRANCH  29  32
ENDBRANCH   1  28
BRANCH  20  39
HETATM   39  O4  UNL     1      40.286  -4.268  12.666  1.00  0.00    -0.371 OA
ATOM     40  H4  UNL     1      39.809  -3.713  12.061  1.00  0.00     0.212 HD
ENDBRANCH  20  39
TORSDOF 8
ENDMDL
MODEL 3
REMARK VINA RESULT: -8.067084045      3.440      8.903
REMARK  8 active torsions:
REMARK  status: ('A' for Active; 'I' for Inactive)
REMARK    1  A    between atoms: C2_2  and  C3_3 
REMARK    2  A    between atoms: C3_3  and  C4_4 
REMARK    3  A    between atoms: C4_4  and  C5_5 
REMARK    4  A    between atoms: C5_5  and  C6_6 
REMARK    5  A    between atoms: C6_6  and  C7_7 
REMARK    6  A    between atoms: C7_7  and  N1_8 
REMARK       I    between atoms: N1_8  and  C8_10 
REMARK    7  A    between atoms: C8_10  and  C9_12 
REMARK    8  A    between atoms: C26_31  and  O4_32 
ROOT
HETATM    1  C9  UNL     1      40.187   4.958  14.012  1.00  0.00     0.102 C 
HETATM    2  C10 UNL     1      41.476   5.025  14.870  1.00  0.00     0.034 C 
HETATM    3  C11 UNL     1      40.581   5.474  12.690  1.00  0.00     0.144 C 
HETATM    4  O2  UNL     1      40.318   6.623  12.324  1.00  0.00    -0.297 OA
HETATM    5  C12 UNL     1      41.316   4.633  11.740  1.00  0.00     0.080 C 
HETATM    6  C13 UNL     1      41.410   3.206  12.184  1.00  0.00     0.017 C 
HETATM    7  C14 UNL     1      40.096   2.761  12.744  1.00  0.00    -0.034 C 
HETATM    8  C15 UNL     1      39.068   3.027  11.626  1.00  0.00     0.016 C 
HETATM    9  C16 UNL     1      40.026   1.319  13.088  1.00  0.00     0.002 C 
HETATM   10  C17 UNL     1      41.308   0.641  13.426  1.00  0.00     0.007 C 
HETATM   11  C18 UNL     1      41.225  -0.385  14.531  1.00  0.00     0.014 C 
HETATM   12  C19 UNL     1      40.027  -1.255  14.530  1.00  0.00    -0.014 C 
HETATM   13  C20 UNL     1      39.788  -1.674  15.984  1.00  0.00     0.020 C 
HETATM   14  C21 UNL     1      38.847  -0.401  14.189  1.00  0.00    -0.063 C 
HETATM   15  C22 UNL     1      37.735  -0.965  13.837  1.00  0.00     0.054 C 
HETATM   16  C23 UNL     1      37.680  -2.405  13.789  1.00  0.00     0.154 C 
HETATM   17  O3  UNL     1      36.637  -3.014  14.086  1.00  0.00    -0.293 OA
HETATM   18  C24 UNL     1      38.882  -3.162  13.377  1.00  0.00     0.071 C 
HETATM   19  C25 UNL     1      38.836  -4.569  13.861  1.00  0.00     0.073 C 
HETATM   20  C26 UNL     1      40.095  -5.206  14.277  1.00  0.00     0.257 C 
HETATM   21  O5  UNL     1      41.174  -4.608  13.633  1.00  0.00    -0.361 OA
HETATM   22  C27 UNL     1      41.266  -3.313  14.142  1.00  0.00     0.177 C 
HETATM   23  C28 UNL     1      40.172  -2.424  13.619  1.00  0.00     0.033 C 
HETATM   24  C29 UNL     1      39.084   1.055  14.272  1.00  0.00     0.020 C 
HETATM   25  C30 UNL     1      37.875   1.890  14.285  1.00  0.00     0.010 C 
HETATM   26  C31 UNL     1      38.267   3.358  14.308  1.00  0.00     0.008 C 
HETATM   27  C32 UNL     1      39.714   3.560  13.978  1.00  0.00     0.019 C 
ENDROOT
BRANCH   1  28
HETATM   28  C8  UNL     1      39.223   5.913  14.679  1.00  0.00     0.237 C 
HETATM   29  N1  UNL     1      38.101   6.418  14.016  1.00  0.00    -0.336 N 
ATOM     30  H1  UNL     1      38.031   6.088  13.053  1.00  0.00     0.168 HD
HETATM   31  O1  UNL     1      39.501   6.207  15.845  1.00  0.00    -0.272 OA
BRANCH  29  32
HETATM   32  C7  UNL     1      37.048   7.276  14.372  1.00  0.00     0.087 C 
BRANCH  32  33
HETATM   33  C6  UNL     1      36.016   6.892  15.357  1.00  0.00    -0.010 C 
BRANCH  33  34
HETATM   34  C5  UNL     1      35.763   5.503  15.736  1.00  0.00     0.028 C 
BRANCH  34  35
HETATM   35  C4  UNL     1      34.840   4.718  14.837  1.00  0.00     0.004 C 
BRANCH  35  36
HETATM   36  C3  UNL     1      34.502   3.361  15.403  1.00  0.00    -0.000 C 
BRANCH  36  37
HETATM   37  C2  UNL     1      35.228   3.083  16.702  1.00  0.00    -0.005 C 
HETATM   38  C1  UNL     1      35.257   1.571  16.927  1.00  0.00     0.005 C 
ENDBRANCH  36  37
ENDBRANCH  35  36
ENDBRANCH  34  35
ENDBRANCH  33  34
ENDBRANCH  32  33
ENDBRANCH  29  32
ENDBRANCH   1  28
BRANCH  20  39
HETATM   39  O4  UNL     1      40.280  -5.264  15.657  1.00  0.00    -0.371 OA
ATOM     40  H4  UNL     1      40.989  -5.833  15.933  1.00  0.00     0.212 HD
ENDBRANCH  20  39
TORSDOF 8
ENDMDL
MODEL 4
REMARK VINA RESULT: -7.749531118      1.518      1.982
REMARK  8 active torsions:
REMARK  status: ('A' for Active; 'I' for Inactive)
REMARK    1  A    between atoms: C2_2  and  C3_3 
REMARK    2  A    between atoms: C3_3  and  C4_4 
REMARK    3  A    between atoms: C4_4  and  C5_5 
REMARK    4  A    between atoms: C5_5  and  C6_6 
REMARK    5  A    between atoms: C6_6  and  C7_7 
REMARK    6  A    between atoms: C7_7  and  N1_8 
REMARK       I    between atoms: N1_8  and  C8_10 
REMARK    7  A    between atoms: C8_10  and  C9_12 
REMARK    8  A    between atoms: C26_31  and  O4_32 
ROOT
HETATM    1  C9  UNL     1      40.323  -2.434  13.786  1.00  0.00     0.102 C 
HETATM    2  C10 UNL     1      40.998  -1.996  12.462  1.00  0.00     0.034 C 
HETATM    3  C11 UNL     1      41.434  -2.644  14.731  1.00  0.00     0.144 C 
HETATM    4  O2  UNL     1      41.860  -3.767  15.011  1.00  0.00    -0.297 OA
HETATM    5  C12 UNL     1      42.091  -1.508  15.385  1.00  0.00     0.080 C 
HETATM    6  C13 UNL     1      41.380  -0.212  15.146  1.00  0.00     0.017 C 
HETATM    7  C14 UNL     1      39.902  -0.414  15.264  1.00  0.00    -0.034 C 
HETATM    8  C15 UNL     1      39.688  -1.023  16.663  1.00  0.00     0.016 C 
HETATM    9  C16 UNL     1      39.100   0.832  15.185  1.00  0.00     0.002 C 
HETATM   10  C17 UNL     1      39.691   1.973  14.433  1.00  0.00     0.007 C 
HETATM   11  C18 UNL     1      38.714   2.788  13.622  1.00  0.00     0.014 C 
HETATM   12  C19 UNL     1      37.400   3.056  14.251  1.00  0.00    -0.014 C 
HETATM   13  C20 UNL     1      36.394   3.235  13.110  1.00  0.00     0.020 C 
HETATM   14  C21 UNL     1      36.964   1.800  14.939  1.00  0.00    -0.063 C 
HETATM   15  C22 UNL     1      36.001   1.852  15.804  1.00  0.00     0.054 C 
HETATM   16  C23 UNL     1      35.384   3.127  16.070  1.00  0.00     0.154 C 
HETATM   17  O3  UNL     1      34.170   3.207  16.331  1.00  0.00    -0.293 OA
HETATM   18  C24 UNL     1      36.210   4.354  16.033  1.00  0.00     0.071 C 
HETATM   19  C25 UNL     1      35.379   5.569  15.814  1.00  0.00     0.073 C 
HETATM   20  C26 UNL     1      35.935   6.657  14.997  1.00  0.00     0.257 C 
HETATM   21  O5  UNL     1      37.325   6.626  15.032  1.00  0.00    -0.361 OA
HETATM   22  C27 UNL     1      37.709   5.467  14.358  1.00  0.00     0.177 C 
HETATM   23  C28 UNL     1      37.436   4.229  15.167  1.00  0.00     0.033 C 
HETATM   24  C29 UNL     1      37.718   0.587  14.562  1.00  0.00     0.020 C 
HETATM   25  C30 UNL     1      37.094  -0.686  14.948  1.00  0.00     0.010 C 
HETATM   26  C31 UNL     1      38.002  -1.840  14.558  1.00  0.00     0.008 C 
HETATM   27  C32 UNL     1      39.383  -1.377  14.211  1.00  0.00     0.019 C 
ENDROOT
BRANCH   1  28
HETATM   28  C8  UNL     1      39.655  -3.752  13.466  1.00  0.00     0.237 C 
HETATM   29  N1  UNL     1      39.393  -4.710  14.451  1.00  0.00    -0.336 N 
ATOM     30  H1  UNL     1      39.718  -4.424  15.375  1.00  0.00     0.168 HD
HETATM   31  O1  UNL     1      39.360  -3.915  12.279  1.00  0.00    -0.272 OA
BRANCH  29  32
HETATM   32  C7  UNL     1      38.785  -5.976  14.458  1.00  0.00     0.087 C 
BRANCH  32  33
HETATM   33  C6  UNL     1      37.343  -6.161  14.196  1.00  0.00    -0.010 C 
BRANCH  33  34
HETATM   34  C5  UNL     1      36.585  -7.297  14.716  1.00  0.00     0.028 C 
BRANCH  34  35
HETATM   35  C4  UNL     1      35.082  -7.173  14.686  1.00  0.00     0.004 C 
BRANCH  35  36
HETATM   36  C3  UNL     1      34.420  -8.356  14.022  1.00  0.00    -0.000 C 
BRANCH  36  37
HETATM   37  C2  UNL     1      34.447  -8.257  12.512  1.00  0.00    -0.005 C 
HETATM   38  C1  UNL     1      33.350  -9.160  11.947  1.00  0.00     0.005 C 
ENDBRANCH  36  37
ENDBRANCH  35  36
ENDBRANCH  34  35
ENDBRANCH  33  34
ENDBRANCH  32  33
ENDBRANCH  29  32
ENDBRANCH   1  28
BRANCH  20  39
HETATM   39  O4  UNL     1      35.449   6.700  13.691  1.00  0.00    -0.371 OA
ATOM     40  H4  UNL     1      35.958   6.195  13.068  1.00  0.00     0.212 HD
ENDBRANCH  20  39
TORSDOF 8
ENDMDL
MODEL 5
REMARK VINA RESULT: -7.576700512     13.845     16.992
REMARK  8 active torsions:
REMARK  status: ('A' for Active; 'I' for Inactive)
REMARK    1  A    between atoms: C2_2  and  C3_3 
REMARK    2  A    between atoms: C3_3  and  C4_4 
REMARK    3  A    between atoms: C4_4  and  C5_5 
REMARK    4  A    between atoms: C5_5  and  C6_6 
REMARK    5  A    between atoms: C6_6  and  C7_7 
REMARK    6  A    between atoms: C7_7  and  N1_8 
REMARK       I    between atoms: N1_8  and  C8_10 
REMARK    7  A    between atoms: C8_10  and  C9_12 
REMARK    8  A    between atoms: C26_31  and  O4_32 
ROOT
HETATM    1  C9  UNL     1      34.544   1.411  28.688  1.00  0.00     0.102 C 
HETATM    2  C10 UNL     1      34.273   2.863  28.220  1.00  0.00     0.034 C 
HETATM    3  C11 UNL     1      34.881   1.527  30.118  1.00  0.00     0.144 C 
HETATM    4  O2  UNL     1      36.043   1.480  30.529  1.00  0.00    -0.297 OA
HETATM    5  C12 UNL     1      33.833   1.708  31.127  1.00  0.00     0.080 C 
HETATM    6  C13 UNL     1      32.454   1.548  30.564  1.00  0.00     0.017 C 
HETATM    7  C14 UNL     1      32.421   0.384  29.625  1.00  0.00    -0.034 C 
HETATM    8  C15 UNL     1      32.928  -0.815  30.450  1.00  0.00     0.016 C 
HETATM    9  C16 UNL     1      31.071   0.041  29.112  1.00  0.00     0.002 C 
HETATM   10  C17 UNL     1      30.069   1.141  29.055  1.00  0.00     0.007 C 
HETATM   11  C18 UNL     1      29.149   1.115  27.858  1.00  0.00     0.014 C 
HETATM   12  C19 UNL     1      28.655  -0.217  27.438  1.00  0.00    -0.014 C 
HETATM   13  C20 UNL     1      28.373  -0.127  25.935  1.00  0.00     0.020 C 
HETATM   14  C21 UNL     1      29.797  -1.177  27.547  1.00  0.00    -0.063 C 
HETATM   15  C22 UNL     1      29.560  -2.451  27.521  1.00  0.00     0.054 C 
HETATM   16  C23 UNL     1      28.194  -2.894  27.388  1.00  0.00     0.154 C 
HETATM   17  O3  UNL     1      27.917  -3.927  26.755  1.00  0.00    -0.293 OA
HETATM   18  C24 UNL     1      27.112  -2.104  28.016  1.00  0.00     0.071 C 
HETATM   19  C25 UNL     1      25.795  -2.376  27.380  1.00  0.00     0.073 C 
HETATM   20  C26 UNL     1      24.841  -1.264  27.247  1.00  0.00     0.257 C 
HETATM   21  O5  UNL     1      25.085  -0.300  28.220  1.00  0.00    -0.361 OA
HETATM   22  C27 UNL     1      26.318   0.272  27.906  1.00  0.00     0.177 C 
HETATM   23  C28 UNL     1      27.462  -0.653  28.215  1.00  0.00     0.033 C 
HETATM   24  C29 UNL     1      31.127  -0.553  27.697  1.00  0.00     0.020 C 
HETATM   25  C30 UNL     1      32.271  -1.444  27.457  1.00  0.00     0.010 C 
HETATM   26  C31 UNL     1      33.567  -0.691  27.708  1.00  0.00     0.008 C 
HETATM   27  C32 UNL     1      33.338   0.599  28.434  1.00  0.00     0.019 C 
ENDROOT
BRANCH   1  28
HETATM   28  C8  UNL     1      35.757   0.967  27.902  1.00  0.00     0.237 C 
HETATM   29  N1  UNL     1      36.698   0.077  28.428  1.00  0.00    -0.336 N 
ATOM     30  H1  UNL     1      36.480  -0.207  29.384  1.00  0.00     0.168 HD
HETATM   31  O1  UNL     1      35.849   1.445  26.767  1.00  0.00    -0.272 OA
BRANCH  29  32
HETATM   32  C7  UNL     1      37.875  -0.516  27.942  1.00  0.00     0.087 C 
BRANCH  32  33
HETATM   33  C6  UNL     1      39.126  -0.544  28.726  1.00  0.00    -0.010 C 
BRANCH  33  34
HETATM   34  C5  UNL     1      40.350   0.122  28.285  1.00  0.00     0.028 C 
BRANCH  34  35
HETATM   35  C4  UNL     1      41.603  -0.184  29.068  1.00  0.00     0.004 C 
BRANCH  35  36
HETATM   36  C3  UNL     1      42.857   0.195  28.319  1.00  0.00    -0.000 C 
BRANCH  36  37
HETATM   37  C2  UNL     1      43.939  -0.858  28.439  1.00  0.00    -0.005 C 
HETATM   38  C1  UNL     1      43.446  -1.952  29.385  1.00  0.00     0.005 C 
ENDBRANCH  36  37
ENDBRANCH  35  36
ENDBRANCH  34  35
ENDBRANCH  33  34
ENDBRANCH  32  33
ENDBRANCH  29  32
ENDBRANCH   1  28
BRANCH  20  39
HETATM   39  O4  UNL     1      24.782  -0.710  25.969  1.00  0.00    -0.371 OA
ATOM     40  H4  UNL     1      24.021  -0.161  25.815  1.00  0.00     0.212 HD
ENDBRANCH  20  39
TORSDOF 8
ENDMDL
