MODEL 1
REMARK VINA RESULT: -6.519264867      0.000      0.000
REMARK  9 active torsions:
REMARK  status: ('A' for Active; 'I' for Inactive)
REMARK    1  A    between atoms: C8_8  and  O1_9 
REMARK    2  A    between atoms: O1_9  and  C9_10 
REMARK    3  A    between atoms: C9_10  and  C10_12 
REMARK    4  A    between atoms: C14_16  and  O3_17 
REMARK    5  A    between atoms: C15_19  and  C16_20 
REMARK    6  A    between atoms: C19_24  and  C21_26 
REMARK       I    between atoms: C21_26  and  N1_28 
REMARK    7  A    between atoms: N1_28  and  C22_30 
REMARK    8  A    between atoms: C22_30  and  C23_31 
REMARK    9  A    between atoms: C23_31  and  N2_32 
ROOT
HETATM    1  C1  UNL     1      41.163   6.714  12.993  1.00  0.00     0.010 C 
HETATM    2  C2  UNL     1      41.051   5.705  14.102  1.00  0.00    -0.014 C 
HETATM    3  C3  UNL     1      41.188   6.342  15.415  1.00  0.00     0.005 C 
HETATM    4  C4  UNL     1      40.800   5.464  16.588  1.00  0.00     0.014 C 
HETATM    5  C5  UNL     1      39.343   5.069  16.308  1.00  0.00    -0.015 C 
HETATM    6  C6  UNL     1      38.692   6.432  15.970  1.00  0.00     0.020 C 
HETATM    7  C7  UNL     1      39.410   4.181  15.158  1.00  0.00    -0.041 C 
HETATM    8  C8  UNL     1      39.361   2.894  14.747  1.00  0.00     0.063 C 
HETATM    9  C13 UNL     1      39.192   1.680  15.559  1.00  0.00     0.106 C 
HETATM   10  C14 UNL     1      37.886   1.445  16.205  1.00  0.00     0.093 C 
HETATM   11  C15 UNL     1      37.510   2.426  17.279  1.00  0.00     0.046 C 
HETATM   12  C17 UNL     1      36.944   1.557  18.427  1.00  0.00     0.021 C 
HETATM   13  C18 UNL     1      37.981   0.432  18.352  1.00  0.00     0.023 C 
HETATM   14  C19 UNL     1      37.811   0.106  16.865  1.00  0.00     0.070 C 
HETATM   15  C20 UNL     1      36.404  -0.481  16.759  1.00  0.00     0.029 C 
HETATM   16  C27 UNL     1      38.639   3.203  17.865  1.00  0.00     0.025 C 
HETATM   17  C28 UNL     1      38.609   4.651  17.519  1.00  0.00    -0.005 C 
HETATM   18  C29 UNL     1      39.106   5.456  18.715  1.00  0.00     0.011 C 
HETATM   19  C30 UNL     1      39.756   4.917  13.886  1.00  0.00     0.041 C 
ENDROOT
BRANCH  14  20
HETATM   20  C21 UNL     1      38.818  -0.890  16.543  1.00  0.00     0.229 C 
HETATM   21  O5  UNL     1      39.874  -1.002  17.207  1.00  0.00    -0.273 OA
HETATM   22  N1  UNL     1      38.637  -1.773  15.456  1.00  0.00    -0.359 N 
ATOM     23  H1  UNL     1      37.787  -1.714  14.895  1.00  0.00     0.162 HD
BRANCH  22  24
HETATM   24  C22 UNL     1      39.642  -2.761  15.130  1.00  0.00     0.150 C 
BRANCH  24  25
HETATM   25  C23 UNL     1      40.400  -2.503  13.875  1.00  0.00     0.255 C 
BRANCH  25  26
HETATM   26  N2  UNL     1      41.831  -2.372  14.104  1.00  0.00    -0.077 N 
HETATM   27  C24 UNL     1      42.195  -1.088  14.630  1.00  0.00     0.271 C 
HETATM   28  C25 UNL     1      42.249  -3.465  14.965  1.00  0.00     0.271 C 
HETATM   29  C26 UNL     1      42.488  -2.575  12.825  1.00  0.00     0.271 C 
ENDBRANCH  25  26
ENDBRANCH  24  25
ENDBRANCH  22  24
ENDBRANCH  14  20
BRANCH  10  30
HETATM   30  O3  UNL     1      36.906   1.435  15.178  1.00  0.00    -0.387 OA
ATOM     31  H3  UNL     1      36.348   0.680  15.329  1.00  0.00     0.210 HD
ENDBRANCH  10  30
BRANCH  11  32
HETATM   32  C16 UNL     1      36.351   3.284  16.908  1.00  0.00     0.243 C 
HETATM   33  O4  UNL     1      35.193   3.027  16.999  1.00  0.00    -0.306 OA
ENDBRANCH  11  32
BRANCH   8  34
HETATM   34  O1  UNL     1      39.503   2.858  13.407  1.00  0.00    -0.283 OA
BRANCH  34  35
HETATM   35  C9  UNL     1      39.661   1.875  12.504  1.00  0.00     0.267 C 
HETATM   36  O2  UNL     1      40.790   1.410  12.300  1.00  0.00    -0.265 OA
BRANCH  35  37
HETATM   37  C10 UNL     1      38.552   1.297  11.718  1.00  0.00     0.078 C 
HETATM   38  C11 UNL     1      37.349   2.215  11.653  1.00  0.00     0.020 C 
HETATM   39  C12 UNL     1      38.058  -0.033  12.275  1.00  0.00     0.020 C 
ENDBRANCH  35  37
ENDBRANCH  34  35
ENDBRANCH   8  34
TORSDOF 9
ENDMDL
MODEL 2
REMARK VINA RESULT: -6.273521687      2.632      6.975
REMARK  9 active torsions:
REMARK  status: ('A' for Active; 'I' for Inactive)
REMARK    1  A    between atoms: C8_8  and  O1_9 
REMARK    2  A    between atoms: O1_9  and  C9_10 
REMARK    3  A    between atoms: C9_10  and  C10_12 
REMARK    4  A    between atoms: C14_16  and  O3_17 
REMARK    5  A    between atoms: C15_19  and  C16_20 
REMARK    6  A    between atoms: C19_24  and  C21_26 
REMARK       I    between atoms: C21_26  and  N1_28 
REMARK    7  A    between atoms: N1_28  and  C22_30 
REMARK    8  A    between atoms: C22_30  and  C23_31 
REMARK    9  A    between atoms: C23_31  and  N2_32 
ROOT
HETATM    1  C1  UNL     1      40.444  -3.785  15.553  1.00  0.00     0.010 C 
HETATM    2  C2  UNL     1      40.455  -2.291  15.387  1.00  0.00    -0.014 C 
HETATM    3  C3  UNL     1      41.485  -1.870  14.433  1.00  0.00     0.005 C 
HETATM    4  C4  UNL     1      41.378  -0.427  13.982  1.00  0.00     0.014 C 
HETATM    5  C5  UNL     1      39.973  -0.316  13.373  1.00  0.00    -0.015 C 
HETATM    6  C6  UNL     1      39.925  -1.544  12.431  1.00  0.00     0.020 C 
HETATM    7  C7  UNL     1      39.065  -0.444  14.501  1.00  0.00    -0.041 C 
HETATM    8  C8  UNL     1      38.254   0.225  15.352  1.00  0.00     0.063 C 
HETATM    9  C13 UNL     1      37.986   1.669  15.416  1.00  0.00     0.106 C 
HETATM   10  C14 UNL     1      37.218   2.288  14.318  1.00  0.00     0.093 C 
HETATM   11  C15 UNL     1      37.899   2.297  12.979  1.00  0.00     0.046 C 
HETATM   12  C17 UNL     1      37.652   3.718  12.419  1.00  0.00     0.021 C 
HETATM   13  C18 UNL     1      37.892   4.488  13.721  1.00  0.00     0.023 C 
HETATM   14  C19 UNL     1      36.891   3.721  14.591  1.00  0.00     0.070 C 
HETATM   15  C20 UNL     1      35.522   4.090  14.017  1.00  0.00     0.029 C 
HETATM   16  C27 UNL     1      39.378   2.115  13.007  1.00  0.00     0.025 C 
HETATM   17  C28 UNL     1      39.831   0.817  12.437  1.00  0.00    -0.005 C 
HETATM   18  C29 UNL     1      41.147   1.031  11.698  1.00  0.00     0.011 C 
HETATM   19  C30 UNL     1      39.028  -1.849  15.051  1.00  0.00     0.041 C 
ENDROOT
BRANCH  14  20
HETATM   20  C21 UNL     1      37.044   4.228  15.943  1.00  0.00     0.229 C 
HETATM   21  O5  UNL     1      36.259   3.902  16.864  1.00  0.00    -0.273 OA
HETATM   22  N1  UNL     1      38.094   5.115  16.267  1.00  0.00    -0.359 N 
ATOM     23  H1  UNL     1      38.755   5.399  15.544  1.00  0.00     0.162 HD
BRANCH  22  24
HETATM   24  C22 UNL     1      38.243   5.625  17.612  1.00  0.00     0.150 C 
BRANCH  24  25
HETATM   25  C23 UNL     1      39.489   5.210  18.313  1.00  0.00     0.255 C 
BRANCH  25  26
HETATM   26  N2  UNL     1      40.471   6.281  18.386  1.00  0.00    -0.077 N 
HETATM   27  C24 UNL     1      41.552   6.108  17.458  1.00  0.00     0.271 C 
HETATM   28  C25 UNL     1      39.775   7.542  18.200  1.00  0.00     0.271 C 
HETATM   29  C26 UNL     1      40.994   6.289  19.741  1.00  0.00     0.271 C 
ENDBRANCH  25  26
ENDBRANCH  24  25
ENDBRANCH  22  24
ENDBRANCH  14  20
BRANCH  10  30
HETATM   30  O3  UNL     1      35.976   1.607  14.237  1.00  0.00    -0.387 OA
ATOM     31  H3  UNL     1      35.462   2.037  13.564  1.00  0.00     0.210 HD
ENDBRANCH  10  30
BRANCH  11  32
HETATM   32  C16 UNL     1      37.230   1.423  11.975  1.00  0.00     0.243 C 
HETATM   33  O4  UNL     1      36.784   0.332  12.138  1.00  0.00    -0.306 OA
ENDBRANCH  11  32
BRANCH   8  34
HETATM   34  O1  UNL     1      37.688  -0.658  16.199  1.00  0.00    -0.283 OA
BRANCH  34  35
HETATM   35  C9  UNL     1      36.658  -0.606  17.062  1.00  0.00     0.267 C 
HETATM   36  O2  UNL     1      35.523  -0.911  16.676  1.00  0.00    -0.265 OA
BRANCH  35  37
HETATM   37  C10 UNL     1      36.792  -0.198  18.475  1.00  0.00     0.078 C 
HETATM   38  C11 UNL     1      36.005   1.056  18.792  1.00  0.00     0.020 C 
HETATM   39  C12 UNL     1      38.235   0.076  18.882  1.00  0.00     0.020 C 
ENDBRANCH  35  37
ENDBRANCH  34  35
ENDBRANCH   8  34
TORSDOF 9
ENDMDL
MODEL 3
REMARK VINA RESULT: -6.254603572      0.780      1.257
REMARK  9 active torsions:
REMARK  status: ('A' for Active; 'I' for Inactive)
REMARK    1  A    between atoms: C8_8  and  O1_9 
REMARK    2  A    between atoms: O1_9  and  C9_10 
REMARK    3  A    between atoms: C9_10  and  C10_12 
REMARK    4  A    between atoms: C14_16  and  O3_17 
REMARK    5  A    between atoms: C15_19  and  C16_20 
REMARK    6  A    between atoms: C19_24  and  C21_26 
REMARK       I    between atoms: C21_26  and  N1_28 
REMARK    7  A    between atoms: N1_28  and  C22_30 
REMARK    8  A    between atoms: C22_30  and  C23_31 
REMARK    9  A    between atoms: C23_31  and  N2_32 
ROOT
HETATM    1  C1  UNL     1      40.721   6.856  13.073  1.00  0.00     0.010 C 
HETATM    2  C2  UNL     1      40.694   5.799  14.141  1.00  0.00    -0.014 C 
HETATM    3  C3  UNL     1      40.917   6.379  15.469  1.00  0.00     0.005 C 
HETATM    4  C4  UNL     1      40.619   5.447  16.625  1.00  0.00     0.014 C 
HETATM    5  C5  UNL     1      39.149   5.048  16.429  1.00  0.00    -0.015 C 
HETATM    6  C6  UNL     1      38.465   6.418  16.197  1.00  0.00     0.020 C 
HETATM    7  C7  UNL     1      39.143   4.213  15.240  1.00  0.00    -0.041 C 
HETATM    8  C8  UNL     1      39.076   2.943  14.777  1.00  0.00     0.063 C 
HETATM    9  C13 UNL     1      38.973   1.694  15.545  1.00  0.00     0.106 C 
HETATM   10  C14 UNL     1      37.717   1.417  16.268  1.00  0.00     0.093 C 
HETATM   11  C15 UNL     1      37.409   2.346  17.407  1.00  0.00     0.046 C 
HETATM   12  C17 UNL     1      36.931   1.422  18.553  1.00  0.00     0.021 C 
HETATM   13  C18 UNL     1      37.969   0.313  18.357  1.00  0.00     0.023 C 
HETATM   14  C19 UNL     1      37.699   0.049  16.873  1.00  0.00     0.070 C 
HETATM   15  C20 UNL     1      36.292  -0.548  16.838  1.00  0.00     0.029 C 
HETATM   16  C27 UNL     1      38.569   3.110  17.948  1.00  0.00     0.025 C 
HETATM   17  C28 UNL     1      38.504   4.570  17.669  1.00  0.00    -0.005 C 
HETATM   18  C29 UNL     1      39.076   5.329  18.862  1.00  0.00     0.011 C 
HETATM   19  C30 UNL     1      39.394   5.007  13.980  1.00  0.00     0.041 C 
ENDROOT
BRANCH  14  20
HETATM   20  C21 UNL     1      38.689  -0.920  16.438  1.00  0.00     0.229 C 
HETATM   21  O5  UNL     1      39.786  -1.054  17.027  1.00  0.00    -0.273 OA
HETATM   22  N1  UNL     1      38.443  -1.752  15.324  1.00  0.00    -0.359 N 
ATOM     23  H1  UNL     1      37.559  -1.674  14.822  1.00  0.00     0.162 HD
BRANCH  22  24
HETATM   24  C22 UNL     1      39.432  -2.713  14.886  1.00  0.00     0.150 C 
BRANCH  24  25
HETATM   25  C23 UNL     1      40.517  -2.162  14.029  1.00  0.00     0.255 C 
BRANCH  25  26
HETATM   26  N2  UNL     1      41.824  -2.707  14.363  1.00  0.00    -0.077 N 
HETATM   27  C24 UNL     1      42.678  -1.750  15.004  1.00  0.00     0.271 C 
HETATM   28  C25 UNL     1      41.619  -3.899  15.169  1.00  0.00     0.271 C 
HETATM   29  C26 UNL     1      42.434  -3.144  13.120  1.00  0.00     0.271 C 
ENDBRANCH  25  26
ENDBRANCH  24  25
ENDBRANCH  22  24
ENDBRANCH  14  20
BRANCH  10  30
HETATM   30  O3  UNL     1      36.668   1.440  15.312  1.00  0.00    -0.387 OA
ATOM     31  H3  UNL     1      36.535   0.546  15.019  1.00  0.00     0.210 HD
ENDBRANCH  10  30
BRANCH  11  32
HETATM   32  C16 UNL     1      36.219   3.207  17.155  1.00  0.00     0.243 C 
HETATM   33  O4  UNL     1      35.073   2.891  17.167  1.00  0.00    -0.306 OA
ENDBRANCH  11  32
BRANCH   8  34
HETATM   34  O1  UNL     1      39.125   2.968  13.430  1.00  0.00    -0.283 OA
BRANCH  34  35
HETATM   35  C9  UNL     1      39.417   2.059  12.484  1.00  0.00     0.267 C 
HETATM   36  O2  UNL     1      38.520   1.327  12.044  1.00  0.00    -0.265 OA
BRANCH  35  37
HETATM   37  C10 UNL     1      40.767   1.867  11.918  1.00  0.00     0.078 C 
HETATM   38  C11 UNL     1      41.715   1.204  12.896  1.00  0.00     0.020 C 
HETATM   39  C12 UNL     1      41.424   3.175  11.490  1.00  0.00     0.020 C 
ENDBRANCH  35  37
ENDBRANCH  34  35
ENDBRANCH   8  34
TORSDOF 9
ENDMDL
MODEL 4
REMARK VINA RESULT: -6.207722137      3.027      6.303
REMARK  9 active torsions:
REMARK  status: ('A' for Active; 'I' for Inactive)
REMARK    1  A    between atoms: C8_8  and  O1_9 
REMARK    2  A    between atoms: O1_9  and  C9_10 
REMARK    3  A    between atoms: C9_10  and  C10_12 
REMARK    4  A    between atoms: C14_16  and  O3_17 
REMARK    5  A    between atoms: C15_19  and  C16_20 
REMARK    6  A    between atoms: C19_24  and  C21_26 
REMARK       I    between atoms: C21_26  and  N1_28 
REMARK    7  A    between atoms: N1_28  and  C22_30 
REMARK    8  A    between atoms: C22_30  and  C23_31 
REMARK    9  A    between atoms: C23_31  and  N2_32 
ROOT
HETATM    1  C1  UNL     1      42.433  -3.343  12.444  1.00  0.00     0.010 C 
HETATM    2  C2  UNL     1      41.961  -2.335  13.455  1.00  0.00    -0.014 C 
HETATM    3  C3  UNL     1      42.607  -1.036  13.251  1.00  0.00     0.005 C 
HETATM    4  C4  UNL     1      41.985   0.108  14.026  1.00  0.00     0.014 C 
HETATM    5  C5  UNL     1      40.520   0.134  13.566  1.00  0.00    -0.015 C 
HETATM    6  C6  UNL     1      40.658   0.080  12.025  1.00  0.00     0.020 C 
HETATM    7  C7  UNL     1      39.934  -1.077  14.116  1.00  0.00    -0.041 C 
HETATM    8  C8  UNL     1      39.144  -1.582  15.091  1.00  0.00     0.063 C 
HETATM    9  C13 UNL     1      38.473  -0.868  16.187  1.00  0.00     0.106 C 
HETATM   10  C14 UNL     1      37.354   0.034  15.853  1.00  0.00     0.093 C 
HETATM   11  C15 UNL     1      37.722   1.251  15.052  1.00  0.00     0.046 C 
HETATM   12  C17 UNL     1      36.954   2.414  15.725  1.00  0.00     0.021 C 
HETATM   13  C18 UNL     1      37.203   2.001  17.178  1.00  0.00     0.023 C 
HETATM   14  C19 UNL     1      36.672   0.569  17.071  1.00  0.00     0.070 C 
HETATM   15  C20 UNL     1      35.171   0.733  16.831  1.00  0.00     0.029 C 
HETATM   16  C27 UNL     1      39.162   1.633  15.086  1.00  0.00     0.025 C 
HETATM   17  C28 UNL     1      39.862   1.437  13.787  1.00  0.00    -0.005 C 
HETATM   18  C29 UNL     1      40.880   2.557  13.598  1.00  0.00     0.011 C 
HETATM   19  C30 UNL     1      40.430  -2.322  13.420  1.00  0.00     0.041 C 
ENDROOT
BRANCH  14  20
HETATM   20  C21 UNL     1      36.930  -0.066  18.352  1.00  0.00     0.229 C 
HETATM   21  O5  UNL     1      38.050   0.000  18.908  1.00  0.00    -0.273 OA
HETATM   22  N1  UNL     1      35.914  -0.786  19.018  1.00  0.00    -0.359 N 
ATOM     23  H1  UNL     1      34.988  -0.857  18.597  1.00  0.00     0.162 HD
BRANCH  22  24
HETATM   24  C22 UNL     1      36.173  -1.424  20.290  1.00  0.00     0.150 C 
BRANCH  24  25
HETATM   25  C23 UNL     1      34.969  -1.943  20.995  1.00  0.00     0.255 C 
BRANCH  25  26
HETATM   26  N2  UNL     1      35.158  -3.295  21.500  1.00  0.00    -0.077 N 
HETATM   27  C24 UNL     1      36.523  -3.576  21.837  1.00  0.00     0.271 C 
HETATM   28  C25 UNL     1      34.256  -3.483  22.623  1.00  0.00     0.271 C 
HETATM   29  C26 UNL     1      34.720  -4.205  20.457  1.00  0.00     0.271 C 
ENDBRANCH  25  26
ENDBRANCH  24  25
ENDBRANCH  22  24
ENDBRANCH  14  20
BRANCH  10  30
HETATM   30  O3  UNL     1      36.384  -0.738  15.162  1.00  0.00    -0.387 OA
ATOM     31  H3  UNL     1      35.554  -0.280  15.236  1.00  0.00     0.210 HD
ENDBRANCH  10  30
BRANCH  11  32
HETATM   32  C16 UNL     1      37.163   1.236  13.672  1.00  0.00     0.243 C 
HETATM   33  O4  UNL     1      36.135   1.700  13.295  1.00  0.00    -0.306 OA
ENDBRANCH  11  32
BRANCH   8  34
HETATM   34  O1  UNL     1      39.049  -2.917  14.927  1.00  0.00    -0.283 OA
BRANCH  34  35
HETATM   35  C9  UNL     1      38.190  -3.726  14.282  1.00  0.00     0.267 C 
HETATM   36  O2  UNL     1      37.070  -3.300  13.968  1.00  0.00    -0.265 OA
BRANCH  35  37
HETATM   37  C10 UNL     1      38.496  -5.122  13.914  1.00  0.00     0.078 C 
HETATM   38  C11 UNL     1      37.359  -6.069  14.239  1.00  0.00     0.020 C 
HETATM   39  C12 UNL     1      39.734  -5.666  14.619  1.00  0.00     0.020 C 
ENDBRANCH  35  37
ENDBRANCH  34  35
ENDBRANCH   8  34
TORSDOF 9
ENDMDL
MODEL 5
REMARK VINA RESULT: -6.106700083      2.821      6.517
REMARK  9 active torsions:
REMARK  status: ('A' for Active; 'I' for Inactive)
REMARK    1  A    between atoms: C8_8  and  O1_9 
REMARK    2  A    between atoms: O1_9  and  C9_10 
REMARK    3  A    between atoms: C9_10  and  C10_12 
REMARK    4  A    between atoms: C14_16  and  O3_17 
REMARK    5  A    between atoms: C15_19  and  C16_20 
REMARK    6  A    between atoms: C19_24  and  C21_26 
REMARK       I    between atoms: C21_26  and  N1_28 
REMARK    7  A    between atoms: N1_28  and  C22_30 
REMARK    8  A    between atoms: C22_30  and  C23_31 
REMARK    9  A    between atoms: C23_31  and  N2_32 
ROOT
HETATM    1  C1  UNL     1      42.298   1.264  11.696  1.00  0.00     0.010 C 
HETATM    2  C2  UNL     1      40.898   1.064  12.206  1.00  0.00    -0.014 C 
HETATM    3  C3  UNL     1      40.436  -0.307  11.968  1.00  0.00     0.005 C 
HETATM    4  C4  UNL     1      39.165  -0.682  12.701  1.00  0.00     0.014 C 
HETATM    5  C5  UNL     1      39.493  -0.453  14.184  1.00  0.00    -0.015 C 
HETATM    6  C6  UNL     1      40.851  -1.180  14.337  1.00  0.00     0.020 C 
HETATM    7  C7  UNL     1      39.613   0.989  14.321  1.00  0.00    -0.041 C 
HETATM    8  C8  UNL     1      39.002   2.117  14.751  1.00  0.00     0.063 C 
HETATM    9  C13 UNL     1      37.671   2.262  15.358  1.00  0.00     0.106 C 
HETATM   10  C14 UNL     1      37.458   1.720  16.715  1.00  0.00     0.093 C 
HETATM   11  C15 UNL     1      37.541   0.224  16.833  1.00  0.00     0.046 C 
HETATM   12  C17 UNL     1      36.342  -0.168  17.729  1.00  0.00     0.021 C 
HETATM   13  C18 UNL     1      35.311   0.777  17.106  1.00  0.00     0.023 C 
HETATM   14  C19 UNL     1      36.112   2.074  17.262  1.00  0.00     0.070 C 
HETATM   15  C20 UNL     1      36.178   2.304  18.772  1.00  0.00     0.029 C 
HETATM   16  C27 UNL     1      37.371  -0.533  15.561  1.00  0.00     0.025 C 
HETATM   17  C28 UNL     1      38.615  -1.209  15.099  1.00  0.00    -0.005 C 
HETATM   18  C29 UNL     1      38.246  -2.543  14.459  1.00  0.00     0.011 C 
HETATM   19  C30 UNL     1      40.864   1.525  13.666  1.00  0.00     0.041 C 
ENDROOT
BRANCH  14  20
HETATM   20  C21 UNL     1      35.343   3.117  16.607  1.00  0.00     0.229 C 
HETATM   21  O5  UNL     1      34.124   2.980  16.355  1.00  0.00    -0.273 OA
HETATM   22  N1  UNL     1      35.952   4.333  16.229  1.00  0.00    -0.359 N 
ATOM     23  H1  UNL     1      36.943   4.482  16.422  1.00  0.00     0.162 HD
BRANCH  22  24
HETATM   24  C22 UNL     1      35.189   5.370  15.570  1.00  0.00     0.150 C 
BRANCH  24  25
HETATM   25  C23 UNL     1      35.256   5.359  14.083  1.00  0.00     0.255 C 
BRANCH  25  26
HETATM   26  N2  UNL     1      35.061   6.681  13.506  1.00  0.00    -0.077 N 
HETATM   27  C24 UNL     1      33.710   7.146  13.628  1.00  0.00     0.271 C 
HETATM   28  C25 UNL     1      36.019   7.583  14.120  1.00  0.00     0.271 C 
HETATM   29  C26 UNL     1      35.416   6.589  12.101  1.00  0.00     0.271 C 
ENDBRANCH  25  26
ENDBRANCH  24  25
ENDBRANCH  22  24
ENDBRANCH  14  20
BRANCH  10  30
HETATM   30  O3  UNL     1      38.408   2.338  17.568  1.00  0.00    -0.387 OA
ATOM     31  H3  UNL     1      37.956   2.567  18.373  1.00  0.00     0.210 HD
ENDBRANCH  10  30
BRANCH  11  32
HETATM   32  C16 UNL     1      38.715  -0.236  17.626  1.00  0.00     0.243 C 
HETATM   33  O4  UNL     1      38.862  -0.193  18.805  1.00  0.00    -0.306 OA
ENDBRANCH  11  32
BRANCH   8  34
HETATM   34  O1  UNL     1      39.819   3.166  14.530  1.00  0.00    -0.283 OA
BRANCH  34  35
HETATM   35  C9  UNL     1      39.819   4.455  14.914  1.00  0.00     0.267 C 
HETATM   36  O2  UNL     1      39.390   5.321  14.142  1.00  0.00    -0.265 OA
BRANCH  35  37
HETATM   37  C10 UNL     1      40.310   4.919  16.227  1.00  0.00     0.078 C 
HETATM   38  C11 UNL     1      39.273   5.727  16.979  1.00  0.00     0.020 C 
HETATM   39  C12 UNL     1      41.554   5.794  16.122  1.00  0.00     0.020 C 
ENDBRANCH  35  37
ENDBRANCH  34  35
ENDBRANCH   8  34
TORSDOF 9
ENDMDL
