MODEL 1
REMARK VINA RESULT: -6.064096241      0.000      0.000
REMARK  5 active torsions:
REMARK  status: ('A' for Active; 'I' for Inactive)
REMARK    1  A    between atoms: C2_2  and  C3_3 
REMARK    2  A    between atoms: C3_3  and  C4_4 
REMARK    3  A    between atoms: C4_4  and  N1_5 
REMARK    4  A    between atoms: N1_5  and  C5_6 
REMARK    5  A    between atoms: N1_5  and  C9_17 
ROOT
HETATM    1  C5  UNL     1      45.059  13.744   1.654  1.00  0.00     0.679 C 
HETATM    2  N2  UNL     1      44.536  13.336   0.575  1.00  0.00    -0.226 N 
ATOM      3  H2  UNL     1      43.933  14.004   0.096  1.00  0.00     0.177 HD
HETATM    4  C6  UNL     1      44.678  12.067  -0.058  1.00  0.00     0.145 C 
HETATM    5  C7  UNL     1      45.359  11.025   0.777  1.00  0.00     0.097 C 
HETATM    6  C8  UNL     1      46.149  11.582   1.880  1.00  0.00     0.092 C 
HETATM    7  N3  UNL     1      47.091  10.851   2.393  1.00  0.00    -0.388 N 
ATOM      8  H31 UNL     1      47.641  11.239   3.161  1.00  0.00     0.157 HD
ATOM      9  H32 UNL     1      47.257   9.917   2.020  1.00  0.00     0.157 HD
HETATM   10  N4  UNL     1      45.920  12.874   2.395  1.00  0.00    -0.181 N 
ATOM     11  H4  UNL     1      46.353  13.178   3.266  1.00  0.00     0.185 HD
ENDROOT
BRANCH   1  12
HETATM   12  N1  UNL     1      44.816  15.056   2.159  1.00  0.00    -0.189 N 
BRANCH  12  13
HETATM   13  C4  UNL     1      43.856  15.950   1.545  1.00  0.00     0.144 C 
BRANCH  13  14
HETATM   14  C3  UNL     1      44.557  16.672   0.416  1.00  0.00     0.020 C 
BRANCH  14  15
HETATM   15  C2  UNL     1      43.932  16.328  -0.928  1.00  0.00    -0.003 C 
HETATM   16  C1  UNL     1      44.644  17.161  -1.971  1.00  0.00     0.005 C 
ENDBRANCH  14  15
ENDBRANCH  13  14
ENDBRANCH  12  13
BRANCH  12  17
HETATM   17  C9  UNL     1      45.559  15.482   3.313  1.00  0.00     0.264 C 
HETATM   18  C10 UNL     1      45.182  16.887   3.720  1.00  0.00     0.222 C 
HETATM   19  O1  UNL     1      45.711  17.263   4.945  1.00  0.00    -0.385 OA
HETATM   20  C11 UNL     1      46.681  16.353   5.330  1.00  0.00     0.194 C 
HETATM   21  C12 UNL     1      47.583  15.979   4.181  1.00  0.00     0.196 C 
HETATM   22  O2  UNL     1      46.933  15.486   3.078  1.00  0.00    -0.362 OA
ENDBRANCH  12  17
ENDBRANCH   1  12
TORSDOF 5
ENDMDL
MODEL 2
REMARK VINA RESULT: -5.912973853      0.691      1.531
REMARK  5 active torsions:
REMARK  status: ('A' for Active; 'I' for Inactive)
REMARK    1  A    between atoms: C2_2  and  C3_3 
REMARK    2  A    between atoms: C3_3  and  C4_4 
REMARK    3  A    between atoms: C4_4  and  N1_5 
REMARK    4  A    between atoms: N1_5  and  C5_6 
REMARK    5  A    between atoms: N1_5  and  C9_17 
ROOT
HETATM    1  C5  UNL     1      45.312  13.613   1.952  1.00  0.00     0.679 C 
HETATM    2  N2  UNL     1      46.074  12.868   2.638  1.00  0.00    -0.226 N 
ATOM      3  H2  UNL     1      46.417  13.271   3.510  1.00  0.00     0.177 HD
HETATM    4  C6  UNL     1      46.515  11.544   2.354  1.00  0.00     0.145 C 
HETATM    5  C7  UNL     1      46.205  11.067   0.966  1.00  0.00     0.097 C 
HETATM    6  C8  UNL     1      45.139  11.829   0.309  1.00  0.00     0.092 C 
HETATM    7  N3  UNL     1      44.506  11.276  -0.681  1.00  0.00    -0.388 N 
ATOM      8  H31 UNL     1      43.764  11.806  -1.138  1.00  0.00     0.157 HD
ATOM      9  H32 UNL     1      44.764  10.334  -0.974  1.00  0.00     0.157 HD
HETATM   10  N4  UNL     1      44.782  13.131   0.714  1.00  0.00    -0.181 N 
ATOM     11  H4  UNL     1      44.167  13.710   0.143  1.00  0.00     0.185 HD
ENDROOT
BRANCH   1  12
HETATM   12  N1  UNL     1      44.961  14.928   2.380  1.00  0.00    -0.189 N 
BRANCH  12  13
HETATM   13  C4  UNL     1      43.893  15.680   1.753  1.00  0.00     0.144 C 
BRANCH  13  14
HETATM   14  C3  UNL     1      44.495  16.475   0.617  1.00  0.00     0.020 C 
BRANCH  14  15
HETATM   15  C2  UNL     1      43.798  16.167  -0.700  1.00  0.00    -0.003 C 
HETATM   16  C1  UNL     1      44.491  16.984  -1.768  1.00  0.00     0.005 C 
ENDBRANCH  14  15
ENDBRANCH  13  14
ENDBRANCH  12  13
BRANCH  12  17
HETATM   17  C9  UNL     1      45.704  15.504   3.466  1.00  0.00     0.264 C 
HETATM   18  C10 UNL     1      45.121  16.834   3.884  1.00  0.00     0.222 C 
HETATM   19  O1  UNL     1      45.669  17.326   5.059  1.00  0.00    -0.385 OA
HETATM   20  C11 UNL     1      46.806  16.606   5.378  1.00  0.00     0.194 C 
HETATM   21  C12 UNL     1      47.671  16.361   4.167  1.00  0.00     0.196 C 
HETATM   22  O2  UNL     1      47.035  15.736   3.124  1.00  0.00    -0.362 OA
ENDBRANCH  12  17
ENDBRANCH   1  12
TORSDOF 5
ENDMDL
MODEL 3
REMARK VINA RESULT: -5.729185596      1.830      3.682
REMARK  5 active torsions:
REMARK  status: ('A' for Active; 'I' for Inactive)
REMARK    1  A    between atoms: C2_2  and  C3_3 
REMARK    2  A    between atoms: C3_3  and  C4_4 
REMARK    3  A    between atoms: C4_4  and  N1_5 
REMARK    4  A    between atoms: N1_5  and  C5_6 
REMARK    5  A    between atoms: N1_5  and  C9_17 
ROOT
HETATM    1  C5  UNL     1      45.806  12.203   1.756  1.00  0.00     0.679 C 
HETATM    2  N2  UNL     1      44.781  11.648   1.259  1.00  0.00    -0.226 N 
ATOM      3  H2  UNL     1      43.910  12.172   1.342  1.00  0.00     0.177 HD
HETATM    4  C6  UNL     1      44.683  10.390   0.598  1.00  0.00     0.145 C 
HETATM    5  C7  UNL     1      45.909   9.532   0.703  1.00  0.00     0.097 C 
HETATM    6  C8  UNL     1      47.120  10.281   1.053  1.00  0.00     0.092 C 
HETATM    7  N3  UNL     1      48.273   9.757   0.768  1.00  0.00    -0.388 N 
ATOM      8  H31 UNL     1      49.115  10.279   1.012  1.00  0.00     0.157 HD
ATOM      9  H32 UNL     1      48.308   8.846   0.311  1.00  0.00     0.157 HD
HETATM   10  N4  UNL     1      47.072  11.541   1.684  1.00  0.00    -0.181 N 
ATOM     11  H4  UNL     1      47.912  11.965   2.077  1.00  0.00     0.185 HD
ENDROOT
BRANCH   1  12
HETATM   12  N1  UNL     1      45.738  13.480   2.390  1.00  0.00    -0.189 N 
BRANCH  12  13
HETATM   13  C4  UNL     1      46.240  13.699   3.730  1.00  0.00     0.144 C 
BRANCH  13  14
HETATM   14  C3  UNL     1      47.204  14.863   3.676  1.00  0.00     0.020 C 
BRANCH  14  15
HETATM   15  C2  UNL     1      46.828  15.935   4.688  1.00  0.00    -0.003 C 
HETATM   16  C1  UNL     1      46.591  17.211   3.911  1.00  0.00     0.005 C 
ENDBRANCH  14  15
ENDBRANCH  13  14
ENDBRANCH  12  13
BRANCH  12  17
HETATM   17  C9  UNL     1      45.148  14.565   1.656  1.00  0.00     0.264 C 
HETATM   18  C10 UNL     1      43.941  15.121   2.375  1.00  0.00     0.222 C 
HETATM   19  O1  UNL     1      43.468  16.298   1.818  1.00  0.00    -0.385 OA
HETATM   20  C11 UNL     1      44.052  16.494   0.579  1.00  0.00     0.194 C 
HETATM   21  C12 UNL     1      44.092  15.221  -0.228  1.00  0.00     0.196 C 
HETATM   22  O2  UNL     1      44.718  14.169   0.391  1.00  0.00    -0.362 OA
ENDBRANCH  12  17
ENDBRANCH   1  12
TORSDOF 5
ENDMDL
MODEL 4
REMARK VINA RESULT: -5.521114033      2.050      4.569
REMARK  5 active torsions:
REMARK  status: ('A' for Active; 'I' for Inactive)
REMARK    1  A    between atoms: C2_2  and  C3_3 
REMARK    2  A    between atoms: C3_3  and  C4_4 
REMARK    3  A    between atoms: C4_4  and  N1_5 
REMARK    4  A    between atoms: N1_5  and  C5_6 
REMARK    5  A    between atoms: N1_5  and  C9_17 
ROOT
HETATM    1  C5  UNL     1      45.649  15.505   3.276  1.00  0.00     0.679 C 
HETATM    2  N2  UNL     1      45.016  15.962   4.274  1.00  0.00    -0.226 N 
ATOM      3  H2  UNL     1      44.010  15.799   4.272  1.00  0.00     0.177 HD
HETATM    4  C6  UNL     1      45.524  16.674   5.398  1.00  0.00     0.145 C 
HETATM    5  C7  UNL     1      46.950  17.117   5.266  1.00  0.00     0.097 C 
HETATM    6  C8  UNL     1      47.701  16.377   4.246  1.00  0.00     0.092 C 
HETATM    7  N3  UNL     1      48.997  16.364   4.323  1.00  0.00    -0.388 N 
ATOM      8  H31 UNL     1      49.519  15.849   3.613  1.00  0.00     0.157 HD
ATOM      9  H32 UNL     1      49.457  16.864   5.084  1.00  0.00     0.157 HD
HETATM   10  N4  UNL     1      47.065  15.686   3.194  1.00  0.00    -0.181 N 
ATOM     11  H4  UNL     1      47.598  15.328   2.402  1.00  0.00     0.185 HD
ENDROOT
BRANCH   1  12
HETATM   12  N1  UNL     1      44.988  14.806   2.222  1.00  0.00    -0.189 N 
BRANCH  12  13
HETATM   13  C4  UNL     1      43.809  15.337   1.569  1.00  0.00     0.144 C 
BRANCH  13  14
HETATM   14  C3  UNL     1      44.260  16.422   0.618  1.00  0.00     0.020 C 
BRANCH  14  15
HETATM   15  C2  UNL     1      43.920  16.067  -0.823  1.00  0.00    -0.003 C 
HETATM   16  C1  UNL     1      44.614  17.084  -1.702  1.00  0.00     0.005 C 
ENDBRANCH  14  15
ENDBRANCH  13  14
ENDBRANCH  12  13
BRANCH  12  17
HETATM   17  C9  UNL     1      45.526  13.538   1.813  1.00  0.00     0.264 C 
HETATM   18  C10 UNL     1      44.448  12.638   1.256  1.00  0.00     0.222 C 
HETATM   19  O1  UNL     1      44.947  11.493   0.656  1.00  0.00    -0.385 OA
HETATM   20  C11 UNL     1      46.283  11.342   0.984  1.00  0.00     0.194 C 
HETATM   21  C12 UNL     1      46.535  11.620   2.445  1.00  0.00     0.196 C 
HETATM   22  O2  UNL     1      46.115  12.853   2.874  1.00  0.00    -0.362 OA
ENDBRANCH  12  17
ENDBRANCH   1  12
TORSDOF 5
ENDMDL
MODEL 5
REMARK VINA RESULT: -5.343847557      2.306      4.441
REMARK  5 active torsions:
REMARK  status: ('A' for Active; 'I' for Inactive)
REMARK    1  A    between atoms: C2_2  and  C3_3 
REMARK    2  A    between atoms: C3_3  and  C4_4 
REMARK    3  A    between atoms: C4_4  and  N1_5 
REMARK    4  A    between atoms: N1_5  and  C5_6 
REMARK    5  A    between atoms: N1_5  and  C9_17 
ROOT
HETATM    1  C5  UNL     1      44.550  13.090   0.546  1.00  0.00     0.679 C 
HETATM    2  N2  UNL     1      44.528  12.246   1.490  1.00  0.00    -0.226 N 
ATOM      3  H2  UNL     1      44.408  12.633   2.426  1.00  0.00     0.177 HD
HETATM    4  C6  UNL     1      44.650  10.828   1.419  1.00  0.00     0.145 C 
HETATM    5  C7  UNL     1      45.071  10.303   0.079  1.00  0.00     0.097 C 
HETATM    6  C8  UNL     1      44.847  11.250  -1.018  1.00  0.00     0.092 C 
HETATM    7  N3  UNL     1      44.770  10.786  -2.228  1.00  0.00    -0.388 N 
ATOM      8  H31 UNL     1      44.614  11.445  -2.990  1.00  0.00     0.157 HD
ATOM      9  H32 UNL     1      44.865   9.783  -2.384  1.00  0.00     0.157 HD
HETATM   10  N4  UNL     1      44.715  12.638  -0.802  1.00  0.00    -0.181 N 
ATOM     11  H4  UNL     1      44.736  13.296  -1.580  1.00  0.00     0.185 HD
ENDROOT
BRANCH   1  12
HETATM   12  N1  UNL     1      44.413  14.490   0.784  1.00  0.00    -0.189 N 
BRANCH  12  13
HETATM   13  C4  UNL     1      44.306  15.035   2.121  1.00  0.00     0.144 C 
BRANCH  13  14
HETATM   14  C3  UNL     1      45.650  14.869   2.795  1.00  0.00     0.020 C 
BRANCH  14  15
HETATM   15  C2  UNL     1      46.235  16.216   3.194  1.00  0.00    -0.003 C 
HETATM   16  C1  UNL     1      47.575  15.941   3.839  1.00  0.00     0.005 C 
ENDBRANCH  14  15
ENDBRANCH  13  14
ENDBRANCH  12  13
BRANCH  12  17
HETATM   17  C9  UNL     1      44.381  15.367  -0.354  1.00  0.00     0.264 C 
HETATM   18  C10 UNL     1      44.454  16.816   0.068  1.00  0.00     0.222 C 
HETATM   19  O1  UNL     1      44.640  17.686  -0.994  1.00  0.00    -0.385 OA
HETATM   20  C11 UNL     1      44.420  17.018  -2.186  1.00  0.00     0.194 C 
HETATM   21  C12 UNL     1      43.198  16.137  -2.115  1.00  0.00     0.196 C 
HETATM   22  O2  UNL     1      43.210  15.220  -1.095  1.00  0.00    -0.362 OA
ENDBRANCH  12  17
ENDBRANCH   1  12
TORSDOF 5
ENDMDL
