MODEL 1
REMARK VINA RESULT: -5.642583509      0.000      0.000
REMARK  4 active torsions:
REMARK  status: ('A' for Active; 'I' for Inactive)
REMARK    1  A    between atoms: N1_2  and  C2_5 
REMARK    2  A    between atoms: C7_10  and  N2_11 
REMARK    3  A    between atoms: N2_11  and  C8_13 
REMARK    4  A    between atoms: C11_19  and  N4_20 
ROOT
HETATM    1  N2  UNL     1      45.478  12.479   2.426  1.00  0.00    -0.360 N 
ATOM      2  H2  UNL     1      44.645  12.119   2.891  1.00  0.00     0.162 HD
ENDROOT
BRANCH   1   3
HETATM    3  C7  UNL     1      46.020  11.787   1.244  1.00  0.00     0.114 C 
HETATM    4  C2  UNL     1      44.927  11.611   0.257  1.00  0.00     0.207 C 
HETATM    5  C3  UNL     1      44.702  10.236  -0.267  1.00  0.00     0.035 C 
HETATM    6  C4  UNL     1      45.959   9.423  -0.405  1.00  0.00     0.002 C 
HETATM    7  C5  UNL     1      46.788   9.400   0.825  1.00  0.00     0.002 C 
HETATM    8  C6  UNL     1      46.701  10.562   1.731  1.00  0.00     0.027 C 
BRANCH   4   9
HETATM    9  N1  UNL     1      45.072  12.605  -0.785  1.00  0.00    -0.073 N 
HETATM   10  C1  UNL     1      44.299  12.342  -1.948  1.00  0.00     0.267 C 
ATOM     11  H12 UNL     1      46.055  12.728  -1.028  1.00  0.00     0.277 HD
ATOM     12  H11 UNL     1      44.866  13.537  -0.422  1.00  0.00     0.277 HD
ENDBRANCH   4   9
ENDBRANCH   1   3
BRANCH   1  13
HETATM   13  C8  UNL     1      46.055  13.539   2.872  1.00  0.00     0.202 A 
HETATM   14  O1  UNL     1      47.175  13.730   3.489  1.00  0.00    -0.217 OA
HETATM   15  N3  UNL     1      47.402  14.967   3.774  1.00  0.00    -0.261 N 
HETATM   16  C9  UNL     1      46.364  15.724   3.327  1.00  0.00     0.066 A 
ATOM     17  H3  UNL     1      48.227  15.321   4.258  1.00  0.00     0.194 HD
HETATM   18  C10 UNL     1      46.210  17.200   3.444  1.00  0.00     0.073 C 
HETATM   19  C11 UNL     1      45.498  14.823   2.749  1.00  0.00     0.179 A 
BRANCH  19  20
HETATM   20  N4  UNL     1      44.258  15.113   2.132  1.00  0.00    -0.109 N 
HETATM   21  O2  UNL     1      43.266  15.486   2.788  1.00  0.00    -0.532 OA
HETATM   22  O3  UNL     1      44.107  14.990   0.774  1.00  0.00    -0.532 OA
ENDBRANCH  19  20
ENDBRANCH   1  13
TORSDOF 4
ENDMDL
MODEL 2
REMARK VINA RESULT: -5.624420490      1.379      1.584
REMARK  4 active torsions:
REMARK  status: ('A' for Active; 'I' for Inactive)
REMARK    1  A    between atoms: N1_2  and  C2_5 
REMARK    2  A    between atoms: C7_10  and  N2_11 
REMARK    3  A    between atoms: N2_11  and  C8_13 
REMARK    4  A    between atoms: C11_19  and  N4_20 
ROOT
HETATM    1  N2  UNL     1      44.426  13.347   1.190  1.00  0.00    -0.360 N 
ATOM      2  H2  UNL     1      43.423  13.524   1.118  1.00  0.00     0.162 HD
ENDROOT
BRANCH   1   3
HETATM    3  C7  UNL     1      45.051  12.307   0.354  1.00  0.00     0.114 C 
HETATM    4  C2  UNL     1      44.655  12.533  -1.057  1.00  0.00     0.207 C 
HETATM    5  C3  UNL     1      44.071  11.378  -1.790  1.00  0.00     0.035 C 
HETATM    6  C4  UNL     1      44.648  10.048  -1.390  1.00  0.00     0.002 C 
HETATM    7  C5  UNL     1      44.637   9.815   0.075  1.00  0.00     0.002 C 
HETATM    8  C6  UNL     1      44.705  10.996   0.957  1.00  0.00     0.027 C 
BRANCH   4   9
HETATM    9  N1  UNL     1      45.755  13.162  -1.758  1.00  0.00    -0.073 N 
HETATM   10  C1  UNL     1      45.361  14.213  -2.629  1.00  0.00     0.267 C 
ATOM     11  H12 UNL     1      46.302  12.465  -2.263  1.00  0.00     0.277 HD
ATOM     12  H11 UNL     1      46.460  13.490  -1.097  1.00  0.00     0.277 HD
ENDBRANCH   4   9
ENDBRANCH   1   3
BRANCH   1  13
HETATM   13  C8  UNL     1      45.143  14.032   2.009  1.00  0.00     0.202 A 
HETATM   14  O1  UNL     1      46.064  13.698   2.853  1.00  0.00    -0.217 OA
HETATM   15  N3  UNL     1      46.552  14.698   3.505  1.00  0.00    -0.261 N 
HETATM   16  C9  UNL     1      45.933  15.839   3.097  1.00  0.00     0.066 A 
ATOM     17  H3  UNL     1      47.285  14.642   4.212  1.00  0.00     0.194 HD
HETATM   18  C10 UNL     1      46.184  17.223   3.586  1.00  0.00     0.073 C 
HETATM   19  C11 UNL     1      45.031  15.426   2.143  1.00  0.00     0.179 A 
BRANCH  19  20
HETATM   20  N4  UNL     1      44.137  16.242   1.410  1.00  0.00    -0.109 N 
HETATM   21  O2  UNL     1      43.713  17.325   1.858  1.00  0.00    -0.532 OA
HETATM   22  O3  UNL     1      43.704  15.861   0.165  1.00  0.00    -0.532 OA
ENDBRANCH  19  20
ENDBRANCH   1  13
TORSDOF 4
ENDMDL
MODEL 3
REMARK VINA RESULT: -5.577253380      2.363      5.257
REMARK  4 active torsions:
REMARK  status: ('A' for Active; 'I' for Inactive)
REMARK    1  A    between atoms: N1_2  and  C2_5 
REMARK    2  A    between atoms: C7_10  and  N2_11 
REMARK    3  A    between atoms: N2_11  and  C8_13 
REMARK    4  A    between atoms: C11_19  and  N4_20 
ROOT
HETATM    1  N2  UNL     1      44.470  14.577   1.898  1.00  0.00    -0.360 N 
ATOM      2  H2  UNL     1      43.601  14.624   2.431  1.00  0.00     0.162 HD
ENDROOT
BRANCH   1   3
HETATM    3  C7  UNL     1      45.734  15.021   2.508  1.00  0.00     0.114 C 
HETATM    4  C2  UNL     1      46.021  14.161   3.682  1.00  0.00     0.207 C 
HETATM    5  C3  UNL     1      46.302  14.847   4.972  1.00  0.00     0.035 C 
HETATM    6  C4  UNL     1      47.029  16.155   4.820  1.00  0.00     0.002 C 
HETATM    7  C5  UNL     1      46.391  17.078   3.850  1.00  0.00     0.002 C 
HETATM    8  C6  UNL     1      45.614  16.481   2.747  1.00  0.00     0.027 C 
BRANCH   4   9
HETATM    9  N1  UNL     1      47.029  13.189   3.316  1.00  0.00    -0.073 N 
HETATM   10  C1  UNL     1      46.502  11.953   2.855  1.00  0.00     0.267 C 
ATOM     11  H12 UNL     1      47.676  13.036   4.089  1.00  0.00     0.277 HD
ATOM     12  H11 UNL     1      47.673  13.582   2.628  1.00  0.00     0.277 HD
ENDBRANCH   4   9
ENDBRANCH   1   3
BRANCH   1  13
HETATM   13  C8  UNL     1      44.459  14.130   0.691  1.00  0.00     0.202 A 
HETATM   14  O1  UNL     1      44.672  12.956   0.193  1.00  0.00    -0.217 OA
HETATM   15  N3  UNL     1      44.567  12.914  -1.092  1.00  0.00    -0.261 N 
HETATM   16  C9  UNL     1      44.254  14.156  -1.552  1.00  0.00     0.066 A 
ATOM     17  H3  UNL     1      44.698  12.084  -1.669  1.00  0.00     0.194 HD
HETATM   18  C10 UNL     1      44.039  14.563  -2.968  1.00  0.00     0.073 C 
HETATM   19  C11 UNL     1      44.183  14.940  -0.423  1.00  0.00     0.179 A 
BRANCH  19  20
HETATM   20  N4  UNL     1      43.884  16.322  -0.366  1.00  0.00    -0.109 N 
HETATM   21  O2  UNL     1      43.067  16.787   0.452  1.00  0.00    -0.532 OA
HETATM   22  O3  UNL     1      44.492  17.205  -1.222  1.00  0.00    -0.532 OA
ENDBRANCH  19  20
ENDBRANCH   1  13
TORSDOF 4
ENDMDL
MODEL 4
REMARK VINA RESULT: -5.568971104      2.448      5.513
REMARK  4 active torsions:
REMARK  status: ('A' for Active; 'I' for Inactive)
REMARK    1  A    between atoms: N1_2  and  C2_5 
REMARK    2  A    between atoms: C7_10  and  N2_11 
REMARK    3  A    between atoms: N2_11  and  C8_13 
REMARK    4  A    between atoms: C11_19  and  N4_20 
ROOT
HETATM    1  N2  UNL     1      44.400  14.933   2.003  1.00  0.00    -0.360 N 
ATOM      2  H2  UNL     1      43.741  14.424   2.592  1.00  0.00     0.162 HD
ENDROOT
BRANCH   1   3
HETATM    3  C7  UNL     1      45.716  15.323   2.536  1.00  0.00     0.114 C 
HETATM    4  C2  UNL     1      46.058  14.418   3.660  1.00  0.00     0.207 C 
HETATM    5  C3  UNL     1      46.448  15.054   4.948  1.00  0.00     0.035 C 
HETATM    6  C4  UNL     1      47.201  16.345   4.785  1.00  0.00     0.002 C 
HETATM    7  C5  UNL     1      46.525  17.316   3.890  1.00  0.00     0.002 C 
HETATM    8  C6  UNL     1      45.656  16.777   2.827  1.00  0.00     0.027 C 
BRANCH   4   9
HETATM    9  N1  UNL     1      47.009  13.431   3.195  1.00  0.00    -0.073 N 
HETATM   10  C1  UNL     1      46.441  12.155   2.938  1.00  0.00     0.267 C 
ATOM     11  H12 UNL     1      47.789  13.351   3.848  1.00  0.00     0.277 HD
ATOM     12  H11 UNL     1      47.507  13.773   2.373  1.00  0.00     0.277 HD
ENDBRANCH   4   9
ENDBRANCH   1   3
BRANCH   1  13
HETATM   13  C8  UNL     1      44.080  15.235   0.794  1.00  0.00     0.202 A 
HETATM   14  O1  UNL     1      43.552  16.291   0.267  1.00  0.00    -0.217 OA
HETATM   15  N3  UNL     1      43.384  16.203  -1.008  1.00  0.00    -0.261 N 
HETATM   16  C9  UNL     1      43.826  14.988  -1.431  1.00  0.00     0.066 A 
ATOM     17  H3  UNL     1      42.985  16.928  -1.604  1.00  0.00     0.194 HD
HETATM   18  C10 UNL     1      43.821  14.463  -2.825  1.00  0.00     0.073 C 
HETATM   19  C11 UNL     1      44.272  14.361  -0.290  1.00  0.00     0.179 A 
BRANCH  19  20
HETATM   20  N4  UNL     1      44.831  13.065  -0.196  1.00  0.00    -0.109 N 
HETATM   21  O2  UNL     1      44.360  12.196   0.565  1.00  0.00    -0.532 OA
HETATM   22  O3  UNL     1      45.924  12.718  -0.949  1.00  0.00    -0.532 OA
ENDBRANCH  19  20
ENDBRANCH   1  13
TORSDOF 4
ENDMDL
MODEL 5
REMARK VINA RESULT: -5.515641696      1.467      2.058
REMARK  4 active torsions:
REMARK  status: ('A' for Active; 'I' for Inactive)
REMARK    1  A    between atoms: N1_2  and  C2_5 
REMARK    2  A    between atoms: C7_10  and  N2_11 
REMARK    3  A    between atoms: N2_11  and  C8_13 
REMARK    4  A    between atoms: C11_19  and  N4_20 
ROOT
HETATM    1  N2  UNL     1      44.459  11.770   1.009  1.00  0.00    -0.360 N 
ATOM      2  H2  UNL     1      43.454  11.830   1.178  1.00  0.00     0.162 HD
ENDROOT
BRANCH   1   3
HETATM    3  C7  UNL     1      44.965  11.034  -0.161  1.00  0.00     0.114 C 
HETATM    4  C2  UNL     1      44.566  11.765  -1.389  1.00  0.00     0.207 C 
HETATM    5  C3  UNL     1      43.860  10.987  -2.441  1.00  0.00     0.035 C 
HETATM    6  C4  UNL     1      44.313   9.557  -2.549  1.00  0.00     0.002 C 
HETATM    7  C5  UNL     1      44.308   8.835  -1.253  1.00  0.00     0.002 C 
HETATM    8  C6  UNL     1      44.506   9.629  -0.026  1.00  0.00     0.027 C 
BRANCH   4   9
HETATM    9  N1  UNL     1      45.708  12.502  -1.888  1.00  0.00    -0.073 N 
HETATM   10  C1  UNL     1      46.956  11.862  -1.658  1.00  0.00     0.267 C 
ATOM     11  H12 UNL     1      45.716  13.449  -1.508  1.00  0.00     0.277 HD
ATOM     12  H11 UNL     1      45.592  12.714  -2.879  1.00  0.00     0.277 HD
ENDBRANCH   4   9
ENDBRANCH   1   3
BRANCH   1  13
HETATM   13  C8  UNL     1      45.282  12.336   1.820  1.00  0.00     0.202 A 
HETATM   14  O1  UNL     1      46.230  11.873   2.567  1.00  0.00    -0.217 OA
HETATM   15  N3  UNL     1      46.840  12.782   3.249  1.00  0.00    -0.261 N 
HETATM   16  C9  UNL     1      46.286  13.994   2.969  1.00  0.00     0.066 A 
ATOM     17  H3  UNL     1      47.613  12.620   3.894  1.00  0.00     0.194 HD
HETATM   18  C10 UNL     1      46.678  15.314   3.534  1.00  0.00     0.073 C 
HETATM   19  C11 UNL     1      45.290  13.721   2.059  1.00  0.00     0.179 A 
BRANCH  19  20
HETATM   20  N4  UNL     1      44.415  14.653   1.453  1.00  0.00    -0.109 N 
HETATM   21  O2  UNL     1      43.670  15.392   2.126  1.00  0.00    -0.532 OA
HETATM   22  O3  UNL     1      44.358  14.774   0.088  1.00  0.00    -0.532 OA
ENDBRANCH  19  20
ENDBRANCH   1  13
TORSDOF 4
ENDMDL
