MODEL 1
REMARK VINA RESULT: -4.958710459      0.000      0.000
REMARK  2 active torsions:
REMARK  status: ('A' for Active; 'I' for Inactive)
REMARK    1  A    between atoms: N1_1  and  N2_4 
REMARK    2  A    between atoms: N2_4  and  N3_6 
ROOT
HETATM    1  N3  UNL     1       8.497   9.438  15.675  1.00  0.00    -0.275 N 
ATOM      2  H3  UNL     1       7.732   9.795  16.247  1.00  0.00     0.190 HD
HETATM    3  C1  UNL     1       9.675   9.943  15.757  1.00  0.00     0.103 C 
HETATM    4  N4  UNL     1      10.936   9.710  15.139  1.00  0.00    -0.377 N 
ATOM      5  H4  UNL     1      11.233   9.180  14.319  1.00  0.00     0.160 HD
HETATM    6  C2  UNL     1      11.642  10.520  16.124  1.00  0.00     0.138 C 
HETATM    7  C3  UNL     1      10.321  11.014  16.526  1.00  0.00     0.035 A 
HETATM    8  C4  UNL     1       9.909  11.487  17.818  1.00  0.00     0.020 A 
HETATM    9  C5  UNL     1       9.877  12.384  16.571  1.00  0.00     0.020 A 
ENDROOT
BRANCH   1  10
HETATM   10  N2  UNL     1       8.292   8.385  14.781  1.00  0.00    -0.248 N 
ATOM     11  H2  UNL     1       8.232   8.542  13.775  1.00  0.00     0.207 HD
BRANCH  10  12
HETATM   12  N1  UNL     1       8.182   7.206  15.287  1.00  0.00    -0.331 N 
ATOM     13  H12 UNL     1       8.451   7.028  16.254  1.00  0.00     0.178 HD
ATOM     14  H11 UNL     1       7.818   6.476  14.676  1.00  0.00     0.178 HD
ENDBRANCH  10  12
ENDBRANCH   1  10
TORSDOF 2
ENDMDL
MODEL 2
REMARK VINA RESULT: -4.690785917      1.039      1.688
REMARK  2 active torsions:
REMARK  status: ('A' for Active; 'I' for Inactive)
REMARK    1  A    between atoms: N1_1  and  N2_4 
REMARK    2  A    between atoms: N2_4  and  N3_6 
ROOT
HETATM    1  N3  UNL     1       8.514   9.557  15.355  1.00  0.00    -0.275 N 
ATOM      2  H3  UNL     1       8.611  10.156  14.535  1.00  0.00     0.190 HD
HETATM    3  C1  UNL     1       9.127   9.833  16.450  1.00  0.00     0.103 C 
HETATM    4  N4  UNL     1       9.226   9.250  17.745  1.00  0.00    -0.377 N 
ATOM      5  H4  UNL     1       8.969   8.342  18.131  1.00  0.00     0.160 HD
HETATM    6  C2  UNL     1       9.835  10.448  18.310  1.00  0.00     0.138 C 
HETATM    7  C3  UNL     1      10.035  10.885  16.924  1.00  0.00     0.035 A 
HETATM    8  C4  UNL     1      10.100  12.228  16.421  1.00  0.00     0.020 A 
HETATM    9  C5  UNL     1      11.278  11.251  16.293  1.00  0.00     0.020 A 
ENDROOT
BRANCH   1  10
HETATM   10  N2  UNL     1       7.712   8.414  15.318  1.00  0.00    -0.248 N 
ATOM     11  H2  UNL     1       6.695   8.474  15.348  1.00  0.00     0.207 HD
BRANCH  10  12
HETATM   12  N1  UNL     1       8.319   7.281  15.245  1.00  0.00    -0.331 N 
ATOM     13  H12 UNL     1       9.242   7.158  15.660  1.00  0.00     0.178 HD
ATOM     14  H11 UNL     1       7.833   6.530  14.757  1.00  0.00     0.178 HD
ENDBRANCH  10  12
ENDBRANCH   1  10
TORSDOF 2
ENDMDL
MODEL 3
REMARK VINA RESULT: -4.279755044      2.446      3.836
REMARK  2 active torsions:
REMARK  status: ('A' for Active; 'I' for Inactive)
REMARK    1  A    between atoms: N1_1  and  N2_4 
REMARK    2  A    between atoms: N2_4  and  N3_6 
ROOT
HETATM    1  N3  UNL     1       9.374  11.617  16.208  1.00  0.00    -0.275 N 
ATOM      2  H3  UNL     1       8.790  11.836  15.401  1.00  0.00     0.190 HD
HETATM    3  C1  UNL     1       9.738  10.409  16.450  1.00  0.00     0.103 C 
HETATM    4  N4  UNL     1      10.519   9.753  17.443  1.00  0.00    -0.377 N 
ATOM      5  H4  UNL     1      10.881  10.033  18.355  1.00  0.00     0.160 HD
HETATM    6  C2  UNL     1      10.606   8.527  16.659  1.00  0.00     0.138 C 
HETATM    7  C3  UNL     1       9.535   9.093  15.831  1.00  0.00     0.035 A 
HETATM    8  C4  UNL     1       9.270   8.850  14.441  1.00  0.00     0.020 A 
HETATM    9  C5  UNL     1       8.252   8.505  15.539  1.00  0.00     0.020 A 
ENDROOT
BRANCH   1  10
HETATM   10  N2  UNL     1       9.800  12.621  17.079  1.00  0.00    -0.248 N 
ATOM     11  H2  UNL     1       9.498  12.647  18.053  1.00  0.00     0.207 HD
BRANCH  10  12
HETATM   12  N1  UNL     1      10.593  13.513  16.595  1.00  0.00    -0.331 N 
ATOM     13  H12 UNL     1      10.287  14.480  16.494  1.00  0.00     0.178 HD
ATOM     14  H11 UNL     1      11.525  13.201  16.323  1.00  0.00     0.178 HD
ENDBRANCH  10  12
ENDBRANCH   1  10
TORSDOF 2
ENDMDL
MODEL 4
REMARK VINA RESULT: -3.858249243      2.390      3.709
REMARK  2 active torsions:
REMARK  status: ('A' for Active; 'I' for Inactive)
REMARK    1  A    between atoms: N1_1  and  N2_4 
REMARK    2  A    between atoms: N2_4  and  N3_6 
ROOT
HETATM    1  N3  UNL     1       9.248  11.362  16.739  1.00  0.00    -0.275 N 
ATOM      2  H3  UNL     1       8.238  11.267  16.842  1.00  0.00     0.190 HD
HETATM    3  C1  UNL     1       9.923  10.519  16.043  1.00  0.00     0.103 C 
HETATM    4  N4  UNL     1      11.291  10.340  15.692  1.00  0.00    -0.377 N 
ATOM      5  H4  UNL     1      12.165  10.740  16.034  1.00  0.00     0.160 HD
HETATM    6  C2  UNL     1      10.966   9.367  14.656  1.00  0.00     0.138 C 
HETATM    7  C3  UNL     1       9.631   9.312  15.259  1.00  0.00     0.035 A 
HETATM    8  C4  UNL     1       8.382   9.009  14.617  1.00  0.00     0.020 A 
HETATM    9  C5  UNL     1       8.944   8.147  15.758  1.00  0.00     0.020 A 
ENDROOT
BRANCH   1  10
HETATM   10  N2  UNL     1       9.935  12.413  17.349  1.00  0.00    -0.248 N 
ATOM     11  H2  UNL     1      10.160  12.398  18.343  1.00  0.00     0.207 HD
BRANCH  10  12
HETATM   12  N1  UNL     1      10.272  13.401  16.596  1.00  0.00    -0.331 N 
ATOM     13  H12 UNL     1      10.653  14.257  17.000  1.00  0.00     0.178 HD
ATOM     14  H11 UNL     1      10.137  13.282  15.592  1.00  0.00     0.178 HD
ENDBRANCH  10  12
ENDBRANCH   1  10
TORSDOF 2
ENDMDL
MODEL 5
REMARK VINA RESULT: -3.494095735      2.532      3.729
REMARK  2 active torsions:
REMARK  status: ('A' for Active; 'I' for Inactive)
REMARK    1  A    between atoms: N1_1  and  N2_4 
REMARK    2  A    between atoms: N2_4  and  N3_6 
ROOT
HETATM    1  N3  UNL     1      10.123  11.389  17.565  1.00  0.00    -0.275 N 
ATOM      2  H3  UNL     1      10.647  11.315  18.437  1.00  0.00     0.190 HD
HETATM    3  C1  UNL     1       9.995  10.378  16.783  1.00  0.00     0.103 C 
HETATM    4  N4  UNL     1       9.361  10.120  15.535  1.00  0.00    -0.377 N 
ATOM      5  H4  UNL     1       8.963  10.717  14.809  1.00  0.00     0.160 HD
HETATM    6  C2  UNL     1       9.498   8.677  15.688  1.00  0.00     0.138 C 
HETATM    7  C3  UNL     1      10.434   8.977  16.776  1.00  0.00     0.035 A 
HETATM    8  C4  UNL     1      10.725   8.182  17.936  1.00  0.00     0.020 A 
HETATM    9  C5  UNL     1      11.801   8.538  16.899  1.00  0.00     0.020 A 
ENDROOT
BRANCH   1  10
HETATM   10  N2  UNL     1       9.526  12.594  17.188  1.00  0.00    -0.248 N 
ATOM     11  H2  UNL     1       8.593  12.851  17.509  1.00  0.00     0.207 HD
BRANCH  10  12
HETATM   12  N1  UNL     1      10.209  13.364  16.415  1.00  0.00    -0.331 N 
ATOM     13  H12 UNL     1      10.228  14.372  16.570  1.00  0.00     0.178 HD
ATOM     14  H11 UNL     1      10.719  12.916  15.654  1.00  0.00     0.178 HD
ENDBRANCH  10  12
ENDBRANCH   1  10
TORSDOF 2
ENDMDL
