MODEL 1
REMARK VINA RESULT: -5.138039787      0.000      0.000
REMARK  9 active torsions:
REMARK  status: ('A' for Active; 'I' for Inactive)
REMARK    1  A    between atoms: O1_2  and  N1_3 
REMARK    2  A    between atoms: N1_3  and  C2_5 
REMARK    3  A    between atoms: C2_5  and  N2_7 
REMARK    4  A    between atoms: N2_7  and  N3_9 
REMARK    5  A    between atoms: N3_9  and  C3_11 
REMARK    6  A    between atoms: C4_12  and  N4_13 
REMARK    7  A    between atoms: C6_18  and  N5_19 
REMARK    8  A    between atoms: C7_23  and  N6_24 
REMARK    9  A    between atoms: N6_24  and  N7_25 
ROOT
HETATM    1  C3  UNL     1      25.838  -9.190  15.518  1.00  0.00     0.152 C 
HETATM    2  C4  UNL     1      26.788  -8.055  15.274  1.00  0.00     0.211 C 
HETATM    3  C5  UNL     1      25.997  -6.955  14.596  1.00  0.00     0.069 C 
HETATM    4  C6  UNL     1      24.571  -7.435  14.668  1.00  0.00     0.208 C 
HETATM    5  C7  UNL     1      24.765  -8.938  14.480  1.00  0.00     0.155 C 
ENDROOT
BRANCH   1   6
HETATM    6  N3  UNL     1      26.401 -10.477  15.485  1.00  0.00    -0.326 N 
ATOM      7  H3  UNL     1      25.818 -11.298  15.328  1.00  0.00     0.180 HD
BRANCH   6   8
HETATM    8  N2  UNL     1      27.737 -10.598  15.668  1.00  0.00    -0.279 N 
ATOM      9  H2  UNL     1      28.366  -9.901  15.271  1.00  0.00     0.189 HD
BRANCH   8  10
HETATM   10  C2  UNL     1      28.267 -11.681  16.403  1.00  0.00     0.210 C 
HETATM   11  S1  UNL     1      29.868 -11.959  16.380  1.00  0.00    -0.037 SA
BRANCH  10  12
HETATM   12  N1  UNL     1      27.436 -12.540  17.168  1.00  0.00    -0.240 N 
ATOM     13  H1  UNL     1      26.882 -12.147  17.928  1.00  0.00     0.197 HD
BRANCH  12  14
HETATM   14  O1  UNL     1      27.359 -13.869  16.913  1.00  0.00    -0.283 OA
HETATM   15  C1  UNL     1      26.769 -14.534  18.000  1.00  0.00     0.237 C 
ENDBRANCH  12  14
ENDBRANCH  10  12
ENDBRANCH   8  10
ENDBRANCH   6   8
ENDBRANCH   1   6
BRANCH   2  16
HETATM   16  N4  UNL     1      27.313  -7.565  16.538  1.00  0.00    -0.073 N 
ATOM     17  H43 UNL     1      27.783  -6.666  16.434  1.00  0.00     0.274 HD
ATOM     18  H42 UNL     1      26.570  -7.272  17.172  1.00  0.00     0.274 HD
ATOM     19  H41 UNL     1      27.921  -8.267  16.960  1.00  0.00     0.274 HD
ENDBRANCH   2  16
BRANCH   5  20
HETATM   20  N6  UNL     1      23.555  -9.676  14.770  1.00  0.00    -0.139 NA
BRANCH  20  21
HETATM   21  N7  UNL     1      22.962  -9.117  15.908  1.00  0.00    -0.348 N 
ATOM     22  H72 UNL     1      23.447  -8.548  16.601  1.00  0.00     0.172 HD
ATOM     23  H71 UNL     1      21.976  -9.378  15.915  1.00  0.00     0.172 HD
ENDBRANCH  20  21
ENDBRANCH   5  20
BRANCH   4  24
HETATM   24  N5  UNL     1      23.717  -6.851  13.696  1.00  0.00    -0.073 N 
ATOM     25  H53 UNL     1      24.232  -6.653  12.837  1.00  0.00     0.274 HD
ATOM     26  H52 UNL     1      23.053  -7.538  13.342  1.00  0.00     0.274 HD
ATOM     27  H51 UNL     1      23.230  -6.016  14.022  1.00  0.00     0.274 HD
ENDBRANCH   4  24
TORSDOF 9
ENDMDL
MODEL 2
REMARK VINA RESULT: -5.060179676      1.804      2.052
REMARK  9 active torsions:
REMARK  status: ('A' for Active; 'I' for Inactive)
REMARK    1  A    between atoms: O1_2  and  N1_3 
REMARK    2  A    between atoms: N1_3  and  C2_5 
REMARK    3  A    between atoms: C2_5  and  N2_7 
REMARK    4  A    between atoms: N2_7  and  N3_9 
REMARK    5  A    between atoms: N3_9  and  C3_11 
REMARK    6  A    between atoms: C4_12  and  N4_13 
REMARK    7  A    between atoms: C6_18  and  N5_19 
REMARK    8  A    between atoms: C7_23  and  N6_24 
REMARK    9  A    between atoms: N6_24  and  N7_25 
ROOT
HETATM    1  C3  UNL     1      26.799  -9.360  15.751  1.00  0.00     0.152 C 
HETATM    2  C4  UNL     1      27.369  -7.998  15.489  1.00  0.00     0.211 C 
HETATM    3  C5  UNL     1      26.365  -7.257  14.629  1.00  0.00     0.069 C 
HETATM    4  C6  UNL     1      25.163  -8.165  14.610  1.00  0.00     0.208 C 
HETATM    5  C7  UNL     1      25.838  -9.534  14.595  1.00  0.00     0.155 C 
ENDROOT
BRANCH   1   6
HETATM    6  N3  UNL     1      27.735 -10.396  15.904  1.00  0.00    -0.326 N 
ATOM      7  H3  UNL     1      28.567 -10.440  15.316  1.00  0.00     0.180 HD
BRANCH   6   8
HETATM    8  N2  UNL     1      27.505 -11.336  16.850  1.00  0.00    -0.279 N 
ATOM      9  H2  UNL     1      26.880 -11.127  17.628  1.00  0.00     0.189 HD
BRANCH   8  10
HETATM   10  C2  UNL     1      28.123 -12.603  16.771  1.00  0.00     0.210 C 
HETATM   11  S1  UNL     1      27.457 -13.871  17.540  1.00  0.00    -0.037 SA
BRANCH  10  12
HETATM   12  N1  UNL     1      29.319 -12.804  16.033  1.00  0.00    -0.240 N 
ATOM     13  H1  UNL     1      29.275 -13.301  15.144  1.00  0.00     0.197 HD
BRANCH  12  14
HETATM   14  O1  UNL     1      30.516 -12.353  16.481  1.00  0.00    -0.283 OA
HETATM   15  C1  UNL     1      31.377 -13.435  16.726  1.00  0.00     0.237 C 
ENDBRANCH  12  14
ENDBRANCH  10  12
ENDBRANCH   8  10
ENDBRANCH   6   8
ENDBRANCH   1   6
BRANCH   2  16
HETATM   16  N4  UNL     1      27.553  -7.285  16.742  1.00  0.00    -0.073 N 
ATOM     17  H43 UNL     1      27.448  -7.899  17.550  1.00  0.00     0.274 HD
ATOM     18  H42 UNL     1      28.524  -7.012  16.888  1.00  0.00     0.274 HD
ATOM     19  H41 UNL     1      26.920  -6.486  16.785  1.00  0.00     0.274 HD
ENDBRANCH   2  16
BRANCH   5  20
HETATM   20  N6  UNL     1      24.894 -10.603  14.837  1.00  0.00    -0.139 NA
BRANCH  20  21
HETATM   21  N7  UNL     1      23.744 -10.048  15.412  1.00  0.00    -0.348 N 
ATOM     22  H72 UNL     1      23.144  -9.352  14.969  1.00  0.00     0.172 HD
ATOM     23  H71 UNL     1      23.620 -10.460  16.337  1.00  0.00     0.172 HD
ENDBRANCH  20  21
ENDBRANCH   5  20
BRANCH   4  24
HETATM   24  N5  UNL     1      24.297  -7.950  13.506  1.00  0.00    -0.073 N 
ATOM     25  H53 UNL     1      23.527  -7.335  13.768  1.00  0.00     0.274 HD
ATOM     26  H52 UNL     1      24.750  -7.368  12.802  1.00  0.00     0.274 HD
ATOM     27  H51 UNL     1      23.943  -8.809  13.085  1.00  0.00     0.274 HD
ENDBRANCH   4  24
TORSDOF 9
ENDMDL
MODEL 3
REMARK VINA RESULT: -5.007709976      2.608      3.654
REMARK  9 active torsions:
REMARK  status: ('A' for Active; 'I' for Inactive)
REMARK    1  A    between atoms: O1_2  and  N1_3 
REMARK    2  A    between atoms: N1_3  and  C2_5 
REMARK    3  A    between atoms: C2_5  and  N2_7 
REMARK    4  A    between atoms: N2_7  and  N3_9 
REMARK    5  A    between atoms: N3_9  and  C3_11 
REMARK    6  A    between atoms: C4_12  and  N4_13 
REMARK    7  A    between atoms: C6_18  and  N5_19 
REMARK    8  A    between atoms: C7_23  and  N6_24 
REMARK    9  A    between atoms: N6_24  and  N7_25 
ROOT
HETATM    1  C3  UNL     1      24.235  -9.742  14.853  1.00  0.00     0.152 C 
HETATM    2  C4  UNL     1      23.409 -10.731  15.620  1.00  0.00     0.211 C 
HETATM    3  C5  UNL     1      22.405  -9.934  16.428  1.00  0.00     0.069 C 
HETATM    4  C6  UNL     1      22.571  -8.524  15.925  1.00  0.00     0.208 C 
HETATM    5  C7  UNL     1      24.077  -8.483  15.677  1.00  0.00     0.155 C 
ENDROOT
BRANCH   1   6
HETATM    6  N3  UNL     1      25.565 -10.121  14.602  1.00  0.00    -0.326 N 
ATOM      7  H3  UNL     1      25.866 -11.087  14.729  1.00  0.00     0.180 HD
BRANCH   6   8
HETATM    8  N2  UNL     1      26.436  -9.172  14.187  1.00  0.00    -0.279 N 
ATOM      9  H2  UNL     1      26.195  -8.577  13.395  1.00  0.00     0.189 HD
BRANCH   8  10
HETATM   10  C2  UNL     1      27.676  -8.999  14.840  1.00  0.00     0.210 C 
HETATM   11  S1  UNL     1      27.830  -7.848  15.978  1.00  0.00    -0.037 SA
BRANCH  10  12
HETATM   12  N1  UNL     1      28.801  -9.806  14.530  1.00  0.00    -0.240 N 
ATOM     13  H1  UNL     1      29.154  -9.820  13.574  1.00  0.00     0.197 HD
BRANCH  12  14
HETATM   14  O1  UNL     1      29.417 -10.561  15.473  1.00  0.00    -0.283 OA
HETATM   15  C1  UNL     1      28.581 -11.618  15.866  1.00  0.00     0.237 C 
ENDBRANCH  12  14
ENDBRANCH  10  12
ENDBRANCH   8  10
ENDBRANCH   6   8
ENDBRANCH   1   6
BRANCH   2  16
HETATM   16  N4  UNL     1      22.702 -11.608  14.701  1.00  0.00    -0.073 N 
ATOM     17  H43 UNL     1      21.691 -11.499  14.770  1.00  0.00     0.274 HD
ATOM     18  H42 UNL     1      22.818 -11.318  13.730  1.00  0.00     0.274 HD
ATOM     19  H41 UNL     1      22.993 -12.575  14.848  1.00  0.00     0.274 HD
ENDBRANCH   2  16
BRANCH   5  20
HETATM   20  N6  UNL     1      24.468  -7.303  14.937  1.00  0.00    -0.139 NA
BRANCH  20  21
HETATM   21  N7  UNL     1      23.711  -7.254  13.760  1.00  0.00    -0.348 N 
ATOM     22  H72 UNL     1      22.773  -7.640  13.650  1.00  0.00     0.172 HD
ATOM     23  H71 UNL     1      24.258  -6.770  13.049  1.00  0.00     0.172 HD
ENDBRANCH  20  21
ENDBRANCH   5  20
BRANCH   4  24
HETATM   24  N5  UNL     1      22.122  -7.531  16.835  1.00  0.00    -0.073 N 
ATOM     25  H53 UNL     1      21.664  -7.962  17.639  1.00  0.00     0.274 HD
ATOM     26  H52 UNL     1      22.913  -7.091  17.305  1.00  0.00     0.274 HD
ATOM     27  H51 UNL     1      21.518  -6.826  16.413  1.00  0.00     0.274 HD
ENDBRANCH   4  24
TORSDOF 9
ENDMDL
MODEL 4
REMARK VINA RESULT: -4.950859922      2.317      3.229
REMARK  9 active torsions:
REMARK  status: ('A' for Active; 'I' for Inactive)
REMARK    1  A    between atoms: O1_2  and  N1_3 
REMARK    2  A    between atoms: N1_3  and  C2_5 
REMARK    3  A    between atoms: C2_5  and  N2_7 
REMARK    4  A    between atoms: N2_7  and  N3_9 
REMARK    5  A    between atoms: N3_9  and  C3_11 
REMARK    6  A    between atoms: C4_12  and  N4_13 
REMARK    7  A    between atoms: C6_18  and  N5_19 
REMARK    8  A    between atoms: C7_23  and  N6_24 
REMARK    9  A    between atoms: N6_24  and  N7_25 
ROOT
HETATM    1  C3  UNL     1      27.923  -9.511  15.596  1.00  0.00     0.152 C 
HETATM    2  C4  UNL     1      27.098 -10.129  14.506  1.00  0.00     0.211 C 
HETATM    3  C5  UNL     1      26.240  -9.025  13.922  1.00  0.00     0.069 C 
HETATM    4  C6  UNL     1      26.767  -7.772  14.573  1.00  0.00     0.208 C 
HETATM    5  C7  UNL     1      27.104  -8.294  15.968  1.00  0.00     0.155 C 
ENDROOT
BRANCH   1   6
HETATM    6  N3  UNL     1      28.247 -10.356  16.671  1.00  0.00    -0.326 N 
ATOM      7  H3  UNL     1      28.994 -10.112  17.321  1.00  0.00     0.180 HD
BRANCH   6   8
HETATM    8  N2  UNL     1      27.544 -11.503  16.822  1.00  0.00    -0.279 N 
ATOM      9  H2  UNL     1      26.534 -11.461  16.955  1.00  0.00     0.189 HD
BRANCH   8  10
HETATM   10  C2  UNL     1      28.195 -12.755  16.796  1.00  0.00     0.210 C 
HETATM   11  S1  UNL     1      27.542 -14.016  17.587  1.00  0.00    -0.037 SA
BRANCH  10  12
HETATM   12  N1  UNL     1      29.412 -12.947  16.092  1.00  0.00    -0.240 N 
ATOM     13  H1  UNL     1      29.396 -13.436  15.197  1.00  0.00     0.197 HD
BRANCH  12  14
HETATM   14  O1  UNL     1      30.595 -12.498  16.579  1.00  0.00    -0.283 OA
HETATM   15  C1  UNL     1      31.461 -13.579  16.812  1.00  0.00     0.237 C 
ENDBRANCH  12  14
ENDBRANCH  10  12
ENDBRANCH   8  10
ENDBRANCH   6   8
ENDBRANCH   1   6
BRANCH   2  16
HETATM   16  N4  UNL     1      27.965 -10.668  13.471  1.00  0.00    -0.073 N 
ATOM     17  H43 UNL     1      28.861 -10.978  13.846  1.00  0.00     0.274 HD
ATOM     18  H42 UNL     1      27.630 -11.565  13.121  1.00  0.00     0.274 HD
ATOM     19  H41 UNL     1      28.080  -9.985  12.722  1.00  0.00     0.274 HD
ENDBRANCH   2  16
BRANCH   5  20
HETATM   20  N6  UNL     1      27.878  -7.337  16.728  1.00  0.00    -0.139 NA
BRANCH  20  21
HETATM   21  N7  UNL     1      26.994  -6.565  17.490  1.00  0.00    -0.348 N 
ATOM     22  H72 UNL     1      26.471  -5.760  17.145  1.00  0.00     0.172 HD
ATOM     23  H71 UNL     1      26.970  -6.948  18.435  1.00  0.00     0.172 HD
ENDBRANCH  20  21
ENDBRANCH   5  20
BRANCH   4  24
HETATM   24  N5  UNL     1      25.843  -6.695  14.581  1.00  0.00    -0.073 N 
ATOM     25  H53 UNL     1      25.046  -6.910  15.181  1.00  0.00     0.274 HD
ATOM     26  H52 UNL     1      26.226  -5.897  15.087  1.00  0.00     0.274 HD
ATOM     27  H51 UNL     1      25.527  -6.414  13.653  1.00  0.00     0.274 HD
ENDBRANCH   4  24
TORSDOF 9
ENDMDL
MODEL 5
REMARK VINA RESULT: -4.869546294      1.636      1.636
REMARK  9 active torsions:
REMARK  status: ('A' for Active; 'I' for Inactive)
REMARK    1  A    between atoms: O1_2  and  N1_3 
REMARK    2  A    between atoms: N1_3  and  C2_5 
REMARK    3  A    between atoms: C2_5  and  N2_7 
REMARK    4  A    between atoms: N2_7  and  N3_9 
REMARK    5  A    between atoms: N3_9  and  C3_11 
REMARK    6  A    between atoms: C4_12  and  N4_13 
REMARK    7  A    between atoms: C6_18  and  N5_19 
REMARK    8  A    between atoms: C7_23  and  N6_24 
REMARK    9  A    between atoms: N6_24  and  N7_25 
ROOT
HETATM    1  C3  UNL     1      25.664  -8.998  15.484  1.00  0.00     0.152 C 
HETATM    2  C4  UNL     1      26.611  -7.880  15.161  1.00  0.00     0.211 C 
HETATM    3  C5  UNL     1      25.792  -6.777  14.523  1.00  0.00     0.069 C 
HETATM    4  C6  UNL     1      24.367  -7.235  14.697  1.00  0.00     0.208 C 
HETATM    5  C7  UNL     1      24.527  -8.743  14.518  1.00  0.00     0.155 C 
ENDROOT
BRANCH   1   6
HETATM    6  N3  UNL     1      26.205 -10.293  15.431  1.00  0.00    -0.326 N 
ATOM      7  H3  UNL     1      25.904 -10.957  14.719  1.00  0.00     0.180 HD
BRANCH   6   8
HETATM    8  N2  UNL     1      27.137 -10.637  16.351  1.00  0.00    -0.279 N 
ATOM      9  H2  UNL     1      26.907 -10.596  17.343  1.00  0.00     0.189 HD
BRANCH   8  10
HETATM   10  C2  UNL     1      28.425 -11.054  15.948  1.00  0.00     0.210 C 
HETATM   11  S1  UNL     1      29.016 -10.564  14.516  1.00  0.00    -0.037 SA
BRANCH  10  12
HETATM   12  N1  UNL     1      29.225 -11.894  16.765  1.00  0.00    -0.240 N 
ATOM     13  H1  UNL     1      28.848 -12.230  17.651  1.00  0.00     0.197 HD
BRANCH  12  14
HETATM   14  O1  UNL     1      30.478 -12.260  16.399  1.00  0.00    -0.283 OA
HETATM   15  C1  UNL     1      30.718 -13.593  16.771  1.00  0.00     0.237 C 
ENDBRANCH  12  14
ENDBRANCH  10  12
ENDBRANCH   8  10
ENDBRANCH   6   8
ENDBRANCH   1   6
BRANCH   2  16
HETATM   16  N4  UNL     1      27.226  -7.382  16.381  1.00  0.00    -0.073 N 
ATOM     17  H43 UNL     1      28.125  -7.828  16.565  1.00  0.00     0.274 HD
ATOM     18  H42 UNL     1      27.554  -6.422  16.279  1.00  0.00     0.274 HD
ATOM     19  H41 UNL     1      26.582  -7.485  17.164  1.00  0.00     0.274 HD
ENDBRANCH   2  16
BRANCH   5  20
HETATM   20  N6  UNL     1      23.329  -9.459  14.898  1.00  0.00    -0.139 NA
BRANCH  20  21
HETATM   21  N7  UNL     1      22.800  -8.852  16.043  1.00  0.00    -0.348 N 
ATOM     22  H72 UNL     1      21.980  -8.245  16.059  1.00  0.00     0.172 HD
ATOM     23  H71 UNL     1      23.373  -9.123  16.841  1.00  0.00     0.172 HD
ENDBRANCH  20  21
ENDBRANCH   5  20
BRANCH   4  24
HETATM   24  N5  UNL     1      23.458  -6.651  13.777  1.00  0.00    -0.073 N 
ATOM     25  H53 UNL     1      23.945  -6.013  13.147  1.00  0.00     0.274 HD
ATOM     26  H52 UNL     1      23.135  -7.344  13.102  1.00  0.00     0.274 HD
ATOM     27  H51 UNL     1      22.666  -6.183  14.218  1.00  0.00     0.274 HD
ENDBRANCH   4  24
TORSDOF 9
ENDMDL
