MODEL 1
REMARK VINA RESULT: -6.694355324      0.000      0.000
REMARK  7 active torsions:
REMARK  status: ('A' for Active; 'I' for Inactive)
REMARK    1  A    between atoms: N1_1  and  C1_4 
REMARK    2  A    between atoms: C2_7  and  S1_8 
REMARK    3  A    between atoms: S1_8  and  N3_11 
REMARK    4  A    between atoms: N3_11  and  N4_13 
REMARK    5  A    between atoms: N4_13  and  C3_15 
REMARK    6  A    between atoms: N5_16  and  O3_18 
REMARK    7  A    between atoms: C4_22  and  N7_23 
ROOT
HETATM    1  C1  UNL     1      22.649  -8.506  16.215  1.00  0.00     0.692 A 
HETATM    2  N2  UNL     1      23.809  -8.084  15.713  1.00  0.00    -0.163 N 
ATOM      3  H2  UNL     1      24.090  -7.112  15.841  1.00  0.00     0.186 HD
HETATM    4  C2  UNL     1      24.609  -8.921  15.043  1.00  0.00     0.254 A 
HETATM    5  N6  UNL     1      24.227 -10.193  14.884  1.00  0.00    -0.163 N 
ATOM      6  H6  UNL     1      24.836 -10.832  14.373  1.00  0.00     0.186 HD
HETATM    7  C4  UNL     1      23.063 -10.655  15.376  1.00  0.00     0.692 A 
HETATM    8  N8  UNL     1      22.280  -9.791  16.045  1.00  0.00    -0.023 N 
ATOM      9  H8  UNL     1      21.393 -10.112  16.430  1.00  0.00     0.203 HD
ENDROOT
BRANCH   4  10
HETATM   10  S1  UNL     1      26.112  -8.365  14.395  1.00  0.00     0.309 S 
HETATM   11  O1  UNL     1      26.299  -8.821  12.961  1.00  0.00    -0.196 OA
HETATM   12  O2  UNL     1      26.176  -6.873  14.496  1.00  0.00    -0.196 OA
BRANCH  10  13
HETATM   13  N3  UNL     1      27.430  -9.005  15.294  1.00  0.00    -0.220 N 
ATOM     14  H3  UNL     1      27.605  -8.779  16.273  1.00  0.00     0.200 HD
BRANCH  13  15
HETATM   15  N4  UNL     1      28.231  -9.860  14.550  1.00  0.00    -0.285 N 
ATOM     16  H4  UNL     1      28.847  -9.504  13.819  1.00  0.00     0.188 HD
BRANCH  15  17
HETATM   17  C3  UNL     1      28.164 -11.255  14.842  1.00  0.00     0.221 C 
HETATM   18  N5  UNL     1      28.632 -11.763  15.926  1.00  0.00    -0.264 N 
ATOM     19  H5  UNL     1      28.559 -12.766  16.091  1.00  0.00     0.195 HD
BRANCH  18  20
HETATM   20  O3  UNL     1      29.228 -10.960  16.859  1.00  0.00    -0.289 OA
ATOM     21  H3  UNL     1      30.173 -10.957  16.953  1.00  0.00     0.244 HD
ENDBRANCH  18  20
ENDBRANCH  15  17
ENDBRANCH  13  15
ENDBRANCH  10  13
ENDBRANCH   4  10
BRANCH   1  22
HETATM   22  N1  UNL     1      21.921  -7.643  16.854  1.00  0.00    -0.234 N 
ATOM     23  H12 UNL     1      22.075  -6.637  16.793  1.00  0.00     0.174 HD
ATOM     24  H11 UNL     1      21.165  -8.002  17.437  1.00  0.00     0.174 HD
ENDBRANCH   1  22
BRANCH   7  25
HETATM   25  N7  UNL     1      22.671 -11.883  15.234  1.00  0.00    -0.234 N 
ATOM     26  H72 UNL     1      23.253 -12.532  14.706  1.00  0.00     0.174 HD
ATOM     27  H71 UNL     1      21.799 -12.239  15.627  1.00  0.00     0.174 HD
ENDBRANCH   7  25
TORSDOF 7
ENDMDL
MODEL 2
REMARK VINA RESULT: -6.637680146      0.051      1.999
REMARK  7 active torsions:
REMARK  status: ('A' for Active; 'I' for Inactive)
REMARK    1  A    between atoms: N1_1  and  C1_4 
REMARK    2  A    between atoms: C2_7  and  S1_8 
REMARK    3  A    between atoms: S1_8  and  N3_11 
REMARK    4  A    between atoms: N3_11  and  N4_13 
REMARK    5  A    between atoms: N4_13  and  C3_15 
REMARK    6  A    between atoms: N5_16  and  O3_18 
REMARK    7  A    between atoms: C4_22  and  N7_23 
ROOT
HETATM    1  C1  UNL     1      23.059 -10.603  15.405  1.00  0.00     0.692 A 
HETATM    2  N2  UNL     1      24.222 -10.193  14.900  1.00  0.00    -0.163 N 
ATOM      3  H2  UNL     1      24.815 -10.854  14.397  1.00  0.00     0.186 HD
HETATM    4  C2  UNL     1      24.620  -8.924  15.044  1.00  0.00     0.254 A 
HETATM    5  N6  UNL     1      23.831  -8.069  15.705  1.00  0.00    -0.163 N 
ATOM      6  H6  UNL     1      24.134  -7.102  15.815  1.00  0.00     0.186 HD
HETATM    7  C4  UNL     1      22.651  -8.447  16.229  1.00  0.00     0.692 A 
HETATM    8  N8  UNL     1      22.278  -9.729  16.068  1.00  0.00    -0.023 N 
ATOM      9  H8  UNL     1      21.388 -10.044  16.454  1.00  0.00     0.203 HD
ENDROOT
BRANCH   4  10
HETATM   10  S1  UNL     1      26.129  -8.401  14.384  1.00  0.00     0.309 S 
HETATM   11  O1  UNL     1      26.303  -8.876  12.954  1.00  0.00    -0.196 OA
HETATM   12  O2  UNL     1      26.220  -6.910  14.469  1.00  0.00    -0.196 OA
BRANCH  10  13
HETATM   13  N3  UNL     1      27.440  -9.055  15.285  1.00  0.00    -0.220 N 
ATOM     14  H3  UNL     1      27.612  -8.837  16.265  1.00  0.00     0.200 HD
BRANCH  13  15
HETATM   15  N4  UNL     1      28.239  -9.911  14.538  1.00  0.00    -0.285 N 
ATOM     16  H4  UNL     1      28.838  -9.557  13.793  1.00  0.00     0.188 HD
BRANCH  15  17
HETATM   17  C3  UNL     1      28.191 -11.303  14.849  1.00  0.00     0.221 C 
HETATM   18  N5  UNL     1      28.644 -11.786  15.950  1.00  0.00    -0.264 N 
ATOM     19  H5  UNL     1      28.587 -12.789  16.127  1.00  0.00     0.195 HD
BRANCH  18  20
HETATM   20  O3  UNL     1      29.204 -10.959  16.884  1.00  0.00    -0.289 OA
ATOM     21  H3  UNL     1      28.861 -10.938  17.770  1.00  0.00     0.244 HD
ENDBRANCH  18  20
ENDBRANCH  15  17
ENDBRANCH  13  15
ENDBRANCH  10  13
ENDBRANCH   4  10
BRANCH   1  22
HETATM   22  N1  UNL     1      22.733 -11.847  15.231  1.00  0.00    -0.234 N 
ATOM     23  H12 UNL     1      22.302 -12.190  14.372  1.00  0.00     0.174 HD
ATOM     24  H11 UNL     1      22.922 -12.497  15.993  1.00  0.00     0.174 HD
ENDBRANCH   1  22
BRANCH   7  25
HETATM   25  N7  UNL     1      21.870  -7.638  16.874  1.00  0.00    -0.234 N 
ATOM     26  H72 UNL     1      21.575  -6.771  16.426  1.00  0.00     0.174 HD
ATOM     27  H71 UNL     1      21.531  -7.824  17.819  1.00  0.00     0.174 HD
ENDBRANCH   7  25
TORSDOF 7
ENDMDL
MODEL 3
REMARK VINA RESULT: -6.366889503      2.525      3.387
REMARK  7 active torsions:
REMARK  status: ('A' for Active; 'I' for Inactive)
REMARK    1  A    between atoms: N1_1  and  C1_4 
REMARK    2  A    between atoms: C2_7  and  S1_8 
REMARK    3  A    between atoms: S1_8  and  N3_11 
REMARK    4  A    between atoms: N3_11  and  N4_13 
REMARK    5  A    between atoms: N4_13  and  C3_15 
REMARK    6  A    between atoms: N5_16  and  O3_18 
REMARK    7  A    between atoms: C4_22  and  N7_23 
ROOT
HETATM    1  C1  UNL     1      22.384  -8.278  16.310  1.00  0.00     0.692 A 
HETATM    2  N2  UNL     1      23.524  -7.659  16.007  1.00  0.00    -0.163 N 
ATOM      3  H2  UNL     1      23.630  -6.667  16.219  1.00  0.00     0.186 HD
HETATM    4  C2  UNL     1      24.529  -8.323  15.426  1.00  0.00     0.254 A 
HETATM    5  N6  UNL     1      24.375  -9.623  15.154  1.00  0.00    -0.163 N 
ATOM      6  H6  UNL     1      25.141 -10.130  14.712  1.00  0.00     0.186 HD
HETATM    7  C4  UNL     1      23.239 -10.283  15.446  1.00  0.00     0.692 A 
HETATM    8  N8  UNL     1      22.246  -9.589  16.029  1.00  0.00    -0.023 N 
ATOM      9  H8  UNL     1      21.373 -10.062  16.262  1.00  0.00     0.203 HD
ENDROOT
BRANCH   4  10
HETATM   10  S1  UNL     1      26.004  -7.510  15.036  1.00  0.00     0.309 S 
HETATM   11  O1  UNL     1      26.747  -8.217  13.918  1.00  0.00    -0.196 OA
HETATM   12  O2  UNL     1      25.708  -6.090  14.669  1.00  0.00    -0.196 OA
BRANCH  10  13
HETATM   13  N3  UNL     1      27.059  -7.489  16.393  1.00  0.00    -0.220 N 
ATOM     14  H3  UNL     1      27.738  -8.224  16.589  1.00  0.00     0.200 HD
BRANCH  13  15
HETATM   15  N4  UNL     1      26.891  -6.368  17.195  1.00  0.00    -0.285 N 
ATOM     16  H4  UNL     1      25.968  -5.962  17.348  1.00  0.00     0.188 HD
BRANCH  15  17
HETATM   17  C3  UNL     1      28.054  -5.803  17.798  1.00  0.00     0.221 C 
HETATM   18  N5  UNL     1      28.075  -4.619  18.297  1.00  0.00    -0.264 N 
ATOM     19  H5  UNL     1      28.931  -4.259  18.718  1.00  0.00     0.195 HD
BRANCH  18  20
HETATM   20  O3  UNL     1      26.951  -3.840  18.264  1.00  0.00    -0.289 OA
ATOM     21  H3  UNL     1      26.662  -3.387  19.047  1.00  0.00     0.244 HD
ENDBRANCH  18  20
ENDBRANCH  15  17
ENDBRANCH  13  15
ENDBRANCH  10  13
ENDBRANCH   4  10
BRANCH   1  22
HETATM   22  N1  UNL     1      21.448  -7.577  16.871  1.00  0.00    -0.234 N 
ATOM     23  H12 UNL     1      21.604  -6.635  17.232  1.00  0.00     0.174 HD
ATOM     24  H11 UNL     1      20.523  -7.998  16.948  1.00  0.00     0.174 HD
ENDBRANCH   1  22
BRANCH   7  25
HETATM   25  N7  UNL     1      23.065 -11.542  15.192  1.00  0.00    -0.234 N 
ATOM     26  H72 UNL     1      23.601 -11.976  14.441  1.00  0.00     0.174 HD
ATOM     27  H71 UNL     1      22.411 -12.130  15.709  1.00  0.00     0.174 HD
ENDBRANCH   7  25
TORSDOF 7
ENDMDL
MODEL 4
REMARK VINA RESULT: -6.235064548      3.825      4.787
REMARK  7 active torsions:
REMARK  status: ('A' for Active; 'I' for Inactive)
REMARK    1  A    between atoms: N1_1  and  C1_4 
REMARK    2  A    between atoms: C2_7  and  S1_8 
REMARK    3  A    between atoms: S1_8  and  N3_11 
REMARK    4  A    between atoms: N3_11  and  N4_13 
REMARK    5  A    between atoms: N4_13  and  C3_15 
REMARK    6  A    between atoms: N5_16  and  O3_18 
REMARK    7  A    between atoms: C4_22  and  N7_23 
ROOT
HETATM    1  C1  UNL     1      26.947  -8.627  13.873  1.00  0.00     0.692 A 
HETATM    2  N2  UNL     1      27.529  -9.782  14.192  1.00  0.00    -0.163 N 
ATOM      3  H2  UNL     1      27.702 -10.478  13.467  1.00  0.00     0.186 HD
HETATM    4  C2  UNL     1      27.890 -10.039  15.455  1.00  0.00     0.254 A 
HETATM    5  N6  UNL     1      27.657  -9.118  16.396  1.00  0.00    -0.163 N 
ATOM      6  H6  UNL     1      27.931  -9.313  17.358  1.00  0.00     0.186 HD
HETATM    7  C4  UNL     1      27.070  -7.941  16.110  1.00  0.00     0.692 A 
HETATM    8  N8  UNL     1      26.720  -7.710  14.833  1.00  0.00    -0.023 N 
ATOM      9  H8  UNL     1      26.275  -6.826  14.587  1.00  0.00     0.203 HD
ENDROOT
BRANCH   4  10
HETATM   10  S1  UNL     1      28.644 -11.541  15.860  1.00  0.00     0.309 S 
HETATM   11  O1  UNL     1      28.598 -12.515  14.698  1.00  0.00    -0.196 OA
HETATM   12  O2  UNL     1      30.054 -11.289  16.293  1.00  0.00    -0.196 OA
BRANCH  10  13
HETATM   13  N3  UNL     1      27.824 -12.295  17.169  1.00  0.00    -0.220 N 
ATOM     14  H3  UNL     1      27.372 -11.777  17.922  1.00  0.00     0.200 HD
BRANCH  13  15
HETATM   15  N4  UNL     1      27.840 -13.681  17.094  1.00  0.00    -0.285 N 
ATOM     16  H4  UNL     1      27.040 -14.199  16.732  1.00  0.00     0.188 HD
BRANCH  15  17
HETATM   17  C3  UNL     1      29.014 -14.357  17.543  1.00  0.00     0.221 C 
HETATM   18  N5  UNL     1      29.822 -14.955  16.742  1.00  0.00    -0.264 N 
ATOM     19  H5  UNL     1      30.649 -15.423  17.111  1.00  0.00     0.195 HD
BRANCH  18  20
HETATM   20  O3  UNL     1      29.575 -14.964  15.398  1.00  0.00    -0.289 OA
ATOM     21  H3  UNL     1      29.471 -14.147  14.926  1.00  0.00     0.244 HD
ENDBRANCH  18  20
ENDBRANCH  15  17
ENDBRANCH  13  15
ENDBRANCH  10  13
ENDBRANCH   4  10
BRANCH   1  22
HETATM   22  N1  UNL     1      26.622  -8.441  12.631  1.00  0.00    -0.234 N 
ATOM     23  H12 UNL     1      27.145  -7.824  12.009  1.00  0.00     0.174 HD
ATOM     24  H11 UNL     1      25.807  -8.940  12.275  1.00  0.00     0.174 HD
ENDBRANCH   1  22
BRANCH   7  25
HETATM   25  N7  UNL     1      26.834  -7.031  17.004  1.00  0.00    -0.234 N 
ATOM     26  H72 UNL     1      27.385  -6.174  16.997  1.00  0.00     0.174 HD
ATOM     27  H71 UNL     1      26.118  -7.130  17.724  1.00  0.00     0.174 HD
ENDBRANCH   7  25
TORSDOF 7
ENDMDL
MODEL 5
REMARK VINA RESULT: -6.231118406      2.527      3.922
REMARK  7 active torsions:
REMARK  status: ('A' for Active; 'I' for Inactive)
REMARK    1  A    between atoms: N1_1  and  C1_4 
REMARK    2  A    between atoms: C2_7  and  S1_8 
REMARK    3  A    between atoms: S1_8  and  N3_11 
REMARK    4  A    between atoms: N3_11  and  N4_13 
REMARK    5  A    between atoms: N4_13  and  C3_15 
REMARK    6  A    between atoms: N5_16  and  O3_18 
REMARK    7  A    between atoms: C4_22  and  N7_23 
ROOT
HETATM    1  C1  UNL     1      23.251 -10.226  15.486  1.00  0.00     0.692 A 
HETATM    2  N2  UNL     1      24.387  -9.602  15.179  1.00  0.00    -0.163 N 
ATOM      3  H2  UNL     1      25.149 -10.124  14.746  1.00  0.00     0.186 HD
HETATM    4  C2  UNL     1      24.540  -8.297  15.433  1.00  0.00     0.254 A 
HETATM    5  N6  UNL     1      23.533  -7.626  16.001  1.00  0.00    -0.163 N 
ATOM      6  H6  UNL     1      23.648  -6.631  16.195  1.00  0.00     0.186 HD
HETATM    7  C4  UNL     1      22.371  -8.223  16.325  1.00  0.00     0.692 A 
HETATM    8  N8  UNL     1      22.246  -9.534  16.058  1.00  0.00    -0.023 N 
ATOM      9  H8  UNL     1      21.377 -10.013  16.291  1.00  0.00     0.203 HD
ENDROOT
BRANCH   4  10
HETATM   10  S1  UNL     1      26.018  -7.496  15.032  1.00  0.00     0.309 S 
HETATM   11  O1  UNL     1      26.745  -8.206  13.906  1.00  0.00    -0.196 OA
HETATM   12  O2  UNL     1      25.731  -6.072  14.671  1.00  0.00    -0.196 OA
BRANCH  10  13
HETATM   13  N3  UNL     1      27.085  -7.486  16.380  1.00  0.00    -0.220 N 
ATOM     14  H3  UNL     1      27.782  -8.210  16.551  1.00  0.00     0.200 HD
BRANCH  13  15
HETATM   15  N4  UNL     1      26.899  -6.391  17.213  1.00  0.00    -0.285 N 
ATOM     16  H4  UNL     1      25.967  -6.016  17.391  1.00  0.00     0.188 HD
BRANCH  15  17
HETATM   17  C3  UNL     1      28.055  -5.807  17.810  1.00  0.00     0.221 C 
HETATM   18  N5  UNL     1      28.063  -4.618  18.297  1.00  0.00    -0.264 N 
ATOM     19  H5  UNL     1      28.915  -4.245  18.715  1.00  0.00     0.195 HD
BRANCH  18  20
HETATM   20  O3  UNL     1      26.931  -3.852  18.256  1.00  0.00    -0.289 OA
ATOM     21  H3  UNL     1      26.754  -3.223  18.945  1.00  0.00     0.244 HD
ENDBRANCH  18  20
ENDBRANCH  15  17
ENDBRANCH  13  15
ENDBRANCH  10  13
ENDBRANCH   4  10
BRANCH   1  22
HETATM   22  N1  UNL     1      23.168 -11.492  15.214  1.00  0.00    -0.234 N 
ATOM     23  H12 UNL     1      23.780 -12.190  15.636  1.00  0.00     0.174 HD
ATOM     24  H11 UNL     1      22.454 -11.786  14.547  1.00  0.00     0.174 HD
ENDBRANCH   1  22
BRANCH   7  25
HETATM   25  N7  UNL     1      21.380  -7.593  16.876  1.00  0.00    -0.234 N 
ATOM     26  H72 UNL     1      21.459  -6.590  17.041  1.00  0.00     0.174 HD
ATOM     27  H71 UNL     1      20.514  -8.054  17.158  1.00  0.00     0.174 HD
ENDBRANCH   7  25
TORSDOF 7
ENDMDL
