MODEL 1
REMARK VINA RESULT: -5.445571453      0.000      0.000
REMARK  9 active torsions:
REMARK  status: ('A' for Active; 'I' for Inactive)
REMARK    1  A    between atoms: N1_1  and  C1_4 
REMARK    2  A    between atoms: C2_7  and  N3_8 
REMARK    3  A    between atoms: N4_11  and  C3_12 
REMARK    4  A    between atoms: C4_14  and  N5_15 
REMARK    5  A    between atoms: N6_19  and  C5_20 
REMARK    6  A    between atoms: C5_20  and  C6_21 
REMARK    7  A    between atoms: C6_21  and  C7_22 
REMARK    8  A    between atoms: C7_22  and  C8_23 
REMARK    9  A    between atoms: C8_23  and  N7_24 
ROOT
HETATM    1  C1  UNL     1      24.863  -7.649  14.383  1.00  0.00     0.708 A 
HETATM    2  N2  UNL     1      25.121  -8.137  13.134  1.00  0.00    -0.020 N 
ATOM      3  H2  UNL     1      24.567  -7.993  12.289  1.00  0.00     0.203 HD
HETATM    4  C2  UNL     1      26.253  -8.844  13.248  1.00  0.00     0.710 A 
HETATM    5  N4  UNL     1      26.703  -8.812  14.513  1.00  0.00    -0.073 N 
HETATM    6  N6  UNL     1      25.846  -8.081  15.191  1.00  0.00    -0.104 N 
ENDROOT
BRANCH   6   7
HETATM    7  C5  UNL     1      25.927  -7.795  16.591  1.00  0.00     0.169 C 
BRANCH   7   8
HETATM    8  C6  UNL     1      27.097  -6.977  17.016  1.00  0.00     0.024 C 
BRANCH   8   9
HETATM    9  C7  UNL     1      26.761  -5.628  17.595  1.00  0.00     0.029 C 
BRANCH   9  10
HETATM   10  C8  UNL     1      28.097  -5.047  18.088  1.00  0.00     0.229 C 
BRANCH  10  11
HETATM   11  N7  UNL     1      27.804  -3.733  18.636  1.00  0.00    -0.079 N 
ATOM     12  H73 UNL     1      27.536  -3.051  17.927  1.00  0.00     0.274 HD
ATOM     13  H72 UNL     1      26.938  -3.705  19.174  1.00  0.00     0.274 HD
ATOM     14  H71 UNL     1      28.622  -3.451  19.176  1.00  0.00     0.274 HD
ENDBRANCH  10  11
ENDBRANCH   9  10
ENDBRANCH   8   9
ENDBRANCH   7   8
ENDBRANCH   6   7
BRANCH   1  15
HETATM   15  N1  UNL     1      23.830  -6.910  14.604  1.00  0.00    -0.233 N 
ATOM     16  H12 UNL     1      22.839  -7.048  14.403  1.00  0.00     0.174 HD
ATOM     17  H11 UNL     1      23.924  -6.007  15.066  1.00  0.00     0.174 HD
ENDBRANCH   1  15
BRANCH   5  18
HETATM   18  C3  UNL     1      27.909  -9.497  14.917  1.00  0.00     0.322 A 
HETATM   19  O1  UNL     1      28.357 -10.627  14.288  1.00  0.00    -0.324 OA
HETATM   20  C4  UNL     1      27.734 -10.832  15.515  1.00  0.00     0.372 A 
BRANCH  20  21
HETATM   21  N5  UNL     1      28.557 -11.300  16.605  1.00  0.00    -0.048 N 
ATOM     22  H53 UNL     1      29.147 -12.051  16.247  1.00  0.00     0.277 HD
ATOM     23  H52 UNL     1      29.240 -10.571  16.812  1.00  0.00     0.277 HD
ATOM     24  H51 UNL     1      28.159 -11.613  17.490  1.00  0.00     0.277 HD
ENDBRANCH  20  21
ENDBRANCH   5  18
BRANCH   4  25
HETATM   25  N3  UNL     1      26.808  -9.462  12.244  1.00  0.00    -0.233 N 
ATOM     26  H32 UNL     1      26.887  -9.116  11.288  1.00  0.00     0.174 HD
ATOM     27  H31 UNL     1      27.230 -10.387  12.326  1.00  0.00     0.174 HD
ENDBRANCH   4  25
TORSDOF 9
ENDMDL
MODEL 2
REMARK VINA RESULT: -5.355187904      3.231      5.098
REMARK  9 active torsions:
REMARK  status: ('A' for Active; 'I' for Inactive)
REMARK    1  A    between atoms: N1_1  and  C1_4 
REMARK    2  A    between atoms: C2_7  and  N3_8 
REMARK    3  A    between atoms: N4_11  and  C3_12 
REMARK    4  A    between atoms: C4_14  and  N5_15 
REMARK    5  A    between atoms: N6_19  and  C5_20 
REMARK    6  A    between atoms: C5_20  and  C6_21 
REMARK    7  A    between atoms: C6_21  and  C7_22 
REMARK    8  A    between atoms: C7_22  and  C8_23 
REMARK    9  A    between atoms: C8_23  and  N7_24 
ROOT
HETATM    1  C1  UNL     1      22.983 -10.828  15.634  1.00  0.00     0.708 A 
HETATM    2  N2  UNL     1      21.958 -10.176  16.255  1.00  0.00    -0.020 N 
ATOM      3  H2  UNL     1      21.112 -10.589  16.649  1.00  0.00     0.203 HD
HETATM    4  C2  UNL     1      22.293  -8.879  16.241  1.00  0.00     0.710 A 
HETATM    5  N4  UNL     1      23.481  -8.705  15.638  1.00  0.00    -0.073 N 
HETATM    6  N6  UNL     1      23.887  -9.902  15.275  1.00  0.00    -0.104 N 
ENDROOT
BRANCH   6   7
HETATM    7  C5  UNL     1      25.106 -10.186  14.579  1.00  0.00     0.169 C 
BRANCH   7   8
HETATM    8  C6  UNL     1      26.278 -10.514  15.438  1.00  0.00     0.024 C 
BRANCH   8   9
HETATM    9  C7  UNL     1      27.012  -9.327  16.003  1.00  0.00     0.029 C 
BRANCH   9  10
HETATM   10  C8  UNL     1      27.859  -8.776  14.844  1.00  0.00     0.229 C 
BRANCH  10  11
HETATM   11  N7  UNL     1      28.594  -9.901  14.291  1.00  0.00    -0.079 N 
ATOM     12  H73 UNL     1      27.997 -10.573  13.809  1.00  0.00     0.274 HD
ATOM     13  H72 UNL     1      29.174  -9.649  13.491  1.00  0.00     0.274 HD
ATOM     14  H71 UNL     1      29.125 -10.312  15.059  1.00  0.00     0.274 HD
ENDBRANCH  10  11
ENDBRANCH   9  10
ENDBRANCH   8   9
ENDBRANCH   7   8
ENDBRANCH   6   7
BRANCH   1  15
HETATM   15  N1  UNL     1      22.963 -12.109  15.494  1.00  0.00    -0.233 N 
ATOM     16  H12 UNL     1      22.470 -12.842  16.006  1.00  0.00     0.174 HD
ATOM     17  H11 UNL     1      23.502 -12.563  14.757  1.00  0.00     0.174 HD
ENDBRANCH   1  15
BRANCH   5  18
HETATM   18  C3  UNL     1      24.080  -7.401  15.482  1.00  0.00     0.322 A 
HETATM   19  O1  UNL     1      23.459  -6.383  14.810  1.00  0.00    -0.324 OA
HETATM   20  C4  UNL     1      24.480  -7.024  14.115  1.00  0.00     0.372 A 
BRANCH  20  21
HETATM   21  N5  UNL     1      25.677  -6.262  13.847  1.00  0.00    -0.048 N 
ATOM     22  H53 UNL     1      25.417  -5.477  13.250  1.00  0.00     0.277 HD
ATOM     23  H52 UNL     1      25.946  -5.792  14.712  1.00  0.00     0.277 HD
ATOM     24  H51 UNL     1      26.515  -6.689  13.452  1.00  0.00     0.277 HD
ENDBRANCH  20  21
ENDBRANCH   5  18
BRANCH   4  25
HETATM   25  N3  UNL     1      21.541  -7.945  16.753  1.00  0.00    -0.233 N 
ATOM     26  H32 UNL     1      20.762  -7.475  16.293  1.00  0.00     0.174 HD
ATOM     27  H31 UNL     1      21.669  -7.586  17.699  1.00  0.00     0.174 HD
ENDBRANCH   4  25
TORSDOF 9
ENDMDL
MODEL 3
REMARK VINA RESULT: -5.264373724      2.723      3.598
REMARK  9 active torsions:
REMARK  status: ('A' for Active; 'I' for Inactive)
REMARK    1  A    between atoms: N1_1  and  C1_4 
REMARK    2  A    between atoms: C2_7  and  N3_8 
REMARK    3  A    between atoms: N4_11  and  C3_12 
REMARK    4  A    between atoms: C4_14  and  N5_15 
REMARK    5  A    between atoms: N6_19  and  C5_20 
REMARK    6  A    between atoms: C5_20  and  C6_21 
REMARK    7  A    between atoms: C6_21  and  C7_22 
REMARK    8  A    between atoms: C7_22  and  C8_23 
REMARK    9  A    between atoms: C8_23  and  N7_24 
ROOT
HETATM    1  C1  UNL     1      25.392  -8.476  13.852  1.00  0.00     0.708 A 
HETATM    2  N2  UNL     1      26.544  -7.773  13.645  1.00  0.00    -0.020 N 
ATOM      3  H2  UNL     1      26.667  -6.950  13.055  1.00  0.00     0.203 HD
HETATM    4  C2  UNL     1      27.481  -8.391  14.377  1.00  0.00     0.710 A 
HETATM    5  N4  UNL     1      26.955  -9.442  15.027  1.00  0.00    -0.073 N 
HETATM    6  N6  UNL     1      25.683  -9.480  14.696  1.00  0.00    -0.104 N 
ENDROOT
BRANCH   6   7
HETATM    7  C5  UNL     1      24.739 -10.456  15.148  1.00  0.00     0.169 C 
BRANCH   7   8
HETATM    8  C6  UNL     1      23.304 -10.086  14.995  1.00  0.00     0.024 C 
BRANCH   8   9
HETATM    9  C7  UNL     1      22.588  -9.746  16.275  1.00  0.00     0.029 C 
BRANCH   9  10
HETATM   10  C8  UNL     1      22.751  -8.227  16.449  1.00  0.00     0.229 C 
BRANCH  10  11
HETATM   11  N7  UNL     1      21.427  -7.692  16.719  1.00  0.00    -0.079 N 
ATOM     12  H73 UNL     1      20.730  -8.414  16.897  1.00  0.00     0.274 HD
ATOM     13  H72 UNL     1      21.360  -7.224  17.622  1.00  0.00     0.274 HD
ATOM     14  H71 UNL     1      21.189  -7.087  15.934  1.00  0.00     0.274 HD
ENDBRANCH  10  11
ENDBRANCH   9  10
ENDBRANCH   8   9
ENDBRANCH   7   8
ENDBRANCH   6   7
BRANCH   1  15
HETATM   15  N1  UNL     1      24.291  -8.122  13.283  1.00  0.00    -0.233 N 
ATOM     16  H12 UNL     1      23.380  -7.865  13.664  1.00  0.00     0.174 HD
ATOM     17  H11 UNL     1      24.227  -8.050  12.268  1.00  0.00     0.174 HD
ENDBRANCH   1  15
BRANCH   5  18
HETATM   18  C3  UNL     1      27.747 -10.288  15.888  1.00  0.00     0.322 A 
HETATM   19  O1  UNL     1      29.063 -10.564  15.636  1.00  0.00    -0.324 OA
HETATM   20  C4  UNL     1      28.168 -11.583  15.325  1.00  0.00     0.372 A 
BRANCH  20  21
HETATM   21  N5  UNL     1      28.230 -12.784  16.124  1.00  0.00    -0.048 N 
ATOM     22  H53 UNL     1      29.114 -12.773  16.632  1.00  0.00     0.277 HD
ATOM     23  H52 UNL     1      27.549 -12.690  16.878  1.00  0.00     0.277 HD
ATOM     24  H51 UNL     1      28.117 -13.713  15.717  1.00  0.00     0.277 HD
ENDBRANCH  20  21
ENDBRANCH   5  18
BRANCH   4  25
HETATM   25  N3  UNL     1      28.721  -7.992  14.425  1.00  0.00    -0.233 N 
ATOM     26  H32 UNL     1      29.117  -7.322  15.084  1.00  0.00     0.174 HD
ATOM     27  H31 UNL     1      29.437  -8.328  13.781  1.00  0.00     0.174 HD
ENDBRANCH   4  25
TORSDOF 9
ENDMDL
MODEL 4
REMARK VINA RESULT: -5.207664837      3.315      5.306
REMARK  9 active torsions:
REMARK  status: ('A' for Active; 'I' for Inactive)
REMARK    1  A    between atoms: N1_1  and  C1_4 
REMARK    2  A    between atoms: C2_7  and  N3_8 
REMARK    3  A    between atoms: N4_11  and  C3_12 
REMARK    4  A    between atoms: C4_14  and  N5_15 
REMARK    5  A    between atoms: N6_19  and  C5_20 
REMARK    6  A    between atoms: C5_20  and  C6_21 
REMARK    7  A    between atoms: C6_21  and  C7_22 
REMARK    8  A    between atoms: C7_22  and  C8_23 
REMARK    9  A    between atoms: C8_23  and  N7_24 
ROOT
HETATM    1  C1  UNL     1      23.003 -10.876  15.579  1.00  0.00     0.708 A 
HETATM    2  N2  UNL     1      21.988 -10.210  16.203  1.00  0.00    -0.020 N 
ATOM      3  H2  UNL     1      21.131 -10.610  16.584  1.00  0.00     0.203 HD
HETATM    4  C2  UNL     1      22.353  -8.921  16.209  1.00  0.00     0.710 A 
HETATM    5  N4  UNL     1      23.548  -8.765  15.617  1.00  0.00    -0.073 N 
HETATM    6  N6  UNL     1      23.930  -9.965  15.239  1.00  0.00    -0.104 N 
ENDROOT
BRANCH   6   7
HETATM    7  C5  UNL     1      25.147 -10.267  14.547  1.00  0.00     0.169 C 
BRANCH   7   8
HETATM    8  C6  UNL     1      26.379 -10.278  15.384  1.00  0.00     0.024 C 
BRANCH   8   9
HETATM    9  C7  UNL     1      27.642 -10.667  14.664  1.00  0.00     0.029 C 
BRANCH   9  10
HETATM   10  C8  UNL     1      28.503 -11.400  15.706  1.00  0.00     0.229 C 
BRANCH  10  11
HETATM   11  N7  UNL     1      27.819 -11.269  16.981  1.00  0.00    -0.079 N 
ATOM     12  H73 UNL     1      27.869 -10.327  17.370  1.00  0.00     0.274 HD
ATOM     13  H72 UNL     1      26.804 -11.319  16.900  1.00  0.00     0.274 HD
ATOM     14  H71 UNL     1      28.209 -11.981  17.598  1.00  0.00     0.274 HD
ENDBRANCH  10  11
ENDBRANCH   9  10
ENDBRANCH   8   9
ENDBRANCH   7   8
ENDBRANCH   6   7
BRANCH   1  15
HETATM   15  N1  UNL     1      22.955 -12.155  15.420  1.00  0.00    -0.233 N 
ATOM     16  H12 UNL     1      23.683 -12.870  15.435  1.00  0.00     0.174 HD
ATOM     17  H11 UNL     1      22.068 -12.627  15.252  1.00  0.00     0.174 HD
ENDBRANCH   1  15
BRANCH   5  18
HETATM   18  C3  UNL     1      24.177  -7.472  15.484  1.00  0.00     0.322 A 
HETATM   19  O1  UNL     1      23.568  -6.421  14.855  1.00  0.00    -0.324 OA
HETATM   20  C4  UNL     1      24.555  -7.066  14.119  1.00  0.00     0.372 A 
BRANCH  20  21
HETATM   21  N5  UNL     1      25.765  -6.327  13.844  1.00  0.00    -0.048 N 
ATOM     22  H53 UNL     1      25.505  -5.491  13.322  1.00  0.00     0.277 HD
ATOM     23  H52 UNL     1      26.096  -5.935  14.726  1.00  0.00     0.277 HD
ATOM     24  H51 UNL     1      26.565  -6.751  13.374  1.00  0.00     0.277 HD
ENDBRANCH  20  21
ENDBRANCH   5  18
BRANCH   4  25
HETATM   25  N3  UNL     1      21.618  -7.978  16.729  1.00  0.00    -0.233 N 
ATOM     26  H32 UNL     1      20.689  -7.694  16.420  1.00  0.00     0.174 HD
ATOM     27  H31 UNL     1      21.917  -7.417  17.527  1.00  0.00     0.174 HD
ENDBRANCH   4  25
TORSDOF 9
ENDMDL
MODEL 5
REMARK VINA RESULT: -5.154952149      2.875      4.666
REMARK  9 active torsions:
REMARK  status: ('A' for Active; 'I' for Inactive)
REMARK    1  A    between atoms: N1_1  and  C1_4 
REMARK    2  A    between atoms: C2_7  and  N3_8 
REMARK    3  A    between atoms: N4_11  and  C3_12 
REMARK    4  A    between atoms: C4_14  and  N5_15 
REMARK    5  A    between atoms: N6_19  and  C5_20 
REMARK    6  A    between atoms: C5_20  and  C6_21 
REMARK    7  A    between atoms: C6_21  and  C7_22 
REMARK    8  A    between atoms: C7_22  and  C8_23 
REMARK    9  A    between atoms: C8_23  and  N7_24 
ROOT
HETATM    1  C1  UNL     1      24.953  -7.975  14.016  1.00  0.00     0.708 A 
HETATM    2  N2  UNL     1      26.192  -7.574  13.606  1.00  0.00    -0.020 N 
ATOM      3  H2  UNL     1      26.413  -6.937  12.841  1.00  0.00     0.203 HD
HETATM    4  C2  UNL     1      27.059  -8.193  14.419  1.00  0.00     0.710 A 
HETATM    5  N4  UNL     1      26.407  -8.956  15.311  1.00  0.00    -0.073 N 
HETATM    6  N6  UNL     1      25.125  -8.812  15.052  1.00  0.00    -0.104 N 
ENDROOT
BRANCH   6   7
HETATM    7  C5  UNL     1      24.061  -9.463  15.754  1.00  0.00     0.169 C 
BRANCH   7   8
HETATM    8  C6  UNL     1      23.665 -10.799  15.228  1.00  0.00     0.024 C 
BRANCH   8   9
HETATM    9  C7  UNL     1      22.241 -11.203  15.505  1.00  0.00     0.029 C 
BRANCH   9  10
HETATM   10  C8  UNL     1      22.144 -12.682  15.098  1.00  0.00     0.229 C 
BRANCH  10  11
HETATM   11  N7  UNL     1      22.584 -13.461  16.243  1.00  0.00    -0.079 N 
ATOM     12  H73 UNL     1      23.597 -13.483  16.350  1.00  0.00     0.274 HD
ATOM     13  H72 UNL     1      22.370 -13.019  17.137  1.00  0.00     0.274 HD
ATOM     14  H71 UNL     1      22.169 -14.388  16.145  1.00  0.00     0.274 HD
ENDBRANCH  10  11
ENDBRANCH   9  10
ENDBRANCH   8   9
ENDBRANCH   7   8
ENDBRANCH   6   7
BRANCH   1  15
HETATM   15  N1  UNL     1      23.891  -7.540  13.429  1.00  0.00    -0.233 N 
ATOM     16  H12 UNL     1      23.415  -6.638  13.464  1.00  0.00     0.174 HD
ATOM     17  H11 UNL     1      23.368  -8.135  12.788  1.00  0.00     0.174 HD
ENDBRANCH   1  15
BRANCH   5  18
HETATM   18  C3  UNL     1      27.101  -9.737  16.307  1.00  0.00     0.322 A 
HETATM   19  O1  UNL     1      28.400 -10.138  16.151  1.00  0.00    -0.324 OA
HETATM   20  C4  UNL     1      27.440 -11.122  15.933  1.00  0.00     0.372 A 
BRANCH  20  21
HETATM   21  N5  UNL     1      27.382 -12.210  16.880  1.00  0.00    -0.048 N 
ATOM     22  H53 UNL     1      27.286 -13.076  16.351  1.00  0.00     0.277 HD
ATOM     23  H52 UNL     1      28.310 -12.313  17.292  1.00  0.00     0.277 HD
ATOM     24  H51 UNL     1      26.701 -12.233  17.639  1.00  0.00     0.277 HD
ENDBRANCH  20  21
ENDBRANCH   5  18
BRANCH   4  25
HETATM   25  N3  UNL     1      28.351  -8.047  14.323  1.00  0.00    -0.233 N 
ATOM     26  H32 UNL     1      28.841  -7.357  13.755  1.00  0.00     0.174 HD
ATOM     27  H31 UNL     1      29.015  -8.634  14.828  1.00  0.00     0.174 HD
ENDBRANCH   4  25
TORSDOF 9
ENDMDL
