MODEL 1
REMARK VINA RESULT: -6.291697059      0.000      0.000
REMARK  6 active torsions:
REMARK  status: ('A' for Active; 'I' for Inactive)
REMARK    1  A    between atoms: C2_2  and  N1_3 
REMARK    2  A    between atoms: N1_3  and  C3_6 
REMARK    3  A    between atoms: C6_15  and  C7_16 
REMARK    4  A    between atoms: C7_16  and  N6_17 
REMARK    5  A    between atoms: N6_17  and  C8_20 
REMARK    6  A    between atoms: C8_20  and  O1_21 
ROOT
HETATM    1  C3  UNL     1      26.179  -9.484  15.200  1.00  0.00     0.274 A 
HETATM    2  C4  UNL     1      24.754  -9.770  15.120  1.00  0.00     0.128 A 
HETATM    3  N2  UNL     1      24.179 -11.100  15.195  1.00  0.00    -0.085 NA
HETATM    4  N3  UNL     1      23.832  -8.872  14.910  1.00  0.00    -0.321 N 
ATOM      5  H3  UNL     1      22.856  -9.167  14.875  1.00  0.00     0.169 HD
HETATM    6  C5  UNL     1      24.140  -7.500  14.730  1.00  0.00     0.189 A 
HETATM    7  N4  UNL     1      23.075  -6.550  14.511  1.00  0.00    -0.064 NA
HETATM    8  N5  UNL     1      25.346  -7.167  14.770  1.00  0.00    -0.356 N 
ATOM      9  H5  UNL     1      25.548  -6.176  14.639  1.00  0.00     0.162 HD
HETATM   10  C6  UNL     1      26.460  -8.015  14.978  1.00  0.00     0.147 A 
ENDROOT
BRANCH  10  11
HETATM   11  C7  UNL     1      27.414  -7.448  16.025  1.00  0.00     0.262 C 
BRANCH  11  12
HETATM   12  N6  UNL     1      26.755  -6.705  17.051  1.00  0.00    -0.052 N 
ATOM     13  H62 UNL     1      25.890  -6.293  16.698  1.00  0.00     0.279 HD
ATOM     14  H61 UNL     1      26.369  -7.330  17.758  1.00  0.00     0.279 HD
BRANCH  12  15
HETATM   15  C8  UNL     1      27.579  -5.707  17.655  1.00  0.00     0.396 C 
BRANCH  15  16
HETATM   16  O1  UNL     1      26.895  -4.545  17.972  1.00  0.00    -0.375 OA
ATOM     17  H1  UNL     1      27.312  -4.036  18.656  1.00  0.00     0.211 HD
ENDBRANCH  15  16
ENDBRANCH  12  15
ENDBRANCH  11  12
ENDBRANCH  10  11
BRANCH   1  18
HETATM   18  N1  UNL     1      26.769  -9.948  16.410  1.00  0.00    -0.063 N 
ATOM     19  H12 UNL     1      26.068 -10.015  17.148  1.00  0.00     0.278 HD
ATOM     20  H11 UNL     1      27.374  -9.232  16.812  1.00  0.00     0.278 HD
BRANCH  18  21
HETATM   21  C2  UNL     1      27.473 -11.183  16.271  1.00  0.00     0.229 C 
HETATM   22  C1  UNL     1      28.141 -11.192  14.855  1.00  0.00     0.034 C 
ENDBRANCH  18  21
ENDBRANCH   1  18
TORSDOF 6
ENDMDL
MODEL 2
REMARK VINA RESULT: -5.777980453      2.415      4.237
REMARK  6 active torsions:
REMARK  status: ('A' for Active; 'I' for Inactive)
REMARK    1  A    between atoms: C2_2  and  N1_3 
REMARK    2  A    between atoms: N1_3  and  C3_6 
REMARK    3  A    between atoms: C6_15  and  C7_16 
REMARK    4  A    between atoms: C7_16  and  N6_17 
REMARK    5  A    between atoms: N6_17  and  C8_20 
REMARK    6  A    between atoms: C8_20  and  O1_21 
ROOT
HETATM    1  C3  UNL     1      25.480  -8.746  14.399  1.00  0.00     0.274 A 
HETATM    2  C4  UNL     1      24.925  -7.516  14.947  1.00  0.00     0.128 A 
HETATM    3  N2  UNL     1      23.728  -6.864  14.449  1.00  0.00    -0.085 NA
HETATM    4  N3  UNL     1      25.471  -6.825  15.907  1.00  0.00    -0.321 N 
ATOM      5  H3  UNL     1      25.005  -5.976  16.230  1.00  0.00     0.169 HD
HETATM    6  C5  UNL     1      26.689  -7.211  16.520  1.00  0.00     0.189 A 
HETATM    7  N4  UNL     1      27.240  -6.410  17.587  1.00  0.00    -0.064 NA
HETATM    8  N5  UNL     1      27.244  -8.252  16.100  1.00  0.00    -0.356 N 
ATOM      9  H5  UNL     1      28.119  -8.514  16.553  1.00  0.00     0.162 HD
HETATM   10  C6  UNL     1      26.790  -9.105  15.066  1.00  0.00     0.147 A 
ENDROOT
BRANCH  10  11
HETATM   11  C7  UNL     1      26.840 -10.572  15.480  1.00  0.00     0.262 C 
BRANCH  11  12
HETATM   12  N6  UNL     1      28.112 -11.181  15.258  1.00  0.00    -0.052 N 
ATOM     13  H62 UNL     1      28.036 -11.935  14.575  1.00  0.00     0.279 HD
ATOM     14  H61 UNL     1      28.729 -10.551  14.747  1.00  0.00     0.279 HD
BRANCH  12  15
HETATM   15  C8  UNL     1      28.742 -11.644  16.454  1.00  0.00     0.396 C 
BRANCH  15  16
HETATM   16  O1  UNL     1      30.119 -11.499  16.443  1.00  0.00    -0.375 OA
ATOM     17  H1  UNL     1      30.523 -11.668  17.286  1.00  0.00     0.211 HD
ENDBRANCH  15  16
ENDBRANCH  12  15
ENDBRANCH  11  12
ENDBRANCH  10  11
BRANCH   1  18
HETATM   18  N1  UNL     1      24.562  -9.833  14.441  1.00  0.00    -0.063 N 
ATOM     19  H12 UNL     1      25.052 -10.710  14.615  1.00  0.00     0.278 HD
ATOM     20  H11 UNL     1      24.191 -10.026  13.510  1.00  0.00     0.278 HD
BRANCH  18  21
HETATM   21  C2  UNL     1      23.500  -9.655  15.379  1.00  0.00     0.229 C 
HETATM   22  C1  UNL     1      22.786 -11.037  15.556  1.00  0.00     0.034 C 
ENDBRANCH  18  21
ENDBRANCH   1  18
TORSDOF 6
ENDMDL
MODEL 3
REMARK VINA RESULT: -5.545372319      2.671      4.352
REMARK  6 active torsions:
REMARK  status: ('A' for Active; 'I' for Inactive)
REMARK    1  A    between atoms: C2_2  and  N1_3 
REMARK    2  A    between atoms: N1_3  and  C3_6 
REMARK    3  A    between atoms: C6_15  and  C7_16 
REMARK    4  A    between atoms: C7_16  and  N6_17 
REMARK    5  A    between atoms: N6_17  and  C8_20 
REMARK    6  A    between atoms: C8_20  and  O1_21 
ROOT
HETATM    1  C3  UNL     1      24.974  -8.677  15.499  1.00  0.00     0.274 A 
HETATM    2  C4  UNL     1      23.535  -8.704  15.717  1.00  0.00     0.128 A 
HETATM    3  N2  UNL     1      22.756  -7.575  16.192  1.00  0.00    -0.085 NA
HETATM    4  N3  UNL     1      22.787  -9.761  15.570  1.00  0.00    -0.321 N 
ATOM      5  H3  UNL     1      21.784  -9.683  15.741  1.00  0.00     0.169 HD
HETATM    6  C5  UNL     1      23.318 -11.016  15.180  1.00  0.00     0.189 A 
HETATM    7  N4  UNL     1      22.437 -12.149  15.023  1.00  0.00    -0.064 NA
HETATM    8  N5  UNL     1      24.553 -11.086  14.984  1.00  0.00    -0.356 N 
ATOM      9  H5  UNL     1      24.917 -11.997  14.703  1.00  0.00     0.162 HD
HETATM   10  C6  UNL     1      25.498 -10.041  15.108  1.00  0.00     0.147 A 
ENDROOT
BRANCH  10  11
HETATM   11  C7  UNL     1      26.430  -9.974  13.901  1.00  0.00     0.262 C 
BRANCH  11  12
HETATM   12  N6  UNL     1      27.814  -9.978  14.252  1.00  0.00    -0.052 N 
ATOM     13  H62 UNL     1      28.396 -10.048  13.417  1.00  0.00     0.279 HD
ATOM     14  H61 UNL     1      28.104  -9.059  14.584  1.00  0.00     0.279 HD
BRANCH  12  15
HETATM   15  C8  UNL     1      28.162 -10.990  15.198  1.00  0.00     0.396 C 
BRANCH  15  16
HETATM   16  O1  UNL     1      28.299 -12.247  14.635  1.00  0.00    -0.375 OA
ATOM     17  H1  UNL     1      29.182 -12.592  14.690  1.00  0.00     0.211 HD
ENDBRANCH  15  16
ENDBRANCH  12  15
ENDBRANCH  11  12
ENDBRANCH  10  11
BRANCH   1  18
HETATM   18  N1  UNL     1      25.372  -7.681  14.562  1.00  0.00    -0.063 N 
ATOM     19  H12 UNL     1      24.573  -7.361  14.017  1.00  0.00     0.278 HD
ATOM     20  H11 UNL     1      25.934  -8.092  13.817  1.00  0.00     0.278 HD
BRANCH  18  21
HETATM   21  C2  UNL     1      26.054  -6.573  15.154  1.00  0.00     0.229 C 
HETATM   22  C1  UNL     1      26.722  -7.080  16.477  1.00  0.00     0.034 C 
ENDBRANCH  18  21
ENDBRANCH   1  18
TORSDOF 6
ENDMDL
MODEL 4
REMARK VINA RESULT: -5.260360050      1.416      1.655
REMARK  6 active torsions:
REMARK  status: ('A' for Active; 'I' for Inactive)
REMARK    1  A    between atoms: C2_2  and  N1_3 
REMARK    2  A    between atoms: N1_3  and  C3_6 
REMARK    3  A    between atoms: C6_15  and  C7_16 
REMARK    4  A    between atoms: C7_16  and  N6_17 
REMARK    5  A    between atoms: N6_17  and  C8_20 
REMARK    6  A    between atoms: C8_20  and  O1_21 
ROOT
HETATM    1  C3  UNL     1      24.777  -9.660  14.629  1.00  0.00     0.274 A 
HETATM    2  C4  UNL     1      23.601 -10.320  15.177  1.00  0.00     0.128 A 
HETATM    3  N2  UNL     1      23.309 -11.734  15.026  1.00  0.00    -0.085 NA
HETATM    4  N3  UNL     1      22.643  -9.710  15.816  1.00  0.00    -0.321 N 
ATOM      5  H3  UNL     1      21.858 -10.258  16.169  1.00  0.00     0.169 HD
HETATM    6  C5  UNL     1      22.653  -8.310  16.036  1.00  0.00     0.189 A 
HETATM    7  N4  UNL     1      21.567  -7.690  16.759  1.00  0.00    -0.064 NA
HETATM    8  N5  UNL     1      23.623  -7.659  15.585  1.00  0.00    -0.356 N 
ATOM      9  H5  UNL     1      23.613  -6.653  15.754  1.00  0.00     0.162 HD
HETATM   10  C6  UNL     1      24.732  -8.167  14.868  1.00  0.00     0.147 A 
ENDROOT
BRANCH  10  11
HETATM   11  C7  UNL     1      26.053  -7.633  15.415  1.00  0.00     0.262 C 
BRANCH  11  12
HETATM   12  N6  UNL     1      25.994  -7.285  16.799  1.00  0.00    -0.052 N 
ATOM     13  H62 UNL     1      25.109  -6.827  17.018  1.00  0.00     0.279 HD
ATOM     14  H61 UNL     1      25.901  -8.120  17.377  1.00  0.00     0.279 HD
BRANCH  12  15
HETATM   15  C8  UNL     1      27.097  -6.489  17.237  1.00  0.00     0.396 C 
BRANCH  15  16
HETATM   16  O1  UNL     1      26.730  -5.218  17.646  1.00  0.00    -0.375 OA
ATOM     17  H1  UNL     1      25.846  -4.980  17.395  1.00  0.00     0.211 HD
ENDBRANCH  15  16
ENDBRANCH  12  15
ENDBRANCH  11  12
ENDBRANCH  10  11
BRANCH   1  18
HETATM   18  N1  UNL     1      25.997 -10.224  15.100  1.00  0.00    -0.063 N 
ATOM     19  H12 UNL     1      25.816 -11.057  15.659  1.00  0.00     0.278 HD
ATOM     20  H11 UNL     1      26.417  -9.627  15.813  1.00  0.00     0.278 HD
BRANCH  18  21
HETATM   21  C2  UNL     1      26.938 -10.508  14.063  1.00  0.00     0.229 C 
HETATM   22  C1  UNL     1      28.267 -10.979  14.745  1.00  0.00     0.034 C 
ENDBRANCH  18  21
ENDBRANCH   1  18
TORSDOF 6
ENDMDL
MODEL 5
REMARK VINA RESULT: -5.209476851      3.112      4.509
REMARK  6 active torsions:
REMARK  status: ('A' for Active; 'I' for Inactive)
REMARK    1  A    between atoms: C2_2  and  N1_3 
REMARK    2  A    between atoms: N1_3  and  C3_6 
REMARK    3  A    between atoms: C6_15  and  C7_16 
REMARK    4  A    between atoms: C7_16  and  N6_17 
REMARK    5  A    between atoms: N6_17  and  C8_20 
REMARK    6  A    between atoms: C8_20  and  O1_21 
ROOT
HETATM    1  C3  UNL     1      26.027  -9.446  15.264  1.00  0.00     0.274 A 
HETATM    2  C4  UNL     1      26.374  -8.297  14.441  1.00  0.00     0.128 A 
HETATM    3  N2  UNL     1      27.731  -7.851  14.185  1.00  0.00    -0.085 NA
HETATM    4  N3  UNL     1      25.505  -7.498  13.886  1.00  0.00    -0.321 N 
ATOM      5  H3  UNL     1      25.843  -6.719  13.321  1.00  0.00     0.169 HD
HETATM    6  C5  UNL     1      24.108  -7.674  14.042  1.00  0.00     0.189 A 
HETATM    7  N4  UNL     1      23.194  -6.763  13.395  1.00  0.00    -0.064 NA
HETATM    8  N5  UNL     1      23.720  -8.633  14.748  1.00  0.00    -0.356 N 
ATOM      9  H5  UNL     1      22.711  -8.744  14.848  1.00  0.00     0.162 HD
HETATM   10  C6  UNL     1      24.528  -9.580  15.421  1.00  0.00     0.147 A 
ENDROOT
BRANCH  10  11
HETATM   11  C7  UNL     1      24.050 -11.008  15.176  1.00  0.00     0.262 C 
BRANCH  11  12
HETATM   12  N6  UNL     1      22.659 -11.193  15.437  1.00  0.00    -0.052 N 
ATOM     13  H62 UNL     1      22.443 -10.978  16.410  1.00  0.00     0.279 HD
ATOM     14  H61 UNL     1      22.106 -10.470  14.976  1.00  0.00     0.279 HD
BRANCH  12  15
HETATM   15  C8  UNL     1      22.179 -12.493  15.089  1.00  0.00     0.396 C 
BRANCH  15  16
HETATM   16  O1  UNL     1      22.669 -13.498  15.906  1.00  0.00    -0.375 OA
ATOM     17  H1  UNL     1      22.046 -14.199  16.057  1.00  0.00     0.211 HD
ENDBRANCH  15  16
ENDBRANCH  12  15
ENDBRANCH  11  12
ENDBRANCH  10  11
BRANCH   1  18
HETATM   18  N1  UNL     1      26.609 -10.658  14.795  1.00  0.00    -0.063 N 
ATOM     19  H12 UNL     1      26.635 -10.672  13.776  1.00  0.00     0.278 HD
ATOM     20  H11 UNL     1      25.983 -11.446  14.961  1.00  0.00     0.278 HD
BRANCH  18  21
HETATM   21  C2  UNL     1      27.905 -10.922  15.335  1.00  0.00     0.229 C 
HETATM   22  C1  UNL     1      27.719 -11.317  16.839  1.00  0.00     0.034 C 
ENDBRANCH  18  21
ENDBRANCH   1  18
TORSDOF 6
ENDMDL
