MODEL 1
REMARK VINA RESULT: -8.273770226      0.000      0.000
REMARK  11 active torsions:
REMARK  status: ('A' for Active; 'I' for Inactive)
REMARK    1  A    between atoms: N1_2  and  C2_4 
REMARK    2  A    between atoms: C3_7  and  N3_8 
REMARK    3  A    between atoms: C4_13  and  O1_14 
REMARK    4  A    between atoms: C6_16  and  C7_17 
REMARK    5  A    between atoms: C8_22  and  C9_23 
REMARK    6  A    between atoms: C9_23  and  N7_24 
REMARK    7  A    between atoms: C9_23  and  N8_28 
REMARK    8  A    between atoms: N8_28  and  N9_29 
REMARK    9  A    between atoms: C12_36  and  N11_37 
REMARK   10  A    between atoms: C13_44  and  N15_45 
REMARK   11  A    between atoms: N15_45  and  O2_47 
ROOT
HETATM    1  C7  UNL     1      14.987  81.546  -1.514  1.00  0.00     0.096 A 
HETATM    2  N5  UNL     1      14.860  82.877  -1.430  1.00  0.00    -0.297 N 
ATOM      3  H5  UNL     1      14.584  83.313  -0.551  1.00  0.00     0.187 HD
HETATM    4  N6  UNL     1      15.092  83.603  -2.477  1.00  0.00    -0.299 N 
ATOM      5  H6  UNL     1      14.986  84.612  -2.374  1.00  0.00     0.186 HD
HETATM    6  C8  UNL     1      15.462  83.142  -3.693  1.00  0.00     0.103 A 
HETATM    7  C10 UNL     1      15.597  81.776  -3.795  1.00  0.00     0.108 A 
HETATM    8  C11 UNL     1      15.356  80.955  -2.690  1.00  0.00     0.108 A 
HETATM    9  N10 UNL     1      15.567  79.667  -3.071  1.00  0.00    -0.184 N 
ATOM     10  H10 UNL     1      15.471  78.839  -2.483  1.00  0.00     0.184 HD
HETATM   11  C12 UNL     1      15.925  79.688  -4.363  1.00  0.00     0.723 A 
HETATM   12  N16 UNL     1      15.947  80.973  -4.816  1.00  0.00    -0.181 N 
HETATM   13  C14 UNL     1      16.286  81.419  -6.125  1.00  0.00     0.176 C 
ENDROOT
BRANCH   1  14
HETATM   14  C6  UNL     1      14.741  80.664  -0.370  1.00  0.00     0.090 A 
HETATM   15  C2  UNL     1      13.527  80.020  -0.256  1.00  0.00     0.133 A 
HETATM   16  N2  UNL     1      13.309  79.208   0.798  1.00  0.00    -0.176 N 
HETATM   17  C3  UNL     1      14.306  79.070   1.692  1.00  0.00     0.679 A 
ATOM     18  H2  UNL     1      12.422  78.717   0.914  1.00  0.00     0.186 HD
HETATM   19  N4  UNL     1      15.493  79.690   1.592  1.00  0.00    -0.170 N 
HETATM   20  C4  UNL     1      15.759  80.520   0.548  1.00  0.00     0.173 A 
ATOM     21  H4  UNL     1      16.202  79.538   2.309  1.00  0.00     0.186 HD
BRANCH  15  22
HETATM   22  N1  UNL     1      12.592  80.179  -1.136  1.00  0.00    -0.379 N 
HETATM   23  C1  UNL     1      11.336  80.774  -0.774  1.00  0.00     0.147 C 
ATOM     24  H1  UNL     1      12.749  79.878  -2.097  1.00  0.00     0.160 HD
ENDBRANCH  15  22
BRANCH  17  25
HETATM   25  N3  UNL     1      14.099  78.287   2.709  1.00  0.00    -0.234 N 
ATOM     26  H32 UNL     1      13.795  78.703   3.589  1.00  0.00     0.174 HD
ATOM     27  H31 UNL     1      14.254  77.288   2.575  1.00  0.00     0.174 HD
ENDBRANCH  17  25
BRANCH  20  28
HETATM   28  O1  UNL     1      16.989  81.157   0.453  1.00  0.00    -0.340 OA
HETATM   29  C5  UNL     1      17.911  81.021   1.499  1.00  0.00     0.211 C 
ENDBRANCH  20  28
ENDBRANCH   1  14
BRANCH   6  30
HETATM   30  C9  UNL     1      15.656  84.116  -4.743  1.00  0.00     0.348 C 
BRANCH  30  31
HETATM   31  N7  UNL     1      14.491  85.052  -4.628  1.00  0.00    -0.054 N 
ATOM     32  H73 UNL     1      14.250  85.521  -5.501  1.00  0.00     0.276 HD
ATOM     33  H72 UNL     1      13.595  84.582  -4.496  1.00  0.00     0.276 HD
ATOM     34  H71 UNL     1      14.737  85.691  -3.871  1.00  0.00     0.276 HD
ENDBRANCH  30  31
BRANCH  30  35
HETATM   35  N8  UNL     1      16.785  84.957  -4.370  1.00  0.00    -0.108 NA
BRANCH  35  36
HETATM   36  N9  UNL     1      17.996  84.331  -4.681  1.00  0.00    -0.346 N 
ATOM     37  H92 UNL     1      18.079  83.549  -5.330  1.00  0.00     0.172 HD
ATOM     38  H91 UNL     1      18.768  84.761  -4.172  1.00  0.00     0.172 HD
ENDBRANCH  35  36
ENDBRANCH  30  35
ENDBRANCH   6  30
BRANCH  11  39
HETATM   39  N11 UNL     1      16.249  78.576  -5.209  1.00  0.00     0.109 N 
HETATM   40  N12 UNL     1      17.390  78.377  -5.841  1.00  0.00    -0.191 N 
HETATM   41  N13 UNL     1      17.335  77.252  -6.527  1.00  0.00    -0.212 N 
ATOM     42  H12 UNL     1      18.195  79.000  -5.804  1.00  0.00     0.211 HD
HETATM   43  N14 UNL     1      16.165  76.709  -6.353  1.00  0.00    -0.112 N 
ATOM     44  H13 UNL     1      18.087  76.869  -7.101  1.00  0.00     0.210 HD
HETATM   45  C13 UNL     1      15.474  77.523  -5.531  1.00  0.00     0.755 A 
ATOM     46  H14 UNL     1      15.833  75.834  -6.760  1.00  0.00     0.207 HD
BRANCH  45  47
HETATM   47  N15 UNL     1      14.153  77.295  -5.090  1.00  0.00    -0.095 N 
ATOM     48  H15 UNL     1      14.004  76.761  -4.233  1.00  0.00     0.213 HD
BRANCH  47  49
HETATM   49  O2  UNL     1      13.069  77.763  -5.772  1.00  0.00    -0.276 OA
ATOM     50  H2  UNL     1      12.349  77.198  -6.025  1.00  0.00     0.245 HD
ENDBRANCH  47  49
ENDBRANCH  45  47
ENDBRANCH  11  39
TORSDOF 11
ENDMDL
MODEL 2
REMARK VINA RESULT: -8.206166456      0.967      2.272
REMARK  11 active torsions:
REMARK  status: ('A' for Active; 'I' for Inactive)
REMARK    1  A    between atoms: N1_2  and  C2_4 
REMARK    2  A    between atoms: C3_7  and  N3_8 
REMARK    3  A    between atoms: C4_13  and  O1_14 
REMARK    4  A    between atoms: C6_16  and  C7_17 
REMARK    5  A    between atoms: C8_22  and  C9_23 
REMARK    6  A    between atoms: C9_23  and  N7_24 
REMARK    7  A    between atoms: C9_23  and  N8_28 
REMARK    8  A    between atoms: N8_28  and  N9_29 
REMARK    9  A    between atoms: C12_36  and  N11_37 
REMARK   10  A    between atoms: C13_44  and  N15_45 
REMARK   11  A    between atoms: N15_45  and  O2_47 
ROOT
HETATM    1  C7  UNL     1      14.908  81.543  -1.510  1.00  0.00     0.096 A 
HETATM    2  N5  UNL     1      14.736  82.869  -1.441  1.00  0.00    -0.297 N 
ATOM      3  H5  UNL     1      14.449  83.307  -0.566  1.00  0.00     0.187 HD
HETATM    4  N6  UNL     1      14.937  83.591  -2.498  1.00  0.00    -0.299 N 
ATOM      5  H6  UNL     1      14.797  84.597  -2.407  1.00  0.00     0.186 HD
HETATM    6  C8  UNL     1      15.317  83.127  -3.711  1.00  0.00     0.103 A 
HETATM    7  C10 UNL     1      15.498  81.765  -3.797  1.00  0.00     0.108 A 
HETATM    8  C11 UNL     1      15.291  80.950  -2.680  1.00  0.00     0.108 A 
HETATM    9  N10 UNL     1      15.543  79.666  -3.046  1.00  0.00    -0.184 N 
ATOM     10  H10 UNL     1      15.479  78.843  -2.448  1.00  0.00     0.184 HD
HETATM   11  C12 UNL     1      15.894  79.683  -4.341  1.00  0.00     0.723 A 
HETATM   12  N16 UNL     1      15.870  80.962  -4.810  1.00  0.00    -0.181 N 
HETATM   13  C14 UNL     1      16.186  81.404  -6.126  1.00  0.00     0.176 C 
ENDROOT
BRANCH   1  14
HETATM   14  C6  UNL     1      14.698  80.668  -0.353  1.00  0.00     0.090 A 
HETATM   15  C2  UNL     1      15.721  80.484   0.554  1.00  0.00     0.133 A 
HETATM   16  N2  UNL     1      15.519  79.679   1.618  1.00  0.00    -0.176 N 
HETATM   17  C3  UNL     1      14.313  79.095   1.735  1.00  0.00     0.679 A 
ATOM     18  H2  UNL     1      16.254  79.520   2.308  1.00  0.00     0.186 HD
HETATM   19  N4  UNL     1      13.309  79.266   0.859  1.00  0.00    -0.170 N 
HETATM   20  C4  UNL     1      13.464  80.067  -0.230  1.00  0.00     0.173 A 
ATOM     21  H4  UNL     1      12.420  78.790   1.011  1.00  0.00     0.186 HD
BRANCH  15  22
HETATM   22  N1  UNL     1      16.868  81.062   0.407  1.00  0.00    -0.379 N 
HETATM   23  C1  UNL     1      17.836  81.054   1.468  1.00  0.00     0.147 C 
ATOM     24  H1  UNL     1      17.087  81.530  -0.472  1.00  0.00     0.160 HD
ENDBRANCH  15  22
BRANCH  17  25
HETATM   25  N3  UNL     1      14.115  78.319   2.759  1.00  0.00    -0.234 N 
ATOM     26  H32 UNL     1      13.155  78.093   3.019  1.00  0.00     0.174 HD
ATOM     27  H31 UNL     1      14.937  77.974   3.255  1.00  0.00     0.174 HD
ENDBRANCH  17  25
BRANCH  20  28
HETATM   28  O1  UNL     1      12.422  80.239  -1.130  1.00  0.00    -0.340 OA
HETATM   29  C5  UNL     1      11.286  80.956  -0.730  1.00  0.00     0.211 C 
ENDBRANCH  20  28
ENDBRANCH   1  14
BRANCH   6  30
HETATM   30  C9  UNL     1      15.471  84.094  -4.774  1.00  0.00     0.348 C 
BRANCH  30  31
HETATM   31  N7  UNL     1      14.256  84.968  -4.687  1.00  0.00    -0.054 N 
ATOM     32  H73 UNL     1      13.386  84.452  -4.556  1.00  0.00     0.276 HD
ATOM     33  H72 UNL     1      14.200  85.513  -3.827  1.00  0.00     0.276 HD
ATOM     34  H71 UNL     1      14.276  85.535  -5.535  1.00  0.00     0.276 HD
ENDBRANCH  30  31
BRANCH  30  35
HETATM   35  N8  UNL     1      16.549  85.001  -4.400  1.00  0.00    -0.108 NA
BRANCH  35  36
HETATM   36  N9  UNL     1      17.796  84.417  -4.641  1.00  0.00    -0.346 N 
ATOM     37  H92 UNL     1      17.931  83.422  -4.820  1.00  0.00     0.172 HD
ATOM     38  H91 UNL     1      18.536  85.118  -4.612  1.00  0.00     0.172 HD
ENDBRANCH  35  36
ENDBRANCH  30  35
ENDBRANCH   6  30
BRANCH  11  39
HETATM   39  N11 UNL     1      16.252  78.572  -5.175  1.00  0.00     0.109 N 
HETATM   40  N12 UNL     1      17.412  78.381  -5.773  1.00  0.00    -0.191 N 
HETATM   41  N13 UNL     1      17.386  77.255  -6.458  1.00  0.00    -0.212 N 
ATOM     42  H12 UNL     1      18.211  79.012  -5.714  1.00  0.00     0.211 HD
HETATM   43  N14 UNL     1      16.216  76.703  -6.317  1.00  0.00    -0.112 N 
ATOM     44  H13 UNL     1      18.158  76.878  -7.009  1.00  0.00     0.210 HD
HETATM   45  C13 UNL     1      15.495  77.513  -5.518  1.00  0.00     0.755 A 
ATOM     46  H14 UNL     1      15.904  75.825  -6.732  1.00  0.00     0.207 HD
BRANCH  45  47
HETATM   47  N15 UNL     1      14.164  77.274  -5.114  1.00  0.00    -0.095 N 
ATOM     48  H15 UNL     1      13.994  76.729  -4.269  1.00  0.00     0.213 HD
BRANCH  47  49
HETATM   49  O2  UNL     1      13.097  77.747  -5.819  1.00  0.00    -0.276 OA
ATOM     50  H2  UNL     1      12.630  77.212  -6.450  1.00  0.00     0.245 HD
ENDBRANCH  47  49
ENDBRANCH  45  47
ENDBRANCH  11  39
TORSDOF 11
ENDMDL
MODEL 3
REMARK VINA RESULT: -7.798738737      1.197      1.539
REMARK  11 active torsions:
REMARK  status: ('A' for Active; 'I' for Inactive)
REMARK    1  A    between atoms: N1_2  and  C2_4 
REMARK    2  A    between atoms: C3_7  and  N3_8 
REMARK    3  A    between atoms: C4_13  and  O1_14 
REMARK    4  A    between atoms: C6_16  and  C7_17 
REMARK    5  A    between atoms: C8_22  and  C9_23 
REMARK    6  A    between atoms: C9_23  and  N7_24 
REMARK    7  A    between atoms: C9_23  and  N8_28 
REMARK    8  A    between atoms: N8_28  and  N9_29 
REMARK    9  A    between atoms: C12_36  and  N11_37 
REMARK   10  A    between atoms: C13_44  and  N15_45 
REMARK   11  A    between atoms: N15_45  and  O2_47 
ROOT
HETATM    1  C7  UNL     1      15.432  81.511  -1.443  1.00  0.00     0.096 A 
HETATM    2  N5  UNL     1      15.681  82.822  -1.334  1.00  0.00    -0.297 N 
ATOM      3  H5  UNL     1      15.606  83.287  -0.429  1.00  0.00     0.187 HD
HETATM    4  N6  UNL     1      16.019  83.494  -2.388  1.00  0.00    -0.299 N 
ATOM      5  H6  UNL     1      16.201  84.490  -2.266  1.00  0.00     0.186 HD
HETATM    6  C8  UNL     1      16.150  82.991  -3.637  1.00  0.00     0.103 A 
HETATM    7  C10 UNL     1      15.897  81.644  -3.765  1.00  0.00     0.108 A 
HETATM    8  C11 UNL     1      15.530  80.882  -2.652  1.00  0.00     0.108 A 
HETATM    9  N10 UNL     1      15.349  79.599  -3.064  1.00  0.00    -0.184 N 
ATOM     10  H10 UNL     1      15.078  78.809  -2.479  1.00  0.00     0.184 HD
HETATM   11  C12 UNL     1      15.595  79.566  -4.381  1.00  0.00     0.723 A 
HETATM   12  N16 UNL     1      15.932  80.811  -4.821  1.00  0.00    -0.181 N 
HETATM   13  C14 UNL     1      16.275  81.193  -6.149  1.00  0.00     0.176 C 
ENDROOT
BRANCH   1  14
HETATM   14  C6  UNL     1      15.046  80.691  -0.291  1.00  0.00     0.090 A 
HETATM   15  C2  UNL     1      13.758  80.206  -0.203  1.00  0.00     0.133 A 
HETATM   16  N2  UNL     1      13.411  79.449   0.859  1.00  0.00    -0.176 N 
HETATM   17  C3  UNL     1      14.358  79.206   1.784  1.00  0.00     0.679 A 
ATOM     18  H2  UNL     1      12.467  79.075   0.957  1.00  0.00     0.186 HD
HETATM   19  N4  UNL     1      15.616  79.672   1.709  1.00  0.00    -0.170 N 
HETATM   20  C4  UNL     1      16.012  80.440   0.659  1.00  0.00     0.173 A 
ATOM     21  H4  UNL     1      16.280  79.448   2.449  1.00  0.00     0.186 HD
BRANCH  15  22
HETATM   22  N1  UNL     1      12.875  80.462  -1.112  1.00  0.00    -0.379 N 
HETATM   23  C1  UNL     1      11.520  80.777  -0.754  1.00  0.00     0.147 C 
ATOM     24  H1  UNL     1      13.144  80.439  -2.096  1.00  0.00     0.160 HD
ENDBRANCH  15  22
BRANCH  17  25
HETATM   25  N3  UNL     1      14.027  78.477   2.808  1.00  0.00    -0.234 N 
ATOM     26  H32 UNL     1      14.750  77.918   3.260  1.00  0.00     0.174 HD
ATOM     27  H31 UNL     1      13.053  78.501   3.109  1.00  0.00     0.174 HD
ENDBRANCH  17  25
BRANCH  20  28
HETATM   28  O1  UNL     1      17.314  80.917   0.590  1.00  0.00    -0.340 OA
HETATM   29  C5  UNL     1      18.069  81.015   1.767  1.00  0.00     0.211 C 
ENDBRANCH  20  28
ENDBRANCH   1  14
BRANCH   6  30
HETATM   30  C9  UNL     1      16.519  83.910  -4.689  1.00  0.00     0.348 C 
BRANCH  30  31
HETATM   31  N7  UNL     1      15.804  85.187  -4.360  1.00  0.00    -0.054 N 
ATOM     32  H73 UNL     1      14.808  85.067  -4.177  1.00  0.00     0.276 HD
ATOM     33  H72 UNL     1      16.046  85.572  -3.447  1.00  0.00     0.276 HD
ATOM     34  H71 UNL     1      16.008  85.814  -5.139  1.00  0.00     0.276 HD
ENDBRANCH  30  31
BRANCH  30  35
HETATM   35  N8  UNL     1      17.919  84.266  -4.502  1.00  0.00    -0.108 NA
BRANCH  35  36
HETATM   36  N9  UNL     1      18.672  83.931  -5.632  1.00  0.00    -0.346 N 
ATOM     37  H92 UNL     1      18.508  83.096  -6.195  1.00  0.00     0.172 HD
ATOM     38  H91 UNL     1      19.395  84.628  -5.806  1.00  0.00     0.172 HD
ENDBRANCH  35  36
ENDBRANCH  30  35
ENDBRANCH   6  30
BRANCH  11  39
HETATM   39  N11 UNL     1      15.534  78.437  -5.265  1.00  0.00     0.109 N 
HETATM   40  N12 UNL     1      14.441  77.855  -5.720  1.00  0.00    -0.191 N 
HETATM   41  N13 UNL     1      14.762  76.847  -6.508  1.00  0.00    -0.212 N 
ATOM     42  H12 UNL     1      13.489  78.142  -5.496  1.00  0.00     0.211 HD
HETATM   43  N14 UNL     1      16.059  76.761  -6.574  1.00  0.00    -0.112 N 
ATOM     44  H13 UNL     1      14.102  76.236  -6.988  1.00  0.00     0.210 HD
HETATM   45  C13 UNL     1      16.557  77.747  -5.803  1.00  0.00     0.755 A 
ATOM     46  H14 UNL     1      16.597  76.077  -7.107  1.00  0.00     0.207 HD
BRANCH  45  47
HETATM   47  N15 UNL     1      17.931  78.002  -5.603  1.00  0.00    -0.095 N 
ATOM     48  H15 UNL     1      18.293  78.935  -5.798  1.00  0.00     0.213 HD
BRANCH  47  49
HETATM   49  O2  UNL     1      18.789  77.041  -5.159  1.00  0.00    -0.276 OA
ATOM     50  H2  UNL     1      19.435  77.213  -4.483  1.00  0.00     0.245 HD
ENDBRANCH  47  49
ENDBRANCH  45  47
ENDBRANCH  11  39
TORSDOF 11
ENDMDL
MODEL 4
REMARK VINA RESULT: -7.759290346      1.499      2.746
REMARK  11 active torsions:
REMARK  status: ('A' for Active; 'I' for Inactive)
REMARK    1  A    between atoms: N1_2  and  C2_4 
REMARK    2  A    between atoms: C3_7  and  N3_8 
REMARK    3  A    between atoms: C4_13  and  O1_14 
REMARK    4  A    between atoms: C6_16  and  C7_17 
REMARK    5  A    between atoms: C8_22  and  C9_23 
REMARK    6  A    between atoms: C9_23  and  N7_24 
REMARK    7  A    between atoms: C9_23  and  N8_28 
REMARK    8  A    between atoms: N8_28  and  N9_29 
REMARK    9  A    between atoms: C12_36  and  N11_37 
REMARK   10  A    between atoms: C13_44  and  N15_45 
REMARK   11  A    between atoms: N15_45  and  O2_47 
ROOT
HETATM    1  C7  UNL     1      15.458  81.484  -1.443  1.00  0.00     0.096 A 
HETATM    2  N5  UNL     1      15.711  82.795  -1.330  1.00  0.00    -0.297 N 
ATOM      3  H5  UNL     1      15.640  83.257  -0.424  1.00  0.00     0.187 HD
HETATM    4  N6  UNL     1      16.046  83.469  -2.384  1.00  0.00    -0.299 N 
ATOM      5  H6  UNL     1      16.232  84.464  -2.259  1.00  0.00     0.186 HD
HETATM    6  C8  UNL     1      16.172  82.970  -3.635  1.00  0.00     0.103 A 
HETATM    7  C10 UNL     1      15.915  81.625  -3.766  1.00  0.00     0.108 A 
HETATM    8  C11 UNL     1      15.550  80.859  -2.655  1.00  0.00     0.108 A 
HETATM    9  N10 UNL     1      15.364  79.579  -3.070  1.00  0.00    -0.184 N 
ATOM     10  H10 UNL     1      15.093  78.788  -2.487  1.00  0.00     0.184 HD
HETATM   11  C12 UNL     1      15.605  79.549  -4.389  1.00  0.00     0.723 A 
HETATM   12  N16 UNL     1      15.944  80.795  -4.825  1.00  0.00    -0.181 N 
HETATM   13  C14 UNL     1      16.282  81.181  -6.153  1.00  0.00     0.176 C 
ENDROOT
BRANCH   1  14
HETATM   14  C6  UNL     1      15.075  80.661  -0.293  1.00  0.00     0.090 A 
HETATM   15  C2  UNL     1      15.988  80.434   0.715  1.00  0.00     0.133 A 
HETATM   16  N2  UNL     1      15.627  79.678   1.773  1.00  0.00    -0.176 N 
HETATM   17  C3  UNL     1      14.375  79.183   1.783  1.00  0.00     0.679 A 
ATOM     18  H2  UNL     1      16.277  79.488   2.535  1.00  0.00     0.186 HD
HETATM   19  N4  UNL     1      13.476  79.397   0.808  1.00  0.00    -0.170 N 
HETATM   20  C4  UNL     1      13.794  80.152  -0.278  1.00  0.00     0.173 A 
ATOM     21  H4  UNL     1      12.545  78.989   0.884  1.00  0.00     0.186 HD
BRANCH  15  22
HETATM   22  N1  UNL     1      17.183  80.926   0.669  1.00  0.00    -0.379 N 
HETATM   23  C1  UNL     1      18.032  80.906   1.827  1.00  0.00     0.147 C 
ATOM     24  H1  UNL     1      17.526  81.334  -0.200  1.00  0.00     0.160 HD
ENDBRANCH  15  22
BRANCH  17  25
HETATM   25  N3  UNL     1      14.024  78.455   2.801  1.00  0.00    -0.234 N 
ATOM     26  H32 UNL     1      14.356  78.722   3.727  1.00  0.00     0.174 HD
ATOM     27  H31 UNL     1      13.430  77.646   2.620  1.00  0.00     0.174 HD
ENDBRANCH  17  25
BRANCH  20  28
HETATM   28  O1  UNL     1      12.859  80.369  -1.280  1.00  0.00    -0.340 OA
HETATM   29  C5  UNL     1      11.694  81.089  -0.983  1.00  0.00     0.211 C 
ENDBRANCH  20  28
ENDBRANCH   1  14
BRANCH   6  30
HETATM   30  C9  UNL     1      16.539  83.893  -4.685  1.00  0.00     0.348 C 
BRANCH  30  31
HETATM   31  N7  UNL     1      15.935  85.204  -4.281  1.00  0.00    -0.054 N 
ATOM     32  H73 UNL     1      15.257  85.569  -4.951  1.00  0.00     0.276 HD
ATOM     33  H72 UNL     1      15.295  85.138  -3.490  1.00  0.00     0.276 HD
ATOM     34  H71 UNL     1      16.729  85.824  -4.118  1.00  0.00     0.276 HD
ENDBRANCH  30  31
BRANCH  30  35
HETATM   35  N8  UNL     1      17.969  84.148  -4.577  1.00  0.00    -0.108 NA
BRANCH  35  36
HETATM   36  N9  UNL     1      18.609  83.914  -5.798  1.00  0.00    -0.346 N 
ATOM     37  H92 UNL     1      18.213  83.345  -6.546  1.00  0.00     0.172 HD
ATOM     38  H91 UNL     1      19.512  84.386  -5.829  1.00  0.00     0.172 HD
ENDBRANCH  35  36
ENDBRANCH  30  35
ENDBRANCH   6  30
BRANCH  11  39
HETATM   39  N11 UNL     1      15.537  78.424  -5.276  1.00  0.00     0.109 N 
HETATM   40  N12 UNL     1      14.441  77.854  -5.739  1.00  0.00    -0.191 N 
HETATM   41  N13 UNL     1      14.757  76.846  -6.529  1.00  0.00    -0.212 N 
ATOM     42  H12 UNL     1      13.491  78.150  -5.520  1.00  0.00     0.211 HD
HETATM   43  N14 UNL     1      16.053  76.746  -6.588  1.00  0.00    -0.112 N 
ATOM     44  H13 UNL     1      14.093  76.242  -7.014  1.00  0.00     0.210 HD
HETATM   45  C13 UNL     1      16.556  77.725  -5.811  1.00  0.00     0.755 A 
ATOM     46  H14 UNL     1      16.587  76.059  -7.120  1.00  0.00     0.207 HD
BRANCH  45  47
HETATM   47  N15 UNL     1      17.931  77.966  -5.603  1.00  0.00    -0.095 N 
ATOM     48  H15 UNL     1      18.311  78.886  -5.826  1.00  0.00     0.213 HD
BRANCH  47  49
HETATM   49  O2  UNL     1      18.769  77.008  -5.113  1.00  0.00    -0.276 OA
ATOM     50  H2  UNL     1      19.637  76.865  -5.472  1.00  0.00     0.245 HD
ENDBRANCH  47  49
ENDBRANCH  45  47
ENDBRANCH  11  39
TORSDOF 11
ENDMDL
MODEL 5
REMARK VINA RESULT: -7.230767560      3.005      7.310
REMARK  11 active torsions:
REMARK  status: ('A' for Active; 'I' for Inactive)
REMARK    1  A    between atoms: N1_2  and  C2_4 
REMARK    2  A    between atoms: C3_7  and  N3_8 
REMARK    3  A    between atoms: C4_13  and  O1_14 
REMARK    4  A    between atoms: C6_16  and  C7_17 
REMARK    5  A    between atoms: C8_22  and  C9_23 
REMARK    6  A    between atoms: C9_23  and  N7_24 
REMARK    7  A    between atoms: C9_23  and  N8_28 
REMARK    8  A    between atoms: N8_28  and  N9_29 
REMARK    9  A    between atoms: C12_36  and  N11_37 
REMARK   10  A    between atoms: C13_44  and  N15_45 
REMARK   11  A    between atoms: N15_45  and  O2_47 
ROOT
HETATM    1  C7  UNL     1      15.351  81.318  -1.513  1.00  0.00     0.096 A 
HETATM    2  N5  UNL     1      14.402  80.479  -1.076  1.00  0.00    -0.297 N 
ATOM      3  H5  UNL     1      13.582  80.285  -1.650  1.00  0.00     0.187 HD
HETATM    4  N6  UNL     1      14.537  79.917   0.083  1.00  0.00    -0.299 N 
ATOM      5  H6  UNL     1      13.795  79.284   0.381  1.00  0.00     0.186 HD
HETATM    6  C8  UNL     1      15.575  80.095   0.931  1.00  0.00     0.103 A 
HETATM    7  C10 UNL     1      16.558  80.955   0.496  1.00  0.00     0.108 A 
HETATM    8  C11 UNL     1      16.452  81.582  -0.749  1.00  0.00     0.108 A 
HETATM    9  N10 UNL     1      17.552  82.362  -0.920  1.00  0.00    -0.184 N 
ATOM     10  H10 UNL     1      17.760  82.943  -1.731  1.00  0.00     0.184 HD
HETATM   11  C12 UNL     1      18.313  82.223   0.175  1.00  0.00     0.723 A 
HETATM   12  N16 UNL     1      17.715  81.364   1.048  1.00  0.00    -0.181 N 
HETATM   13  C14 UNL     1      18.204  80.946   2.318  1.00  0.00     0.176 C 
ENDROOT
BRANCH   1  14
HETATM   14  C6  UNL     1      15.262  81.987  -2.814  1.00  0.00     0.090 A 
HETATM   15  C2  UNL     1      14.744  83.263  -2.888  1.00  0.00     0.133 A 
HETATM   16  N2  UNL     1      14.669  83.874  -4.088  1.00  0.00    -0.176 N 
HETATM   17  C3  UNL     1      15.112  83.192  -5.161  1.00  0.00     0.679 A 
ATOM     18  H2  UNL     1      14.290  84.817  -4.180  1.00  0.00     0.186 HD
HETATM   19  N4  UNL     1      15.619  81.950  -5.102  1.00  0.00    -0.170 N 
HETATM   20  C4  UNL     1      15.715  81.292  -3.915  1.00  0.00     0.173 A 
ATOM     21  H4  UNL     1      15.935  81.494  -5.958  1.00  0.00     0.186 HD
BRANCH  15  22
HETATM   22  N1  UNL     1      14.327  83.886  -1.834  1.00  0.00    -0.379 N 
HETATM   23  C1  UNL     1      13.995  85.282  -1.889  1.00  0.00     0.147 C 
ATOM     24  H1  UNL     1      14.234  83.380  -0.954  1.00  0.00     0.160 HD
ENDBRANCH  15  22
BRANCH  17  25
HETATM   25  N3  UNL     1      15.041  83.778  -6.319  1.00  0.00    -0.234 N 
ATOM     26  H32 UNL     1      15.308  84.761  -6.383  1.00  0.00     0.174 HD
ATOM     27  H31 UNL     1      14.719  83.222  -7.111  1.00  0.00     0.174 HD
ENDBRANCH  17  25
BRANCH  20  28
HETATM   28  O1  UNL     1      16.240  80.009  -3.863  1.00  0.00    -0.340 OA
HETATM   29  C5  UNL     1      15.515  78.951  -4.429  1.00  0.00     0.211 C 
ENDBRANCH  20  28
ENDBRANCH   1  14
BRANCH   6  30
HETATM   30  C9  UNL     1      15.533  79.390   2.192  1.00  0.00     0.348 C 
BRANCH  30  31
HETATM   31  N7  UNL     1      14.435  80.049   2.972  1.00  0.00    -0.054 N 
ATOM     32  H73 UNL     1      13.657  79.428   3.196  1.00  0.00     0.276 HD
ATOM     33  H72 UNL     1      14.689  80.271   3.935  1.00  0.00     0.276 HD
ATOM     34  H71 UNL     1      14.167  80.864   2.418  1.00  0.00     0.276 HD
ENDBRANCH  30  31
BRANCH  30  35
HETATM   35  N8  UNL     1      14.996  78.058   1.942  1.00  0.00    -0.108 NA
BRANCH  35  36
HETATM   36  N9  UNL     1      14.051  77.713   2.913  1.00  0.00    -0.346 N 
ATOM     37  H92 UNL     1      13.286  78.323   3.201  1.00  0.00     0.172 HD
ATOM     38  H91 UNL     1      14.236  76.781   3.283  1.00  0.00     0.172 HD
ENDBRANCH  35  36
ENDBRANCH  30  35
ENDBRANCH   6  30
BRANCH  11  39
HETATM   39  N11 UNL     1      19.572  82.847   0.463  1.00  0.00     0.109 N 
HETATM   40  N12 UNL     1      20.032  83.173   1.655  1.00  0.00    -0.191 N 
HETATM   41  N13 UNL     1      21.224  83.729   1.542  1.00  0.00    -0.212 N 
ATOM     42  H12 UNL     1      19.540  83.019   2.535  1.00  0.00     0.211 HD
HETATM   43  N14 UNL     1      21.551  83.771   0.283  1.00  0.00    -0.112 N 
ATOM     44  H13 UNL     1      21.795  84.069   2.316  1.00  0.00     0.210 HD
HETATM   45  C13 UNL     1      20.530  83.224  -0.405  1.00  0.00     0.755 A 
ATOM     46  H14 UNL     1      22.414  84.147  -0.108  1.00  0.00     0.207 HD
BRANCH  45  47
HETATM   47  N15 UNL     1      20.488  83.077  -1.808  1.00  0.00    -0.095 N 
ATOM     48  H15 UNL     1      19.584  83.094  -2.280  1.00  0.00     0.213 HD
BRANCH  47  49
HETATM   49  O2  UNL     1      21.618  82.912  -2.554  1.00  0.00    -0.276 OA
ATOM     50  H2  UNL     1      21.585  82.705  -3.481  1.00  0.00     0.245 HD
ENDBRANCH  47  49
ENDBRANCH  45  47
ENDBRANCH  11  39
TORSDOF 11
ENDMDL
