MODEL 1
REMARK VINA RESULT: -6.390216407      0.000      0.000
REMARK  3 active torsions:
REMARK  status: ('A' for Active; 'I' for Inactive)
REMARK    1  A    between atoms: C3_3  and  C4_4 
REMARK    2  A    between atoms: C4_4  and  C5_5 
REMARK    3  A    between atoms: N1_7  and  O1_9 
ROOT
HETATM    1  C1  UNL     1      89.673   7.064  34.379  1.00  0.00     0.068 C 
HETATM    2  C2  UNL     1      90.044   8.081  35.351  1.00  0.00     0.014 C 
HETATM    3  C3  UNL     1      90.165   9.392  35.127  1.00  0.00     0.023 C 
HETATM    4  C6  UNL     1      90.534  10.180  36.321  1.00  0.00     0.087 C 
HETATM    5  C7  UNL     1      89.276  10.208  37.205  1.00  0.00     0.051 C 
HETATM    6  C8  UNL     1      91.004  11.587  36.072  1.00  0.00     0.051 C 
HETATM    7  O2  UNL     1      91.540   9.628  37.105  1.00  0.00    -0.347 OA
HETATM    8  C9  UNL     1      91.415   8.316  37.401  1.00  0.00     0.128 C 
HETATM    9  C10 UNL     1      91.285   8.144  38.908  1.00  0.00     0.070 C 
HETATM   10  C11 UNL     1      92.694   7.544  37.023  1.00  0.00     0.070 C 
HETATM   11  N2  UNL     1      90.312   7.677  36.712  1.00  0.00    -0.362 N 
ATOM     12  H2  UNL     1      89.744   6.966  37.173  1.00  0.00     0.162 HD
ENDROOT
BRANCH   3  13
HETATM   13  C4  UNL     1      89.920   9.932  33.798  1.00  0.00     0.056 C 
HETATM   14  N1  UNL     1      88.741  10.392  33.650  1.00  0.00    -0.272 N 
ATOM     15  H1  UNL     1      88.180  10.295  34.496  1.00  0.00     0.194 HD
BRANCH  13  16
HETATM   16  C5  UNL     1      90.797  10.015  32.638  1.00  0.00     0.174 C 
HETATM   17 CL1  UNL     1      92.379   9.201  32.991  1.00  0.00    -0.124 Cl
ENDBRANCH  13  16
BRANCH  14  18
HETATM   18  O1  UNL     1      88.074  10.955  32.679  1.00  0.00    -0.290 OA
ATOM     19  H1  UNL     1      88.143  11.767  32.190  1.00  0.00     0.244 HD
ENDBRANCH  14  18
ENDBRANCH   3  13
TORSDOF 3
ENDMDL
MODEL 2
REMARK VINA RESULT: -6.339464143      2.677      4.806
REMARK  3 active torsions:
REMARK  status: ('A' for Active; 'I' for Inactive)
REMARK    1  A    between atoms: C3_3  and  C4_4 
REMARK    2  A    between atoms: C4_4  and  C5_5 
REMARK    3  A    between atoms: N1_7  and  O1_9 
ROOT
HETATM    1  C1  UNL     1      92.225  10.412  32.801  1.00  0.00     0.068 C 
HETATM    2  C2  UNL     1      91.474  11.428  33.523  1.00  0.00     0.014 C 
HETATM    3  C3  UNL     1      90.566  11.218  34.480  1.00  0.00     0.023 C 
HETATM    4  C6  UNL     1      89.986  12.453  35.046  1.00  0.00     0.087 C 
HETATM    5  C7  UNL     1      91.097  13.078  35.907  1.00  0.00     0.051 C 
HETATM    6  C8  UNL     1      88.742  12.286  35.875  1.00  0.00     0.051 C 
HETATM    7  O2  UNL     1      89.636  13.422  34.113  1.00  0.00    -0.347 OA
HETATM    8  C9  UNL     1      90.557  13.701  33.166  1.00  0.00     0.128 C 
HETATM    9  C10 UNL     1      90.988  15.157  33.287  1.00  0.00     0.070 C 
HETATM   10  C11 UNL     1      89.947  13.584  31.756  1.00  0.00     0.070 C 
HETATM   11  N2  UNL     1      91.705  12.819  33.208  1.00  0.00    -0.362 N 
ATOM     12  H2  UNL     1      92.646  13.168  33.022  1.00  0.00     0.162 HD
ENDROOT
BRANCH   3  13
HETATM   13  C4  UNL     1      90.240   9.863  34.895  1.00  0.00     0.056 C 
HETATM   14  N1  UNL     1      89.409   9.284  34.122  1.00  0.00    -0.272 N 
ATOM     15  H1  UNL     1      89.122   9.882  33.347  1.00  0.00     0.194 HD
BRANCH  13  16
HETATM   16  C5  UNL     1      90.703   9.091  36.041  1.00  0.00     0.174 C 
HETATM   17 CL1  UNL     1      91.818   7.769  35.495  1.00  0.00    -0.124 Cl
ENDBRANCH  13  16
BRANCH  14  18
HETATM   18  O1  UNL     1      88.834   8.112  34.079  1.00  0.00    -0.290 OA
ATOM     19  H1  UNL     1      88.075   7.744  33.642  1.00  0.00     0.244 HD
ENDBRANCH  14  18
ENDBRANCH   3  13
TORSDOF 3
ENDMDL
MODEL 3
REMARK VINA RESULT: -6.308879716      3.322      5.421
REMARK  3 active torsions:
REMARK  status: ('A' for Active; 'I' for Inactive)
REMARK    1  A    between atoms: C3_3  and  C4_4 
REMARK    2  A    between atoms: C4_4  and  C5_5 
REMARK    3  A    between atoms: N1_7  and  O1_9 
ROOT
HETATM    1  C1  UNL     1      88.334  12.995  35.928  1.00  0.00     0.068 C 
HETATM    2  C2  UNL     1      89.426  13.228  34.994  1.00  0.00     0.014 C 
HETATM    3  C3  UNL     1      90.216  12.302  34.445  1.00  0.00     0.023 C 
HETATM    4  C6  UNL     1      91.225  12.843  33.512  1.00  0.00     0.087 C 
HETATM    5  C7  UNL     1      90.446  13.264  32.254  1.00  0.00     0.051 C 
HETATM    6  C8  UNL     1      92.340  11.911  33.123  1.00  0.00     0.051 C 
HETATM    7  O2  UNL     1      91.884  13.984  33.952  1.00  0.00    -0.347 OA
HETATM    8  C9  UNL     1      91.107  14.965  34.459  1.00  0.00     0.128 C 
HETATM    9  C10 UNL     1      91.248  16.218  33.605  1.00  0.00     0.070 C 
HETATM   10  C11 UNL     1      91.595  15.384  35.859  1.00  0.00     0.070 C 
HETATM   11  N2  UNL     1      89.716  14.583  34.588  1.00  0.00    -0.362 N 
ATOM     12  H2  UNL     1      88.966  15.249  34.399  1.00  0.00     0.162 HD
ENDROOT
BRANCH   3  13
HETATM   13  C4  UNL     1      90.028  10.895  34.767  1.00  0.00     0.056 C 
HETATM   14  N1  UNL     1      89.373  10.257  33.879  1.00  0.00    -0.272 N 
ATOM     15  H1  UNL     1      89.099  10.854  33.099  1.00  0.00     0.194 HD
BRANCH  13  16
HETATM   16  C5  UNL     1      90.458  10.130  35.930  1.00  0.00     0.174 C 
HETATM   17 CL1  UNL     1      91.219  11.228  37.155  1.00  0.00    -0.124 Cl
ENDBRANCH  13  16
BRANCH  14  18
HETATM   18  O1  UNL     1      88.968   9.025  33.724  1.00  0.00    -0.290 OA
ATOM     19  H1  UNL     1      88.416   8.565  33.103  1.00  0.00     0.244 HD
ENDBRANCH  14  18
ENDBRANCH   3  13
TORSDOF 3
ENDMDL
MODEL 4
REMARK VINA RESULT: -6.154134744      3.946      4.944
REMARK  3 active torsions:
REMARK  status: ('A' for Active; 'I' for Inactive)
REMARK    1  A    between atoms: C3_3  and  C4_4 
REMARK    2  A    between atoms: C4_4  and  C5_5 
REMARK    3  A    between atoms: N1_7  and  O1_9 
ROOT
HETATM    1  C1  UNL     1      87.872  12.999  36.014  1.00  0.00     0.068 C 
HETATM    2  C2  UNL     1      89.182  13.387  35.513  1.00  0.00     0.014 C 
HETATM    3  C3  UNL     1      89.794  12.908  34.428  1.00  0.00     0.023 C 
HETATM    4  C6  UNL     1      91.113  13.515  34.158  1.00  0.00     0.087 C 
HETATM    5  C7  UNL     1      90.821  14.938  33.654  1.00  0.00     0.051 C 
HETATM    6  C8  UNL     1      91.986  12.800  33.163  1.00  0.00     0.051 C 
HETATM    7  O2  UNL     1      91.933  13.665  35.271  1.00  0.00    -0.347 OA
HETATM    8  C9  UNL     1      91.358  14.203  36.368  1.00  0.00     0.128 C 
HETATM    9  C10 UNL     1      92.050  15.515  36.713  1.00  0.00     0.070 C 
HETATM   10  C11 UNL     1      91.578  13.304  37.600  1.00  0.00     0.070 C 
HETATM   11  N2  UNL     1      89.930  14.395  36.229  1.00  0.00    -0.362 N 
ATOM     12  H2  UNL     1      89.466  15.214  36.624  1.00  0.00     0.162 HD
ENDROOT
BRANCH   3  13
HETATM   13  C4  UNL     1      89.149  11.889  33.614  1.00  0.00     0.056 C 
HETATM   14  N1  UNL     1      89.421  10.700  33.983  1.00  0.00    -0.272 N 
ATOM     15  H1  UNL     1      90.047  10.681  34.788  1.00  0.00     0.194 HD
BRANCH  13  16
HETATM   16  C5  UNL     1      88.268  12.023  32.461  1.00  0.00     0.174 C 
HETATM   17 CL1  UNL     1      89.085  12.983  31.158  1.00  0.00    -0.124 Cl
ENDBRANCH  13  16
BRANCH  14  18
HETATM   18  O1  UNL     1      89.096   9.501  33.582  1.00  0.00    -0.290 OA
ATOM     19  H1  UNL     1      88.708   9.129  32.798  1.00  0.00     0.244 HD
ENDBRANCH  14  18
ENDBRANCH   3  13
TORSDOF 3
ENDMDL
MODEL 5
REMARK VINA RESULT: -6.128470788      3.059      3.716
REMARK  3 active torsions:
REMARK  status: ('A' for Active; 'I' for Inactive)
REMARK    1  A    between atoms: C3_3  and  C4_4 
REMARK    2  A    between atoms: C4_4  and  C5_5 
REMARK    3  A    between atoms: N1_7  and  O1_9 
ROOT
HETATM    1  C1  UNL     1      90.783   9.867  33.539  1.00  0.00     0.068 C 
HETATM    2  C2  UNL     1      90.204  10.882  34.407  1.00  0.00     0.014 C 
HETATM    3  C3  UNL     1      90.230  12.203  34.216  1.00  0.00     0.023 C 
HETATM    4  C6  UNL     1      89.534  12.981  35.261  1.00  0.00     0.087 C 
HETATM    5  C7  UNL     1      88.033  12.739  35.029  1.00  0.00     0.051 C 
HETATM    6  C8  UNL     1      89.806  14.460  35.284  1.00  0.00     0.051 C 
HETATM    7  O2  UNL     1      89.788  12.576  36.566  1.00  0.00    -0.347 OA
HETATM    8  C9  UNL     1      89.710  11.249  36.806  1.00  0.00     0.128 C 
HETATM    9  C10 UNL     1      88.604  10.979  37.817  1.00  0.00     0.070 C 
HETATM   10  C11 UNL     1      90.997  10.737  37.481  1.00  0.00     0.070 C 
HETATM   11  N2  UNL     1      89.516  10.462  35.606  1.00  0.00    -0.362 N 
ATOM     12  H2  UNL     1      88.914   9.638  35.607  1.00  0.00     0.162 HD
ENDROOT
BRANCH   3  13
HETATM   13  C4  UNL     1      90.889  12.760  33.044  1.00  0.00     0.056 C 
HETATM   14  N1  UNL     1      92.140  12.943  33.207  1.00  0.00    -0.272 N 
ATOM     15  H1  UNL     1      92.452  12.663  34.137  1.00  0.00     0.194 HD
BRANCH  13  16
HETATM   16  C5  UNL     1      90.343  13.141  31.748  1.00  0.00     0.174 C 
HETATM   17 CL1  UNL     1      88.626  12.577  31.603  1.00  0.00    -0.124 Cl
ENDBRANCH  13  16
BRANCH  14  18
HETATM   18  O1  UNL     1      93.119  13.401  32.475  1.00  0.00    -0.290 OA
ATOM     19  H1  UNL     1      93.198  13.783  31.609  1.00  0.00     0.244 HD
ENDBRANCH  14  18
ENDBRANCH   3  13
TORSDOF 3
ENDMDL
