MODEL 1
REMARK VINA RESULT: -7.944068511      0.000      0.000
REMARK  8 active torsions:
REMARK  status: ('A' for Active; 'I' for Inactive)
REMARK    1  A    between atoms: C2_2  and  O1_5 
REMARK    2  A    between atoms: O1_5  and  C5_6 
REMARK       I    between atoms: C5_6  and  N1_8 
REMARK    3  A    between atoms: N1_8  and  C6_10 
REMARK    4  A    between atoms: C6_10  and  C8_12 
REMARK    5  A    between atoms: C6_10  and  C13_20 
REMARK       I    between atoms: C8_12  and  N2_14 
REMARK    6  A    between atoms: C13_20  and  N3_28 
REMARK    7  A    between atoms: C14_21  and  C15_22 
REMARK       I    between atoms: N3_28  and  C21_30 
REMARK    8  A    between atoms: C21_30  and  C22_32 
ROOT
HETATM    1  C6  UNL     1       6.387   5.210  19.604  1.00  0.00     0.154 C 
HETATM    2  C7  UNL     1       5.092   5.982  19.392  1.00  0.00     0.056 C 
ENDROOT
BRANCH   1   3
HETATM    3  N1  UNL     1       7.262   6.212  20.291  1.00  0.00    -0.314 N 
HETATM    4  C5  UNL     1       7.620   7.466  19.851  1.00  0.00     0.362 C 
HETATM    5  O2  UNL     1       7.328   8.090  18.811  1.00  0.00    -0.238 OA
ATOM      6  H1  UNL     1       7.639   5.931  21.195  1.00  0.00     0.166 HD
BRANCH   4   7
HETATM    7  O1  UNL     1       8.477   8.227  20.702  1.00  0.00    -0.294 OA
BRANCH   7   8
HETATM    8  C2  UNL     1       7.951   8.963  21.785  1.00  0.00     0.061 C 
HETATM    9  C1  UNL     1       7.780  10.432  21.427  1.00  0.00     0.046 C 
HETATM   10  C3  UNL     1       8.930   8.885  22.925  1.00  0.00     0.046 C 
HETATM   11  C4  UNL     1       6.604   8.451  22.224  1.00  0.00     0.046 C 
ENDBRANCH   7   8
ENDBRANCH   4   7
ENDBRANCH   1   3
BRANCH   1  12
HETATM   12  C8  UNL     1       6.141   4.212  20.665  1.00  0.00     0.254 C 
HETATM   13  O3  UNL     1       7.002   4.129  21.629  1.00  0.00    -0.270 OA
HETATM   14  N2  UNL     1       5.104   3.302  20.831  1.00  0.00    -0.346 N 
HETATM   15  C9  UNL     1       5.140   2.391  21.990  1.00  0.00     0.152 C 
HETATM   16  C12 UNL     1       3.939   3.117  20.029  1.00  0.00     0.152 C 
HETATM   17  C10 UNL     1       3.852   2.649  22.742  1.00  0.00     0.187 C 
HETATM   18  O4  UNL     1       2.777   2.248  21.984  1.00  0.00    -0.388 OA
HETATM   19  C11 UNL     1       3.118   1.985  20.695  1.00  0.00     0.187 C 
ENDBRANCH   1  12
BRANCH   1  20
HETATM   20  C13 UNL     1       7.066   4.763  18.383  1.00  0.00     0.046 C 
HETATM   21  C14 UNL     1       8.322   4.048  18.317  1.00  0.00     0.006 C 
BRANCH  21  22
HETATM   22  C15 UNL     1       8.612   2.728  18.883  1.00  0.00     0.010 C 
HETATM   23  C16 UNL     1       9.964   2.260  18.205  1.00  0.00     0.008 C 
HETATM   24  C17 UNL     1      10.083   0.758  18.294  1.00  0.00     0.001 C 
HETATM   25  C18 UNL     1       9.238   0.215  17.134  1.00  0.00     0.000 C 
HETATM   26  C19 UNL     1       7.999   1.096  17.103  1.00  0.00     0.001 C 
HETATM   27  C20 UNL     1       7.674   1.599  18.510  1.00  0.00     0.008 C 
ENDBRANCH  21  22
BRANCH  20  28
HETATM   28  N3  UNL     1       6.125   4.145  17.422  1.00  0.00    -0.326 N 
HETATM   29  C21 UNL     1       5.757   4.773  16.202  1.00  0.00     0.245 C 
HETATM   30  O5  UNL     1       6.263   5.905  15.941  1.00  0.00    -0.271 OA
ATOM     31  H3  UNL     1       5.726   3.233  17.644  1.00  0.00     0.168 HD
BRANCH  29  32
HETATM   32  C22 UNL     1       4.830   4.187  15.231  1.00  0.00     0.110 C 
HETATM   33  C23 UNL     1       4.638   2.685  15.458  1.00  0.00     0.042 C 
HETATM   34  C24 UNL     1       3.455   4.848  15.227  1.00  0.00     0.042 C 
HETATM   35 CL1  UNL     1       5.476   4.353  13.586  1.00  0.00    -0.110 Cl
ENDBRANCH  29  32
ENDBRANCH  20  28
ENDBRANCH   1  20
TORSDOF 8
ENDMDL
MODEL 2
REMARK VINA RESULT: -7.715052972      3.113      5.292
REMARK  8 active torsions:
REMARK  status: ('A' for Active; 'I' for Inactive)
REMARK    1  A    between atoms: C2_2  and  O1_5 
REMARK    2  A    between atoms: O1_5  and  C5_6 
REMARK       I    between atoms: C5_6  and  N1_8 
REMARK    3  A    between atoms: N1_8  and  C6_10 
REMARK    4  A    between atoms: C6_10  and  C8_12 
REMARK    5  A    between atoms: C6_10  and  C13_20 
REMARK       I    between atoms: C8_12  and  N2_14 
REMARK    6  A    between atoms: C13_20  and  N3_28 
REMARK    7  A    between atoms: C14_21  and  C15_22 
REMARK       I    between atoms: N3_28  and  C21_30 
REMARK    8  A    between atoms: C21_30  and  C22_32 
ROOT
HETATM    1  C6  UNL     1       6.472   6.934  20.331  1.00  0.00     0.154 C 
HETATM    2  C7  UNL     1       7.706   7.257  19.500  1.00  0.00     0.056 C 
ENDROOT
BRANCH   1   3
HETATM    3  N1  UNL     1       7.011   6.906  21.728  1.00  0.00    -0.314 N 
HETATM    4  C5  UNL     1       8.026   7.668  22.260  1.00  0.00     0.362 C 
HETATM    5  O2  UNL     1       8.744   8.553  21.755  1.00  0.00    -0.238 OA
ATOM      6  H1  UNL     1       6.572   6.240  22.364  1.00  0.00     0.166 HD
BRANCH   4   7
HETATM    7  O1  UNL     1       8.352   7.441  23.631  1.00  0.00    -0.294 OA
BRANCH   7   8
HETATM    8  C2  UNL     1       8.219   8.472  24.586  1.00  0.00     0.061 C 
HETATM    9  C1  UNL     1       9.178   9.619  24.301  1.00  0.00     0.046 C 
HETATM   10  C3  UNL     1       8.572   7.910  25.936  1.00  0.00     0.046 C 
HETATM   11  C4  UNL     1       6.828   9.050  24.613  1.00  0.00     0.046 C 
ENDBRANCH   7   8
ENDBRANCH   4   7
ENDBRANCH   1   3
BRANCH   1  12
HETATM   12  C8  UNL     1       5.612   8.134  20.338  1.00  0.00     0.254 C 
HETATM   13  O3  UNL     1       5.072   8.485  21.462  1.00  0.00    -0.270 OA
HETATM   14  N2  UNL     1       5.259   9.002  19.312  1.00  0.00    -0.346 N 
HETATM   15  C9  UNL     1       4.341  10.117  19.611  1.00  0.00     0.152 C 
HETATM   16  C12 UNL     1       5.686   8.999  17.951  1.00  0.00     0.152 C 
HETATM   17  C10 UNL     1       5.092  11.370  19.220  1.00  0.00     0.187 C 
HETATM   18  O4  UNL     1       5.284  11.398  17.858  1.00  0.00    -0.388 OA
HETATM   19  C11 UNL     1       4.998  10.207  17.268  1.00  0.00     0.187 C 
ENDBRANCH   1  12
BRANCH   1  20
HETATM   20  C13 UNL     1       5.843   5.637  20.053  1.00  0.00     0.046 C 
HETATM   21  C14 UNL     1       6.441   4.537  19.328  1.00  0.00     0.006 C 
BRANCH  21  22
HETATM   22  C15 UNL     1       7.650   3.797  19.695  1.00  0.00     0.010 C 
HETATM   23  C16 UNL     1       8.561   3.796  18.400  1.00  0.00     0.008 C 
HETATM   24  C17 UNL     1       9.551   2.661  18.476  1.00  0.00     0.001 C 
HETATM   25  C18 UNL     1       8.781   1.418  18.013  1.00  0.00     0.000 C 
HETATM   26  C19 UNL     1       7.402   1.554  18.639  1.00  0.00     0.001 C 
HETATM   27  C20 UNL     1       7.496   2.314  19.963  1.00  0.00     0.008 C 
ENDBRANCH  21  22
BRANCH  20  28
HETATM   28  N3  UNL     1       5.149   5.093  21.241  1.00  0.00    -0.326 N 
HETATM   29  C21 UNL     1       3.734   5.019  21.332  1.00  0.00     0.245 C 
HETATM   30  O5  UNL     1       3.053   5.438  20.348  1.00  0.00    -0.271 OA
ATOM     31  H3  UNL     1       5.708   4.758  22.025  1.00  0.00     0.168 HD
BRANCH  29  32
HETATM   32  C22 UNL     1       3.018   4.486  22.493  1.00  0.00     0.110 C 
HETATM   33  C23 UNL     1       3.049   5.454  23.678  1.00  0.00     0.042 C 
HETATM   34  C24 UNL     1       1.563   4.133  22.202  1.00  0.00     0.042 C 
HETATM   35 CL1  UNL     1       3.795   2.994  23.063  1.00  0.00    -0.110 Cl
ENDBRANCH  29  32
ENDBRANCH  20  28
ENDBRANCH   1  20
TORSDOF 8
ENDMDL
MODEL 3
REMARK VINA RESULT: -7.682013543      2.527      5.743
REMARK  8 active torsions:
REMARK  status: ('A' for Active; 'I' for Inactive)
REMARK    1  A    between atoms: C2_2  and  O1_5 
REMARK    2  A    between atoms: O1_5  and  C5_6 
REMARK       I    between atoms: C5_6  and  N1_8 
REMARK    3  A    between atoms: N1_8  and  C6_10 
REMARK    4  A    between atoms: C6_10  and  C8_12 
REMARK    5  A    between atoms: C6_10  and  C13_20 
REMARK       I    between atoms: C8_12  and  N2_14 
REMARK    6  A    between atoms: C13_20  and  N3_28 
REMARK    7  A    between atoms: C14_21  and  C15_22 
REMARK       I    between atoms: N3_28  and  C21_30 
REMARK    8  A    between atoms: C21_30  and  C22_32 
ROOT
HETATM    1  C6  UNL     1       5.592   7.035  19.046  1.00  0.00     0.154 C 
HETATM    2  C7  UNL     1       4.359   7.871  19.359  1.00  0.00     0.056 C 
ENDROOT
BRANCH   1   3
HETATM    3  N1  UNL     1       5.911   7.429  17.637  1.00  0.00    -0.314 N 
HETATM    4  C5  UNL     1       5.078   7.404  16.541  1.00  0.00     0.362 C 
HETATM    5  O2  UNL     1       3.883   7.068  16.421  1.00  0.00    -0.238 OA
ATOM      6  H1  UNL     1       6.862   7.755  17.468  1.00  0.00     0.166 HD
BRANCH   4   7
HETATM    7  O1  UNL     1       5.635   7.831  15.298  1.00  0.00    -0.294 OA
BRANCH   7   8
HETATM    8  C2  UNL     1       5.793   6.924  14.228  1.00  0.00     0.061 C 
HETATM    9  C1  UNL     1       6.893   7.373  13.277  1.00  0.00     0.046 C 
HETATM   10  C3  UNL     1       4.507   6.888  13.449  1.00  0.00     0.046 C 
HETATM   11  C4  UNL     1       6.151   5.539  14.700  1.00  0.00     0.046 C 
ENDBRANCH   7   8
ENDBRANCH   4   7
ENDBRANCH   1   3
BRANCH   1  12
HETATM   12  C8  UNL     1       6.722   7.606  19.807  1.00  0.00     0.254 C 
HETATM   13  O3  UNL     1       7.788   7.937  19.150  1.00  0.00    -0.270 OA
HETATM   14  N2  UNL     1       6.860   7.870  21.164  1.00  0.00    -0.346 N 
HETATM   15  C9  UNL     1       8.137   8.422  21.652  1.00  0.00     0.152 C 
HETATM   16  C12 UNL     1       5.903   7.706  22.209  1.00  0.00     0.152 C 
HETATM   17  C10 UNL     1       7.776   9.721  22.338  1.00  0.00     0.187 C 
HETATM   18  O4  UNL     1       7.024   9.466  23.462  1.00  0.00    -0.388 OA
HETATM   19  C11 UNL     1       6.587   8.180  23.515  1.00  0.00     0.187 C 
ENDBRANCH   1  12
BRANCH   1  20
HETATM   20  C13 UNL     1       5.399   5.581  19.087  1.00  0.00     0.046 C 
HETATM   21  C14 UNL     1       6.278   4.586  18.510  1.00  0.00     0.006 C 
BRANCH  21  22
HETATM   22  C15 UNL     1       7.680   4.345  18.860  1.00  0.00     0.010 C 
HETATM   23  C16 UNL     1       8.270   3.469  17.681  1.00  0.00     0.008 C 
HETATM   24  C17 UNL     1       9.498   2.734  18.159  1.00  0.00     0.001 C 
HETATM   25  C18 UNL     1       8.970   1.498  18.899  1.00  0.00     0.000 C 
HETATM   26  C19 UNL     1       7.762   1.993  19.679  1.00  0.00     0.001 C 
HETATM   27  C20 UNL     1       7.946   3.462  20.062  1.00  0.00     0.008 C 
ENDBRANCH  21  22
BRANCH  20  28
HETATM   28  N3  UNL     1       4.984   5.116  20.429  1.00  0.00    -0.326 N 
HETATM   29  C21 UNL     1       3.813   4.340  20.640  1.00  0.00     0.245 C 
HETATM   30  O5  UNL     1       3.109   4.040  19.629  1.00  0.00    -0.271 OA
ATOM     31  H3  UNL     1       5.560   5.363  21.234  1.00  0.00     0.168 HD
BRANCH  29  32
HETATM   32  C22 UNL     1       3.376   3.865  21.955  1.00  0.00     0.110 C 
HETATM   33  C23 UNL     1       3.575   4.926  23.041  1.00  0.00     0.042 C 
HETATM   34  C24 UNL     1       1.918   3.417  21.986  1.00  0.00     0.042 C 
HETATM   35 CL1  UNL     1       4.346   2.465  22.458  1.00  0.00    -0.110 Cl
ENDBRANCH  29  32
ENDBRANCH  20  28
ENDBRANCH   1  20
TORSDOF 8
ENDMDL
MODEL 4
REMARK VINA RESULT: -7.669716687      1.305      4.864
REMARK  8 active torsions:
REMARK  status: ('A' for Active; 'I' for Inactive)
REMARK    1  A    between atoms: C2_2  and  O1_5 
REMARK    2  A    between atoms: O1_5  and  C5_6 
REMARK       I    between atoms: C5_6  and  N1_8 
REMARK    3  A    between atoms: N1_8  and  C6_10 
REMARK    4  A    between atoms: C6_10  and  C8_12 
REMARK    5  A    between atoms: C6_10  and  C13_20 
REMARK       I    between atoms: C8_12  and  N2_14 
REMARK    6  A    between atoms: C13_20  and  N3_28 
REMARK    7  A    between atoms: C14_21  and  C15_22 
REMARK       I    between atoms: N3_28  and  C21_30 
REMARK    8  A    between atoms: C21_30  and  C22_32 
ROOT
HETATM    1  C6  UNL     1       6.693   5.074  19.864  1.00  0.00     0.154 C 
HETATM    2  C7  UNL     1       7.562   4.874  21.097  1.00  0.00     0.056 C 
ENDROOT
BRANCH   1   3
HETATM    3  N1  UNL     1       5.519   4.185  20.138  1.00  0.00    -0.314 N 
HETATM    4  C5  UNL     1       5.479   3.049  20.914  1.00  0.00     0.362 C 
HETATM    5  O2  UNL     1       6.365   2.471  21.577  1.00  0.00    -0.238 OA
ATOM      6  H1  UNL     1       4.641   4.454  19.696  1.00  0.00     0.166 HD
BRANCH   4   7
HETATM    7  O1  UNL     1       4.224   2.376  21.009  1.00  0.00    -0.294 OA
BRANCH   7   8
HETATM    8  C2  UNL     1       3.424   2.501  22.165  1.00  0.00     0.061 C 
HETATM    9  C1  UNL     1       3.551   1.279  23.063  1.00  0.00     0.046 C 
HETATM   10  C3  UNL     1       1.986   2.598  21.733  1.00  0.00     0.046 C 
HETATM   11  C4  UNL     1       3.798   3.703  22.993  1.00  0.00     0.046 C 
ENDBRANCH   7   8
ENDBRANCH   4   7
ENDBRANCH   1   3
BRANCH   1  12
HETATM   12  C8  UNL     1       6.104   6.426  19.948  1.00  0.00     0.254 C 
HETATM   13  O3  UNL     1       4.820   6.518  20.088  1.00  0.00    -0.270 OA
HETATM   14  N2  UNL     1       6.702   7.679  19.906  1.00  0.00    -0.346 N 
HETATM   15  C9  UNL     1       5.845   8.876  19.981  1.00  0.00     0.152 C 
HETATM   16  C12 UNL     1       8.087   8.007  19.820  1.00  0.00     0.152 C 
HETATM   17  C10 UNL     1       6.347   9.654  21.178  1.00  0.00     0.187 C 
HETATM   18  O4  UNL     1       7.618  10.119  20.936  1.00  0.00    -0.388 OA
HETATM   19  C11 UNL     1       8.179   9.553  19.834  1.00  0.00     0.187 C 
ENDBRANCH   1  12
BRANCH   1  20
HETATM   20  C13 UNL     1       7.296   4.663  18.591  1.00  0.00     0.046 C 
HETATM   21  C14 UNL     1       8.506   3.886  18.430  1.00  0.00     0.006 C 
BRANCH  21  22
HETATM   22  C15 UNL     1       8.744   2.522  18.908  1.00  0.00     0.010 C 
HETATM   23  C16 UNL     1      10.080   2.049  18.202  1.00  0.00     0.008 C 
HETATM   24  C17 UNL     1      10.142   0.542  18.192  1.00  0.00     0.001 C 
HETATM   25  C18 UNL     1       9.282   0.108  16.997  1.00  0.00     0.000 C 
HETATM   26  C19 UNL     1       8.078   1.036  17.023  1.00  0.00     0.001 C 
HETATM   27  C20 UNL     1       7.765   1.457  18.459  1.00  0.00     0.008 C 
ENDBRANCH  21  22
BRANCH  20  28
HETATM   28  N3  UNL     1       6.284   4.154  17.638  1.00  0.00    -0.326 N 
HETATM   29  C21 UNL     1       5.784   4.937  16.565  1.00  0.00     0.245 C 
HETATM   30  O5  UNL     1       6.232   6.116  16.429  1.00  0.00    -0.271 OA
ATOM     31  H3  UNL     1       5.932   3.204  17.758  1.00  0.00     0.168 HD
BRANCH  29  32
HETATM   32  C22 UNL     1       4.783   4.462  15.606  1.00  0.00     0.110 C 
HETATM   33  C23 UNL     1       4.538   2.956  15.734  1.00  0.00     0.042 C 
HETATM   34  C24 UNL     1       3.441   5.176  15.724  1.00  0.00     0.042 C 
HETATM   35 CL1  UNL     1       5.351   4.724  13.944  1.00  0.00    -0.110 Cl
ENDBRANCH  29  32
ENDBRANCH  20  28
ENDBRANCH   1  20
TORSDOF 8
ENDMDL
MODEL 5
REMARK VINA RESULT: -7.563858762      2.876      5.510
REMARK  8 active torsions:
REMARK  status: ('A' for Active; 'I' for Inactive)
REMARK    1  A    between atoms: C2_2  and  O1_5 
REMARK    2  A    between atoms: O1_5  and  C5_6 
REMARK       I    between atoms: C5_6  and  N1_8 
REMARK    3  A    between atoms: N1_8  and  C6_10 
REMARK    4  A    between atoms: C6_10  and  C8_12 
REMARK    5  A    between atoms: C6_10  and  C13_20 
REMARK       I    between atoms: C8_12  and  N2_14 
REMARK    6  A    between atoms: C13_20  and  N3_28 
REMARK    7  A    between atoms: C14_21  and  C15_22 
REMARK       I    between atoms: N3_28  and  C21_30 
REMARK    8  A    between atoms: C21_30  and  C22_32 
ROOT
HETATM    1  C6  UNL     1       5.611   7.033  19.040  1.00  0.00     0.154 C 
HETATM    2  C7  UNL     1       4.373   7.867  19.338  1.00  0.00     0.056 C 
ENDROOT
BRANCH   1   3
HETATM    3  N1  UNL     1       5.963   7.449  17.646  1.00  0.00    -0.314 N 
HETATM    4  C5  UNL     1       5.151   7.461  16.534  1.00  0.00     0.362 C 
HETATM    5  O2  UNL     1       3.953   7.148  16.385  1.00  0.00    -0.238 OA
ATOM      6  H1  UNL     1       6.923   7.762  17.501  1.00  0.00     0.166 HD
BRANCH   4   7
HETATM    7  O1  UNL     1       5.739   7.902  15.311  1.00  0.00    -0.294 OA
BRANCH   7   8
HETATM    8  C2  UNL     1       5.553   9.226  14.857  1.00  0.00     0.061 C 
HETATM    9  C1  UNL     1       4.275   9.359  14.042  1.00  0.00     0.046 C 
HETATM   10  C3  UNL     1       6.705   9.579  13.955  1.00  0.00     0.046 C 
HETATM   11  C4  UNL     1       5.464  10.213  15.992  1.00  0.00     0.046 C 
ENDBRANCH   7   8
ENDBRANCH   4   7
ENDBRANCH   1   3
BRANCH   1  12
HETATM   12  C8  UNL     1       6.724   7.589  19.837  1.00  0.00     0.254 C 
HETATM   13  O3  UNL     1       7.807   7.924  19.210  1.00  0.00    -0.270 OA
HETATM   14  N2  UNL     1       6.829   7.834  21.200  1.00  0.00    -0.346 N 
HETATM   15  C9  UNL     1       8.096   8.373  21.727  1.00  0.00     0.152 C 
HETATM   16  C12 UNL     1       5.846   7.660  22.219  1.00  0.00     0.152 C 
HETATM   17  C10 UNL     1       7.724   9.665  22.422  1.00  0.00     0.187 C 
HETATM   18  O4  UNL     1       6.944   9.398  23.523  1.00  0.00    -0.388 OA
HETATM   19  C11 UNL     1       6.500   8.114  23.548  1.00  0.00     0.187 C 
ENDBRANCH   1  12
BRANCH   1  20
HETATM   20  C13 UNL     1       5.414   5.579  19.054  1.00  0.00     0.046 C 
HETATM   21  C14 UNL     1       6.301   4.592  18.475  1.00  0.00     0.006 C 
BRANCH  21  22
HETATM   22  C15 UNL     1       7.695   4.341  18.845  1.00  0.00     0.010 C 
HETATM   23  C16 UNL     1       8.295   3.458  17.676  1.00  0.00     0.008 C 
HETATM   24  C17 UNL     1       9.511   2.716  18.173  1.00  0.00     0.001 C 
HETATM   25  C18 UNL     1       8.963   1.485  18.907  1.00  0.00     0.000 C 
HETATM   26  C19 UNL     1       7.749   1.991  19.669  1.00  0.00     0.001 C 
HETATM   27  C20 UNL     1       7.939   3.459  20.052  1.00  0.00     0.008 C 
ENDBRANCH  21  22
BRANCH  20  28
HETATM   28  N3  UNL     1       4.974   5.093  20.380  1.00  0.00    -0.326 N 
HETATM   29  C21 UNL     1       3.835   4.262  20.549  1.00  0.00     0.245 C 
HETATM   30  O5  UNL     1       3.181   3.931  19.514  1.00  0.00    -0.271 OA
ATOM     31  H3  UNL     1       5.509   5.365  21.204  1.00  0.00     0.168 HD
BRANCH  29  32
HETATM   32  C22 UNL     1       3.375   3.764  21.848  1.00  0.00     0.110 C 
HETATM   33  C23 UNL     1       3.470   4.835  22.937  1.00  0.00     0.042 C 
HETATM   34  C24 UNL     1       1.946   3.233  21.824  1.00  0.00     0.042 C 
HETATM   35 CL1  UNL     1       4.404   2.423  22.393  1.00  0.00    -0.110 Cl
ENDBRANCH  29  32
ENDBRANCH  20  28
ENDBRANCH   1  20
TORSDOF 8
ENDMDL
