MODEL 1
REMARK VINA RESULT: -8.403691029      0.000      0.000
REMARK  10 active torsions:
REMARK  status: ('A' for Active; 'I' for Inactive)
REMARK    1  A    between atoms: C2_2  and  C3_3 
REMARK    2  A    between atoms: N1_7  and  C7_8 
REMARK    3  A    between atoms: C7_8  and  C8_9 
REMARK    4  A    between atoms: C8_9  and  C9_10 
REMARK    5  A    between atoms: C9_10  and  N2_11 
REMARK    6  A    between atoms: C11_13  and  C12_14 
REMARK    7  A    between atoms: C12_14  and  N3_15 
REMARK    8  A    between atoms: C15_18  and  O1_19 
REMARK    9  A    between atoms: C23_31  and  N6_32 
REMARK   10  A    between atoms: N7_35  and  O2_36 
ROOT
HETATM    1  N2  UNL     1      -4.747  10.377  21.789  1.00  0.00    -0.193 N 
HETATM    2  C10 UNL     1      -5.969   9.961  22.134  1.00  0.00     0.119 A 
HETATM    3  C11 UNL     1      -7.066  10.109  21.279  1.00  0.00    -0.008 A 
HETATM    4  C22 UNL     1      -6.792  10.704  20.081  1.00  0.00     0.116 A 
HETATM    5  N5  UNL     1      -5.541  11.122  19.744  1.00  0.00    -0.201 N 
ATOM      6  H5  UNL     1      -5.375  11.562  18.839  1.00  0.00     0.183 HD
HETATM    7  C23 UNL     1      -4.533  10.953  20.602  1.00  0.00     0.677 A 
ENDROOT
BRANCH   3   8
HETATM    8  C12 UNL     1      -8.409   9.651  21.686  1.00  0.00     0.170 C 
BRANCH   8   9
HETATM    9  N3  UNL     1      -8.937   8.563  20.915  1.00  0.00    -0.352 N 
HETATM   10  C13 UNL     1      -8.337   7.338  21.063  1.00  0.00     0.094 A 
HETATM   11  C14 UNL     1      -8.758   6.253  20.329  1.00  0.00     0.054 A 
HETATM   12  C15 UNL     1      -9.786   6.347  19.429  1.00  0.00     0.080 A 
HETATM   13  C16 UNL     1     -10.403   7.578  19.270  1.00  0.00     0.040 A 
HETATM   14  C17 UNL     1     -11.463   7.717  18.373  1.00  0.00     0.106 A 
HETATM   15  C21 UNL     1      -9.942   8.628  20.030  1.00  0.00     0.050 A 
HETATM   16  N4  UNL     1     -12.081   8.893  18.212  1.00  0.00    -0.370 N 
HETATM   17  C18 UNL     1     -13.199   9.046  17.267  1.00  0.00     0.154 C 
HETATM   18  C19 UNL     1     -11.650   9.933  18.943  1.00  0.00     0.092 A 
HETATM   19  C20 UNL     1     -10.594   9.836  19.851  1.00  0.00     0.048 A 
BRANCH  12  20
HETATM   20  O1  UNL     1     -10.235   5.271  18.673  1.00  0.00    -0.360 OA
ATOM     21  H1  UNL     1     -10.879   5.355  17.980  1.00  0.00     0.217 HD
ENDBRANCH  12  20
ENDBRANCH   8   9
ENDBRANCH   3   8
BRANCH   1  22
HETATM   22  C9  UNL     1      -3.652  10.202  22.702  1.00  0.00     0.148 C 
BRANCH  22  23
HETATM   23  C8  UNL     1      -3.873  10.884  24.033  1.00  0.00     0.043 C 
BRANCH  23  24
HETATM   24  C7  UNL     1      -2.515  10.872  24.748  1.00  0.00     0.152 C 
BRANCH  24  25
HETATM   25  N1  UNL     1      -2.539  10.013  25.907  1.00  0.00    -0.277 N 
HETATM   26  C6  UNL     1      -3.253  10.374  26.985  1.00  0.00     0.112 A 
HETATM   27  C5  UNL     1      -3.291   9.558  28.122  1.00  0.00     0.021 A 
HETATM   28  C4  UNL     1      -2.583   8.375  28.117  1.00  0.00     0.030 A 
HETATM   29  C3  UNL     1      -1.871   8.054  26.993  1.00  0.00     0.059 A 
HETATM   30  N7  UNL     1      -1.883   8.894  25.933  1.00  0.00    -0.166 N 
BRANCH  29  31
HETATM   31  C2  UNL     1      -1.087   6.796  26.922  1.00  0.00     0.057 C 
HETATM   32  C1  UNL     1      -1.021   6.225  28.318  1.00  0.00     0.011 C 
ENDBRANCH  29  31
BRANCH  30  33
HETATM   33  O2  UNL     1      -1.151   8.522  24.833  1.00  0.00    -0.268 OA
ATOM     34  H2  UNL     1      -0.378   9.037  24.632  1.00  0.00     0.247 HD
ENDBRANCH  30  33
ENDBRANCH  24  25
ENDBRANCH  23  24
ENDBRANCH  22  23
ENDBRANCH   1  22
BRANCH   7  35
HETATM   35  N6  UNL     1      -3.335  11.364  20.254  1.00  0.00    -0.234 N 
ATOM     36  H62 UNL     1      -2.614  10.667  20.069  1.00  0.00     0.174 HD
ATOM     37  H61 UNL     1      -3.124  12.358  20.169  1.00  0.00     0.174 HD
ENDBRANCH   7  35
TORSDOF 10
ENDMDL
MODEL 2
REMARK VINA RESULT: -8.128810166      2.300      2.957
REMARK  10 active torsions:
REMARK  status: ('A' for Active; 'I' for Inactive)
REMARK    1  A    between atoms: C2_2  and  C3_3 
REMARK    2  A    between atoms: N1_7  and  C7_8 
REMARK    3  A    between atoms: C7_8  and  C8_9 
REMARK    4  A    between atoms: C8_9  and  C9_10 
REMARK    5  A    between atoms: C9_10  and  N2_11 
REMARK    6  A    between atoms: C11_13  and  C12_14 
REMARK    7  A    between atoms: C12_14  and  N3_15 
REMARK    8  A    between atoms: C15_18  and  O1_19 
REMARK    9  A    between atoms: C23_31  and  N6_32 
REMARK   10  A    between atoms: N7_35  and  O2_36 
ROOT
HETATM    1  N2  UNL     1      -3.438  11.169  21.371  1.00  0.00    -0.193 N 
HETATM    2  C10 UNL     1      -4.640  10.811  20.906  1.00  0.00     0.119 A 
HETATM    3  C11 UNL     1      -5.295  11.547  19.914  1.00  0.00    -0.008 A 
HETATM    4  C22 UNL     1      -4.619  12.645  19.464  1.00  0.00     0.116 A 
HETATM    5  N5  UNL     1      -3.396  12.996  19.947  1.00  0.00    -0.201 N 
ATOM      6  H5  UNL     1      -2.922  13.824  19.586  1.00  0.00     0.183 HD
HETATM    7  C23 UNL     1      -2.819  12.254  20.895  1.00  0.00     0.677 A 
ENDROOT
BRANCH   3   8
HETATM    8  C12 UNL     1      -6.625  11.137  19.424  1.00  0.00     0.170 C 
BRANCH   8   9
HETATM    9  N3  UNL     1      -7.456  10.491  20.398  1.00  0.00    -0.352 N 
HETATM   10  C13 UNL     1      -7.873  11.243  21.467  1.00  0.00     0.094 A 
HETATM   11  C14 UNL     1      -8.639  10.687  22.465  1.00  0.00     0.054 A 
HETATM   12  C15 UNL     1      -9.017   9.370  22.434  1.00  0.00     0.080 A 
HETATM   13  C16 UNL     1      -8.605   8.599  21.360  1.00  0.00     0.040 A 
HETATM   14  C17 UNL     1      -8.976   7.255  21.282  1.00  0.00     0.106 A 
HETATM   15  C21 UNL     1      -7.841   9.207  20.390  1.00  0.00     0.050 A 
HETATM   16  N4  UNL     1      -8.600   6.495  20.247  1.00  0.00    -0.370 N 
HETATM   17  C18 UNL     1      -8.988   5.078  20.159  1.00  0.00     0.154 C 
HETATM   18  C19 UNL     1      -7.855   7.066  19.288  1.00  0.00     0.092 A 
HETATM   19  C20 UNL     1      -7.462   8.404  19.328  1.00  0.00     0.048 A 
BRANCH  12  20
HETATM   20  O1  UNL     1      -9.790   8.778  23.426  1.00  0.00    -0.360 OA
ATOM     21  H1  UNL     1     -10.419   9.259  23.951  1.00  0.00     0.217 HD
ENDBRANCH  12  20
ENDBRANCH   8   9
ENDBRANCH   3   8
BRANCH   1  22
HETATM   22  C9  UNL     1      -2.806  10.379  22.391  1.00  0.00     0.148 C 
BRANCH  22  23
HETATM   23  C8  UNL     1      -3.508  10.461  23.726  1.00  0.00     0.043 C 
BRANCH  23  24
HETATM   24  C7  UNL     1      -2.430  10.839  24.751  1.00  0.00     0.152 C 
BRANCH  24  25
HETATM   25  N1  UNL     1      -2.493   9.992  25.917  1.00  0.00    -0.277 N 
HETATM   26  C6  UNL     1      -3.229  10.371  26.974  1.00  0.00     0.112 A 
HETATM   27  C5  UNL     1      -3.305   9.567  28.117  1.00  0.00     0.021 A 
HETATM   28  C4  UNL     1      -2.612   8.375  28.140  1.00  0.00     0.030 A 
HETATM   29  C3  UNL     1      -1.877   8.034  27.037  1.00  0.00     0.059 A 
HETATM   30  N7  UNL     1      -1.852   8.864  25.969  1.00  0.00    -0.166 N 
BRANCH  29  31
HETATM   31  C2  UNL     1      -1.108   6.766  26.996  1.00  0.00     0.057 C 
HETATM   32  C1  UNL     1      -1.007   6.253  28.412  1.00  0.00     0.011 C 
ENDBRANCH  29  31
BRANCH  30  33
HETATM   33  O2  UNL     1      -1.099   8.473  24.891  1.00  0.00    -0.268 OA
ATOM     34  H2  UNL     1      -0.522   9.123  24.506  1.00  0.00     0.247 HD
ENDBRANCH  30  33
ENDBRANCH  24  25
ENDBRANCH  23  24
ENDBRANCH  22  23
ENDBRANCH   1  22
BRANCH   7  35
HETATM   35  N6  UNL     1      -1.640  12.613  21.345  1.00  0.00    -0.234 N 
ATOM     36  H62 UNL     1      -1.567  12.964  22.300  1.00  0.00     0.174 HD
ATOM     37  H61 UNL     1      -0.809  12.545  20.757  1.00  0.00     0.174 HD
ENDBRANCH   7  35
TORSDOF 10
ENDMDL
MODEL 3
REMARK VINA RESULT: -8.117144436      2.415      3.590
REMARK  10 active torsions:
REMARK  status: ('A' for Active; 'I' for Inactive)
REMARK    1  A    between atoms: C2_2  and  C3_3 
REMARK    2  A    between atoms: N1_7  and  C7_8 
REMARK    3  A    between atoms: C7_8  and  C8_9 
REMARK    4  A    between atoms: C8_9  and  C9_10 
REMARK    5  A    between atoms: C9_10  and  N2_11 
REMARK    6  A    between atoms: C11_13  and  C12_14 
REMARK    7  A    between atoms: C12_14  and  N3_15 
REMARK    8  A    between atoms: C15_18  and  O1_19 
REMARK    9  A    between atoms: C23_31  and  N6_32 
REMARK   10  A    between atoms: N7_35  and  O2_36 
ROOT
HETATM    1  N2  UNL     1      -5.738  12.543  23.948  1.00  0.00    -0.193 N 
HETATM    2  C10 UNL     1      -5.260  11.762  22.975  1.00  0.00     0.119 A 
HETATM    3  C11 UNL     1      -6.102  10.984  22.174  1.00  0.00    -0.008 A 
HETATM    4  C22 UNL     1      -7.433  11.086  22.462  1.00  0.00     0.116 A 
HETATM    5  N5  UNL     1      -7.905  11.886  23.456  1.00  0.00    -0.201 N 
ATOM      6  H5  UNL     1      -8.907  11.935  23.642  1.00  0.00     0.183 HD
HETATM    7  C23 UNL     1      -7.052  12.606  24.188  1.00  0.00     0.677 A 
ENDROOT
BRANCH   3   8
HETATM    8  C12 UNL     1      -5.549  10.122  21.111  1.00  0.00     0.170 C 
BRANCH   8   9
HETATM    9  N3  UNL     1      -6.396   9.954  19.966  1.00  0.00    -0.352 N 
HETATM   10  C13 UNL     1      -6.454  10.991  19.070  1.00  0.00     0.094 A 
HETATM   11  C14 UNL     1      -7.273  10.924  17.966  1.00  0.00     0.054 A 
HETATM   12  C15 UNL     1      -8.058   9.830  17.716  1.00  0.00     0.080 A 
HETATM   13  C16 UNL     1      -8.009   8.774  18.612  1.00  0.00     0.040 A 
HETATM   14  C17 UNL     1      -8.783   7.634  18.391  1.00  0.00     0.106 A 
HETATM   15  C21 UNL     1      -7.172   8.894  19.698  1.00  0.00     0.050 A 
HETATM   16  N4  UNL     1      -8.742   6.598  19.237  1.00  0.00    -0.370 N 
HETATM   17  C18 UNL     1      -9.557   5.393  19.009  1.00  0.00     0.154 C 
HETATM   18  C19 UNL     1      -7.933   6.691  20.303  1.00  0.00     0.092 A 
HETATM   19  C20 UNL     1      -7.143   7.812  20.561  1.00  0.00     0.048 A 
BRANCH  12  20
HETATM   20  O1  UNL     1      -8.896   9.732  16.612  1.00  0.00    -0.360 OA
ATOM     21  H1  UNL     1      -9.507   9.016  16.485  1.00  0.00     0.217 HD
ENDBRANCH  12  20
ENDBRANCH   8   9
ENDBRANCH   3   8
BRANCH   1  22
HETATM   22  C9  UNL     1      -4.833  13.324  24.744  1.00  0.00     0.148 C 
BRANCH  22  23
HETATM   23  C8  UNL     1      -3.496  12.651  24.956  1.00  0.00     0.043 C 
BRANCH  23  24
HETATM   24  C7  UNL     1      -3.639  11.815  26.234  1.00  0.00     0.152 C 
BRANCH  24  25
HETATM   25  N1  UNL     1      -2.853  10.607  26.162  1.00  0.00    -0.277 N 
HETATM   26  C6  UNL     1      -2.223  10.293  25.019  1.00  0.00     0.112 A 
HETATM   27  C5  UNL     1      -1.455   9.126  24.924  1.00  0.00     0.021 A 
HETATM   28  C4  UNL     1      -1.356   8.303  26.026  1.00  0.00     0.030 A 
HETATM   29  C3  UNL     1      -2.018   8.668  27.167  1.00  0.00     0.059 A 
HETATM   30  N7  UNL     1      -2.740   9.812  27.182  1.00  0.00    -0.166 N 
BRANCH  29  31
HETATM   31  C2  UNL     1      -1.952   7.828  28.388  1.00  0.00     0.057 C 
HETATM   32  C1  UNL     1      -1.237   6.551  28.020  1.00  0.00     0.011 C 
ENDBRANCH  29  31
BRANCH  30  33
HETATM   33  O2  UNL     1      -3.383  10.129  28.352  1.00  0.00    -0.268 OA
ATOM     34  H2  UNL     1      -2.974   9.847  29.162  1.00  0.00     0.247 HD
ENDBRANCH  30  33
ENDBRANCH  24  25
ENDBRANCH  23  24
ENDBRANCH  22  23
ENDBRANCH   1  22
BRANCH   7  35
HETATM   35  N6  UNL     1      -7.531  13.370  25.142  1.00  0.00    -0.234 N 
ATOM     36  H62 UNL     1      -7.797  12.938  26.027  1.00  0.00     0.174 HD
ATOM     37  H61 UNL     1      -7.638  14.376  25.007  1.00  0.00     0.174 HD
ENDBRANCH   7  35
TORSDOF 10
ENDMDL
MODEL 4
REMARK VINA RESULT: -7.996522679      1.250      1.637
REMARK  10 active torsions:
REMARK  status: ('A' for Active; 'I' for Inactive)
REMARK    1  A    between atoms: C2_2  and  C3_3 
REMARK    2  A    between atoms: N1_7  and  C7_8 
REMARK    3  A    between atoms: C7_8  and  C8_9 
REMARK    4  A    between atoms: C8_9  and  C9_10 
REMARK    5  A    between atoms: C9_10  and  N2_11 
REMARK    6  A    between atoms: C11_13  and  C12_14 
REMARK    7  A    between atoms: C12_14  and  N3_15 
REMARK    8  A    between atoms: C15_18  and  O1_19 
REMARK    9  A    between atoms: C23_31  and  N6_32 
REMARK   10  A    between atoms: N7_35  and  O2_36 
ROOT
HETATM    1  N2  UNL     1      -5.036  11.188  22.400  1.00  0.00    -0.193 N 
HETATM    2  C10 UNL     1      -5.295  10.688  21.188  1.00  0.00     0.119 A 
HETATM    3  C11 UNL     1      -6.596  10.375  20.783  1.00  0.00    -0.008 A 
HETATM    4  C22 UNL     1      -7.567  10.617  21.712  1.00  0.00     0.116 A 
HETATM    5  N5  UNL     1      -7.287  11.127  22.942  1.00  0.00    -0.201 N 
ATOM      6  H5  UNL     1      -8.040  11.294  23.610  1.00  0.00     0.183 HD
HETATM    7  C23 UNL     1      -6.024  11.406  23.273  1.00  0.00     0.677 A 
ENDROOT
BRANCH   3   8
HETATM    8  C12 UNL     1      -6.856   9.814  19.442  1.00  0.00     0.170 C 
BRANCH   8   9
HETATM    9  N3  UNL     1      -7.666   8.631  19.428  1.00  0.00    -0.352 N 
HETATM   10  C13 UNL     1      -7.088   7.468  19.869  1.00  0.00     0.094 A 
HETATM   11  C14 UNL     1      -7.785   6.282  19.849  1.00  0.00     0.054 A 
HETATM   12  C15 UNL     1      -9.075   6.212  19.394  1.00  0.00     0.080 A 
HETATM   13  C16 UNL     1      -9.673   7.379  18.946  1.00  0.00     0.040 A 
HETATM   14  C17 UNL     1     -10.989   7.356  18.484  1.00  0.00     0.106 A 
HETATM   15  C21 UNL     1      -8.930   8.536  18.989  1.00  0.00     0.050 A 
HETATM   16  N4  UNL     1     -11.590   8.474  18.058  1.00  0.00    -0.370 N 
HETATM   17  C18 UNL     1     -12.979   8.456  17.570  1.00  0.00     0.154 C 
HETATM   18  C19 UNL     1     -10.886   9.615  18.091  1.00  0.00     0.092 A 
HETATM   19  C20 UNL     1      -9.568   9.681  18.546  1.00  0.00     0.048 A 
BRANCH  12  20
HETATM   20  O1  UNL     1      -9.806   5.030  19.361  1.00  0.00    -0.360 OA
ATOM     21  H1  UNL     1      -9.565   4.256  19.857  1.00  0.00     0.217 HD
ENDBRANCH  12  20
ENDBRANCH   8   9
ENDBRANCH   3   8
BRANCH   1  22
HETATM   22  C9  UNL     1      -3.682  11.493  22.770  1.00  0.00     0.148 C 
BRANCH  22  23
HETATM   23  C8  UNL     1      -2.865  10.266  23.104  1.00  0.00     0.043 C 
BRANCH  23  24
HETATM   24  C7  UNL     1      -1.856  10.706  24.173  1.00  0.00     0.152 C 
BRANCH  24  25
HETATM   25  N1  UNL     1      -2.097  10.041  25.430  1.00  0.00    -0.277 N 
HETATM   26  C6  UNL     1      -2.830  10.653  26.374  1.00  0.00     0.112 A 
HETATM   27  C5  UNL     1      -3.078  10.029  27.602  1.00  0.00     0.021 A 
HETATM   28  C4  UNL     1      -2.557   8.772  27.827  1.00  0.00     0.030 A 
HETATM   29  C3  UNL     1      -1.817   8.192  26.833  1.00  0.00     0.059 A 
HETATM   30  N7  UNL     1      -1.621   8.859  25.672  1.00  0.00    -0.166 N 
BRANCH  29  31
HETATM   31  C2  UNL     1      -1.229   6.842  27.010  1.00  0.00     0.057 C 
HETATM   32  C1  UNL     1      -1.195   6.554  28.492  1.00  0.00     0.011 C 
ENDBRANCH  29  31
BRANCH  30  33
HETATM   33  O2  UNL     1      -0.871   8.230  24.710  1.00  0.00    -0.268 OA
ATOM     34  H2  UNL     1      -0.372   8.782  24.120  1.00  0.00     0.247 HD
ENDBRANCH  30  33
ENDBRANCH  24  25
ENDBRANCH  23  24
ENDBRANCH  22  23
ENDBRANCH   1  22
BRANCH   7  35
HETATM   35  N6  UNL     1      -5.780  11.898  24.465  1.00  0.00    -0.234 N 
ATOM     36  H62 UNL     1      -5.579  12.894  24.551  1.00  0.00     0.174 HD
ATOM     37  H61 UNL     1      -5.790  11.301  25.292  1.00  0.00     0.174 HD
ENDBRANCH   7  35
TORSDOF 10
ENDMDL
MODEL 5
REMARK VINA RESULT: -7.991300303      2.402      2.948
REMARK  10 active torsions:
REMARK  status: ('A' for Active; 'I' for Inactive)
REMARK    1  A    between atoms: C2_2  and  C3_3 
REMARK    2  A    between atoms: N1_7  and  C7_8 
REMARK    3  A    between atoms: C7_8  and  C8_9 
REMARK    4  A    between atoms: C8_9  and  C9_10 
REMARK    5  A    between atoms: C9_10  and  N2_11 
REMARK    6  A    between atoms: C11_13  and  C12_14 
REMARK    7  A    between atoms: C12_14  and  N3_15 
REMARK    8  A    between atoms: C15_18  and  O1_19 
REMARK    9  A    between atoms: C23_31  and  N6_32 
REMARK   10  A    between atoms: N7_35  and  O2_36 
ROOT
HETATM    1  N2  UNL     1      -6.131  12.303  23.506  1.00  0.00    -0.193 N 
HETATM    2  C10 UNL     1      -5.660  11.719  22.400  1.00  0.00     0.119 A 
HETATM    3  C11 UNL     1      -6.480  10.950  21.566  1.00  0.00    -0.008 A 
HETATM    4  C22 UNL     1      -7.780  10.845  21.968  1.00  0.00     0.116 A 
HETATM    5  N5  UNL     1      -8.245  11.446  23.097  1.00  0.00    -0.201 N 
ATOM      6  H5  UNL     1      -9.224  11.344  23.365  1.00  0.00     0.183 HD
HETATM    7  C23 UNL     1      -7.415  12.168  23.854  1.00  0.00     0.677 A 
ENDROOT
BRANCH   3   8
HETATM    8  C12 UNL     1      -5.933  10.308  20.355  1.00  0.00     0.170 C 
BRANCH   8   9
HETATM    9  N3  UNL     1      -6.745   9.259  19.808  1.00  0.00    -0.352 N 
HETATM   10  C13 UNL     1      -6.684   8.033  20.420  1.00  0.00     0.094 A 
HETATM   11  C14 UNL     1      -7.402   6.965  19.932  1.00  0.00     0.054 A 
HETATM   12  C15 UNL     1      -8.201   7.079  18.826  1.00  0.00     0.080 A 
HETATM   13  C16 UNL     1      -8.273   8.312  18.198  1.00  0.00     0.040 A 
HETATM   14  C17 UNL     1      -9.085   8.476  17.074  1.00  0.00     0.106 A 
HETATM   15  C21 UNL     1      -7.536   9.345  18.728  1.00  0.00     0.050 A 
HETATM   16  N4  UNL     1      -9.179   9.661  16.459  1.00  0.00    -0.370 N 
HETATM   17  C18 UNL     1     -10.032   9.841  15.273  1.00  0.00     0.154 C 
HETATM   18  C19 UNL     1      -8.469  10.685  16.958  1.00  0.00     0.092 A 
HETATM   19  C20 UNL     1      -7.647  10.563  18.080  1.00  0.00     0.048 A 
BRANCH  12  20
HETATM   20  O1  UNL     1      -8.938   6.020  18.309  1.00  0.00    -0.360 OA
ATOM     21  H1  UNL     1      -8.594   5.138  18.229  1.00  0.00     0.217 HD
ENDBRANCH  12  20
ENDBRANCH   8   9
ENDBRANCH   3   8
BRANCH   1  22
HETATM   22  C9  UNL     1      -5.250  13.083  24.330  1.00  0.00     0.148 C 
BRANCH  22  23
HETATM   23  C8  UNL     1      -3.928  12.401  24.597  1.00  0.00     0.043 C 
BRANCH  23  24
HETATM   24  C7  UNL     1      -4.139  11.540  25.849  1.00  0.00     0.152 C 
BRANCH  24  25
HETATM   25  N1  UNL     1      -3.186  10.459  25.910  1.00  0.00    -0.277 N 
HETATM   26  C6  UNL     1      -2.396  10.211  24.853  1.00  0.00     0.112 A 
HETATM   27  C5  UNL     1      -1.464   9.166  24.888  1.00  0.00     0.021 A 
HETATM   28  C4  UNL     1      -1.370   8.396  26.027  1.00  0.00     0.030 A 
HETATM   29  C3  UNL     1      -2.198   8.690  27.076  1.00  0.00     0.059 A 
HETATM   30  N7  UNL     1      -3.073   9.715  26.968  1.00  0.00    -0.166 N 
BRANCH  29  31
HETATM   31  C2  UNL     1      -2.147   7.901  28.332  1.00  0.00     0.057 C 
HETATM   32  C1  UNL     1      -1.327   6.663  28.054  1.00  0.00     0.011 C 
ENDBRANCH  29  31
BRANCH  30  33
HETATM   33  O2  UNL     1      -3.879   9.966  28.051  1.00  0.00    -0.268 OA
ATOM     34  H2  UNL     1      -4.770   9.638  28.012  1.00  0.00     0.247 HD
ENDBRANCH  30  33
ENDBRANCH  24  25
ENDBRANCH  23  24
ENDBRANCH  22  23
ENDBRANCH   1  22
BRANCH   7  35
HETATM   35  N6  UNL     1      -7.887  12.737  24.938  1.00  0.00    -0.234 N 
ATOM     36  H62 UNL     1      -7.688  13.726  25.097  1.00  0.00     0.174 HD
ATOM     37  H61 UNL     1      -8.442  12.209  25.611  1.00  0.00     0.174 HD
ENDBRANCH   7  35
TORSDOF 10
ENDMDL
