MODEL 1
REMARK VINA RESULT: -7.050804851      0.000      0.000
REMARK  12 active torsions:
REMARK  status: ('A' for Active; 'I' for Inactive)
REMARK    1  A    between atoms: C2_2  and  C3_3 
REMARK    2  A    between atoms: C3_3  and  C4_4 
REMARK    3  A    between atoms: C4_4  and  C5_5 
REMARK    4  A    between atoms: C5_5  and  C6_6 
REMARK    5  A    between atoms: C6_6  and  C7_7 
REMARK    6  A    between atoms: C11_18  and  C12_19 
REMARK    7  A    between atoms: C12_19  and  C13_20 
REMARK    8  A    between atoms: C17_27  and  C18_28 
REMARK    9  A    between atoms: C18_28  and  C19_29 
REMARK   10  A    between atoms: C19_29  and  C21_31 
REMARK   11  A    between atoms: C24_35  and  O4_36 
REMARK   12  A    between atoms: C27_43  and  C28_44 
ROOT
HETATM    1  C7  UNL     1       8.821  26.903   5.629  1.00  0.00     0.207 C 
HETATM    2  N1  UNL     1       7.624  26.607   6.438  1.00  0.00    -0.112 NA
HETATM    3  N2  UNL     1       6.949  27.772   6.804  1.00  0.00    -0.271 N 
ATOM      4  H2  UNL     1       7.457  28.425   7.401  1.00  0.00     0.185 HD
HETATM    5  C8  UNL     1       5.652  28.138   6.441  1.00  0.00     0.250 C 
HETATM    6  O1  UNL     1       5.456  29.355   6.096  1.00  0.00    -0.270 OA
HETATM    7  C9  UNL     1       4.457  27.233   6.416  1.00  0.00     0.226 C 
HETATM    8  N3  UNL     1       3.378  27.855   5.677  1.00  0.00    -0.350 N 
ATOM      9  H3  UNL     1       2.672  28.321   6.247  1.00  0.00     0.163 HD
HETATM   10  C10 UNL     1       3.164  27.909   4.310  1.00  0.00     0.240 C 
HETATM   11  O2  UNL     1       3.078  29.104   3.804  1.00  0.00    -0.271 OA
HETATM   12  C11 UNL     1       3.017  26.861   3.303  1.00  0.00     0.177 C 
HETATM   13  N4  UNL     1       3.942  26.937   2.209  1.00  0.00    -0.342 N 
ATOM     14  H4  UNL     1       3.823  27.799   1.676  1.00  0.00     0.163 HD
HETATM   15  C16 UNL     1       4.958  26.147   1.681  1.00  0.00     0.268 C 
HETATM   16  O3  UNL     1       4.859  25.965   0.397  1.00  0.00    -0.266 OA
HETATM   17  C17 UNL     1       6.118  25.501   2.344  1.00  0.00     0.101 C 
HETATM   18  N5  UNL     1       7.204  26.472   2.534  1.00  0.00    -0.326 N 
HETATM   19  C23 UNL     1       6.726  27.869   2.457  1.00  0.00     0.159 C 
HETATM   20  C24 UNL     1       8.570  26.323   2.719  1.00  0.00     0.176 C 
HETATM   21  C25 UNL     1       9.408  25.506   3.622  1.00  0.00     0.158 C 
HETATM   22  C26 UNL     1       9.567  24.094   3.182  1.00  0.00     0.273 C 
HETATM   23  O5  UNL     1       9.250  23.827   2.002  1.00  0.00    -0.266 OA
HETATM   24  N6  UNL     1      10.051  23.085   4.031  1.00  0.00    -0.342 N 
ATOM     25  H6  UNL     1      10.412  22.212   3.645  1.00  0.00     0.163 HD
HETATM   26  C27 UNL     1      10.031  23.298   5.449  1.00  0.00     0.180 C 
HETATM   27  C31 UNL     1       9.390  24.545   5.871  1.00  0.00     0.249 C 
HETATM   28  O6  UNL     1       8.987  24.580   7.085  1.00  0.00    -0.271 OA
HETATM   29  N7  UNL     1       9.205  25.676   5.026  1.00  0.00    -0.287 N 
ENDROOT
BRANCH   1  30
HETATM   30  C6  UNL     1       9.916  27.443   6.526  1.00  0.00     0.045 C 
BRANCH  30  31
HETATM   31  C5  UNL     1       9.382  28.088   7.783  1.00  0.00     0.003 C 
BRANCH  31  32
HETATM   32  C4  UNL     1      10.123  27.446   8.940  1.00  0.00     0.000 C 
BRANCH  32  33
HETATM   33  C3  UNL     1      11.310  26.722   8.314  1.00  0.00    -0.000 C 
BRANCH  33  34
HETATM   34  C2  UNL     1      11.945  25.812   9.347  1.00  0.00    -0.005 C 
HETATM   35  C1  UNL     1      12.998  24.986   8.625  1.00  0.00     0.005 C 
ENDBRANCH  33  34
ENDBRANCH  32  33
ENDBRANCH  31  32
ENDBRANCH  30  31
ENDBRANCH   1  30
BRANCH  20  36
HETATM   36  O4  UNL     1       9.351  27.058   1.935  1.00  0.00    -0.344 OA
ATOM     37  H4  UNL     1      10.269  26.816   1.913  1.00  0.00     0.219 HD
ENDBRANCH  20  36
BRANCH  26  38
HETATM   38  C28 UNL     1      11.434  23.137   5.979  1.00  0.00     0.009 C 
HETATM   39  C29 UNL     1      11.895  21.694   5.957  1.00  0.00     0.012 C 
HETATM   40  C30 UNL     1      12.415  23.926   5.138  1.00  0.00     0.012 C 
ENDBRANCH  26  38
BRANCH  17  41
HETATM   41  C18 UNL     1       5.866  24.529   3.389  1.00  0.00     0.013 C 
BRANCH  41  42
HETATM   42  C19 UNL     1       4.767  23.624   3.581  1.00  0.00     0.006 C 
HETATM   43  C20 UNL     1       3.730  24.136   4.622  1.00  0.00     0.014 C 
BRANCH  42  44
HETATM   44  C21 UNL     1       4.833  22.170   3.835  1.00  0.00     0.003 C 
HETATM   45  C22 UNL     1       3.570  21.409   4.031  1.00  0.00     0.006 C 
ENDBRANCH  42  44
ENDBRANCH  41  42
ENDBRANCH  17  41
BRANCH  12  46
HETATM   46  C12 UNL     1       1.578  26.962   2.777  1.00  0.00     0.038 C 
BRANCH  46  47
HETATM   47  C13 UNL     1       0.716  25.796   2.882  1.00  0.00    -0.020 C 
HETATM   48  C14 UNL     1       1.105  24.617   2.017  1.00  0.00     0.009 C 
HETATM   49  C15 UNL     1       0.229  25.405   4.233  1.00  0.00     0.009 C 
ENDBRANCH  46  47
ENDBRANCH  12  46
TORSDOF 12
ENDMDL
MODEL 2
REMARK VINA RESULT: -6.848476894      1.278      1.512
REMARK  12 active torsions:
REMARK  status: ('A' for Active; 'I' for Inactive)
REMARK    1  A    between atoms: C2_2  and  C3_3 
REMARK    2  A    between atoms: C3_3  and  C4_4 
REMARK    3  A    between atoms: C4_4  and  C5_5 
REMARK    4  A    between atoms: C5_5  and  C6_6 
REMARK    5  A    between atoms: C6_6  and  C7_7 
REMARK    6  A    between atoms: C11_18  and  C12_19 
REMARK    7  A    between atoms: C12_19  and  C13_20 
REMARK    8  A    between atoms: C17_27  and  C18_28 
REMARK    9  A    between atoms: C18_28  and  C19_29 
REMARK   10  A    between atoms: C19_29  and  C21_31 
REMARK   11  A    between atoms: C24_35  and  O4_36 
REMARK   12  A    between atoms: C27_43  and  C28_44 
ROOT
HETATM    1  C7  UNL     1       8.266  27.018   5.676  1.00  0.00     0.207 C 
HETATM    2  N1  UNL     1       7.312  26.269   6.515  1.00  0.00    -0.112 NA
HETATM    3  N2  UNL     1       6.551  27.122   7.316  1.00  0.00    -0.271 N 
ATOM      4  H2  UNL     1       7.059  27.674   8.007  1.00  0.00     0.185 HD
HETATM    5  C8  UNL     1       5.167  27.298   7.272  1.00  0.00     0.250 C 
HETATM    6  O1  UNL     1       4.722  28.496   7.353  1.00  0.00    -0.270 OA
HETATM    7  C9  UNL     1       4.145  26.210   7.138  1.00  0.00     0.226 C 
HETATM    8  N3  UNL     1       2.859  26.776   6.790  1.00  0.00    -0.350 N 
ATOM      9  H3  UNL     1       2.216  26.910   7.570  1.00  0.00     0.163 HD
HETATM   10  C10 UNL     1       2.374  27.163   5.551  1.00  0.00     0.240 C 
HETATM   11  O2  UNL     1       2.006  28.406   5.458  1.00  0.00    -0.271 OA
HETATM   12  C11 UNL     1       2.195  26.428   4.301  1.00  0.00     0.177 C 
HETATM   13  N4  UNL     1       2.862  26.994   3.164  1.00  0.00    -0.342 N 
ATOM     14  H4  UNL     1       2.509  27.926   2.948  1.00  0.00     0.163 HD
HETATM   15  C16 UNL     1       3.864  26.609   2.279  1.00  0.00     0.268 C 
HETATM   16  O3  UNL     1       3.543  26.775   1.030  1.00  0.00    -0.266 OA
HETATM   17  C17 UNL     1       5.217  26.058   2.538  1.00  0.00     0.101 C 
HETATM   18  N5  UNL     1       6.156  27.140   2.862  1.00  0.00    -0.326 N 
HETATM   19  C23 UNL     1       5.463  28.374   3.290  1.00  0.00     0.159 C 
HETATM   20  C24 UNL     1       7.538  27.231   2.797  1.00  0.00     0.176 C 
HETATM   21  C25 UNL     1       8.653  26.386   3.273  1.00  0.00     0.158 C 
HETATM   22  C26 UNL     1       8.939  25.216   2.400  1.00  0.00     0.273 C 
HETATM   23  O5  UNL     1       8.441  25.228   1.252  1.00  0.00    -0.266 OA
HETATM   24  N6  UNL     1       9.731  24.133   2.817  1.00  0.00    -0.342 N 
ATOM     25  H6  UNL     1      10.139  23.496   2.133  1.00  0.00     0.163 HD
HETATM   26  C27 UNL     1       9.958  23.935   4.220  1.00  0.00     0.180 C 
HETATM   27  C31 UNL     1       9.229  24.857   5.093  1.00  0.00     0.249 C 
HETATM   28  O6  UNL     1       9.072  24.469   6.303  1.00  0.00    -0.271 OA
HETATM   29  N7  UNL     1       8.709  26.114   4.675  1.00  0.00    -0.287 N 
ENDROOT
BRANCH   1  30
HETATM   30  C6  UNL     1       9.420  27.502   6.531  1.00  0.00     0.045 C 
BRANCH  30  31
HETATM   31  C5  UNL     1       8.969  28.312   7.723  1.00  0.00     0.003 C 
BRANCH  31  32
HETATM   32  C4  UNL     1      10.016  28.104   8.801  1.00  0.00     0.000 C 
BRANCH  32  33
HETATM   33  C3  UNL     1      10.185  26.593   8.920  1.00  0.00    -0.000 C 
BRANCH  33  34
HETATM   34  C2  UNL     1      11.605  26.280   9.346  1.00  0.00    -0.005 C 
HETATM   35  C1  UNL     1      12.198  25.368   8.283  1.00  0.00     0.005 C 
ENDBRANCH  33  34
ENDBRANCH  32  33
ENDBRANCH  31  32
ENDBRANCH  30  31
ENDBRANCH   1  30
BRANCH  20  36
HETATM   36  O4  UNL     1       8.026  28.299   2.175  1.00  0.00    -0.344 OA
ATOM     37  H4  UNL     1       8.639  28.130   1.469  1.00  0.00     0.219 HD
ENDBRANCH  20  36
BRANCH  26  38
HETATM   38  C28 UNL     1      11.446  23.926   4.469  1.00  0.00     0.009 C 
HETATM   39  C29 UNL     1      12.193  23.077   3.460  1.00  0.00     0.012 C 
HETATM   40  C30 UNL     1      12.011  25.327   4.370  1.00  0.00     0.012 C 
ENDBRANCH  26  38
BRANCH  17  41
HETATM   41  C18 UNL     1       5.330  24.804   3.255  1.00  0.00     0.013 C 
BRANCH  41  42
HETATM   42  C19 UNL     1       4.555  23.598   3.159  1.00  0.00     0.006 C 
HETATM   43  C20 UNL     1       3.554  23.610   1.968  1.00  0.00     0.014 C 
BRANCH  42  44
HETATM   44  C21 UNL     1       3.811  22.918   4.240  1.00  0.00     0.003 C 
HETATM   45  C22 UNL     1       3.890  21.437   4.355  1.00  0.00     0.006 C 
ENDBRANCH  42  44
ENDBRANCH  41  42
ENDBRANCH  17  41
BRANCH  12  46
HETATM   46  C12 UNL     1       0.682  26.373   4.042  1.00  0.00     0.038 C 
BRANCH  46  47
HETATM   47  C13 UNL     1      -0.033  25.146   4.359  1.00  0.00    -0.020 C 
HETATM   48  C14 UNL     1      -1.488  25.319   4.734  1.00  0.00     0.009 C 
HETATM   49  C15 UNL     1       0.225  23.948   3.516  1.00  0.00     0.009 C 
ENDBRANCH  46  47
ENDBRANCH  12  46
TORSDOF 12
ENDMDL
MODEL 3
REMARK VINA RESULT: -6.828696624      2.752      5.000
REMARK  12 active torsions:
REMARK  status: ('A' for Active; 'I' for Inactive)
REMARK    1  A    between atoms: C2_2  and  C3_3 
REMARK    2  A    between atoms: C3_3  and  C4_4 
REMARK    3  A    between atoms: C4_4  and  C5_5 
REMARK    4  A    between atoms: C5_5  and  C6_6 
REMARK    5  A    between atoms: C6_6  and  C7_7 
REMARK    6  A    between atoms: C11_18  and  C12_19 
REMARK    7  A    between atoms: C12_19  and  C13_20 
REMARK    8  A    between atoms: C17_27  and  C18_28 
REMARK    9  A    between atoms: C18_28  and  C19_29 
REMARK   10  A    between atoms: C19_29  and  C21_31 
REMARK   11  A    between atoms: C24_35  and  O4_36 
REMARK   12  A    between atoms: C27_43  and  C28_44 
ROOT
HETATM    1  C7  UNL     1      12.815  24.290   7.233  1.00  0.00     0.207 C 
HETATM    2  N1  UNL     1      11.570  23.848   7.888  1.00  0.00    -0.112 NA
HETATM    3  N2  UNL     1      11.167  24.740   8.884  1.00  0.00    -0.271 N 
ATOM      4  H2  UNL     1      11.799  24.855   9.676  1.00  0.00     0.185 HD
HETATM    5  C8  UNL     1       9.990  25.490   8.909  1.00  0.00     0.250 C 
HETATM    6  O1  UNL     1      10.076  26.711   9.281  1.00  0.00    -0.270 OA
HETATM    7  C9  UNL     1       8.624  24.996   8.540  1.00  0.00     0.226 C 
HETATM    8  N3  UNL     1       7.722  26.114   8.362  1.00  0.00    -0.350 N 
ATOM      9  H3  UNL     1       7.130  26.329   9.164  1.00  0.00     0.163 HD
HETATM   10  C10 UNL     1       7.547  26.936   7.260  1.00  0.00     0.240 C 
HETATM   11  O2  UNL     1       7.737  28.204   7.472  1.00  0.00    -0.271 OA
HETATM   12  C11 UNL     1       7.184  26.646   5.875  1.00  0.00     0.177 C 
HETATM   13  N4  UNL     1       8.119  27.115   4.893  1.00  0.00    -0.342 N 
ATOM     14  H4  UNL     1       8.204  28.132   4.911  1.00  0.00     0.163 HD
HETATM   15  C16 UNL     1       8.940  26.551   3.922  1.00  0.00     0.268 C 
HETATM   16  O3  UNL     1       8.823  27.112   2.755  1.00  0.00    -0.266 OA
HETATM   17  C17 UNL     1       9.916  25.438   4.016  1.00  0.00     0.101 C 
HETATM   18  N5  UNL     1      11.189  25.918   4.570  1.00  0.00    -0.326 N 
HETATM   19  C23 UNL     1      11.037  27.199   5.293  1.00  0.00     0.159 C 
HETATM   20  C24 UNL     1      12.484  25.428   4.501  1.00  0.00     0.176 C 
HETATM   21  C25 UNL     1      13.105  24.108   4.741  1.00  0.00     0.158 C 
HETATM   22  C26 UNL     1      12.951  23.156   3.610  1.00  0.00     0.273 C 
HETATM   23  O5  UNL     1      12.601  23.633   2.508  1.00  0.00    -0.266 OA
HETATM   24  N6  UNL     1      13.184  21.777   3.742  1.00  0.00    -0.342 N 
ATOM     25  H6  UNL     1      13.347  21.198   2.918  1.00  0.00     0.163 HD
HETATM   26  C27 UNL     1      13.191  21.193   5.052  1.00  0.00     0.180 C 
HETATM   27  C31 UNL     1      12.839  22.115   6.134  1.00  0.00     0.249 C 
HETATM   28  O6  UNL     1      12.435  21.571   7.219  1.00  0.00    -0.271 OA
HETATM   29  N7  UNL     1      12.924  23.533   6.037  1.00  0.00    -0.287 N 
ENDROOT
BRANCH   1  30
HETATM   30  C6  UNL     1      13.989  24.036   8.156  1.00  0.00     0.045 C 
BRANCH  30  31
HETATM   31  C5  UNL     1      15.284  23.808   7.411  1.00  0.00     0.003 C 
BRANCH  31  32
HETATM   32  C4  UNL     1      16.037  22.741   8.183  1.00  0.00     0.000 C 
BRANCH  32  33
HETATM   33  C3  UNL     1      15.201  22.471   9.429  1.00  0.00    -0.000 C 
BRANCH  33  34
HETATM   34  C2  UNL     1      15.253  20.992   9.756  1.00  0.00    -0.005 C 
HETATM   35  C1  UNL     1      16.049  20.319   8.649  1.00  0.00     0.005 C 
ENDBRANCH  33  34
ENDBRANCH  32  33
ENDBRANCH  31  32
ENDBRANCH  30  31
ENDBRANCH   1  30
BRANCH  20  36
HETATM   36  O4  UNL     1      13.421  26.299   4.143  1.00  0.00    -0.344 OA
ATOM     37  H4  UNL     1      13.683  26.281   3.230  1.00  0.00     0.219 HD
ENDBRANCH  20  36
BRANCH  26  38
HETATM   38  C28 UNL     1      14.514  20.500   5.263  1.00  0.00     0.009 C 
HETATM   39  C29 UNL     1      14.578  19.157   4.566  1.00  0.00     0.012 C 
HETATM   40  C30 UNL     1      15.648  21.338   4.709  1.00  0.00     0.012 C 
ENDBRANCH  26  38
BRANCH  17  41
HETATM   41  C18 UNL     1       9.438  24.128   4.412  1.00  0.00     0.013 C 
BRANCH  41  42
HETATM   42  C19 UNL     1       8.656  23.161   3.694  1.00  0.00     0.006 C 
HETATM   43  C20 UNL     1       9.524  22.157   2.881  1.00  0.00     0.014 C 
BRANCH  42  44
HETATM   44  C21 UNL     1       7.495  23.416   2.815  1.00  0.00     0.003 C 
HETATM   45  C22 UNL     1       6.318  24.144   3.361  1.00  0.00     0.006 C 
ENDBRANCH  42  44
ENDBRANCH  41  42
ENDBRANCH  17  41
BRANCH  12  46
HETATM   46  C12 UNL     1       5.812  27.295   5.640  1.00  0.00     0.038 C 
BRANCH  46  47
HETATM   47  C13 UNL     1       4.669  26.790   6.383  1.00  0.00    -0.020 C 
HETATM   48  C14 UNL     1       4.051  27.760   7.367  1.00  0.00     0.009 C 
HETATM   49  C15 UNL     1       3.667  25.967   5.653  1.00  0.00     0.009 C 
ENDBRANCH  46  47
ENDBRANCH  12  46
TORSDOF 12
ENDMDL
MODEL 4
REMARK VINA RESULT: -6.784096132      0.771      1.039
REMARK  12 active torsions:
REMARK  status: ('A' for Active; 'I' for Inactive)
REMARK    1  A    between atoms: C2_2  and  C3_3 
REMARK    2  A    between atoms: C3_3  and  C4_4 
REMARK    3  A    between atoms: C4_4  and  C5_5 
REMARK    4  A    between atoms: C5_5  and  C6_6 
REMARK    5  A    between atoms: C6_6  and  C7_7 
REMARK    6  A    between atoms: C11_18  and  C12_19 
REMARK    7  A    between atoms: C12_19  and  C13_20 
REMARK    8  A    between atoms: C17_27  and  C18_28 
REMARK    9  A    between atoms: C18_28  and  C19_29 
REMARK   10  A    between atoms: C19_29  and  C21_31 
REMARK   11  A    between atoms: C24_35  and  O4_36 
REMARK   12  A    between atoms: C27_43  and  C28_44 
ROOT
HETATM    1  C7  UNL     1       9.228  26.430   5.335  1.00  0.00     0.207 C 
HETATM    2  N1  UNL     1       8.135  26.139   6.281  1.00  0.00    -0.112 NA
HETATM    3  N2  UNL     1       7.628  27.306   6.856  1.00  0.00    -0.271 N 
ATOM      4  H2  UNL     1       8.272  27.848   7.431  1.00  0.00     0.185 HD
HETATM    5  C8  UNL     1       6.332  27.807   6.728  1.00  0.00     0.250 C 
HETATM    6  O1  UNL     1       6.202  29.066   6.537  1.00  0.00    -0.270 OA
HETATM    7  C9  UNL     1       5.067  27.004   6.794  1.00  0.00     0.226 C 
HETATM    8  N3  UNL     1       3.957  27.784   6.289  1.00  0.00    -0.350 N 
ATOM      9  H3  UNL     1       3.384  28.238   7.001  1.00  0.00     0.163 HD
HETATM   10  C10 UNL     1       3.558  28.005   4.981  1.00  0.00     0.240 C 
HETATM   11  O2  UNL     1       3.512  29.251   4.613  1.00  0.00    -0.271 OA
HETATM   12  C11 UNL     1       3.176  27.088   3.910  1.00  0.00     0.177 C 
HETATM   13  N4  UNL     1       3.940  27.213   2.702  1.00  0.00    -0.342 N 
ATOM     14  H4  UNL     1       3.827  28.135   2.281  1.00  0.00     0.163 HD
HETATM   15  C16 UNL     1       4.795  26.411   1.953  1.00  0.00     0.268 C 
HETATM   16  O3  UNL     1       4.501  26.380   0.688  1.00  0.00    -0.266 OA
HETATM   17  C17 UNL     1       5.973  25.610   2.370  1.00  0.00     0.101 C 
HETATM   18  N5  UNL     1       7.159  26.467   2.489  1.00  0.00    -0.326 N 
HETATM   19  C23 UNL     1       6.805  27.897   2.621  1.00  0.00     0.159 C 
HETATM   20  C24 UNL     1       8.518  26.195   2.453  1.00  0.00     0.176 C 
HETATM   21  C25 UNL     1       9.396  25.222   3.135  1.00  0.00     0.158 C 
HETATM   22  C26 UNL     1       9.361  23.859   2.541  1.00  0.00     0.273 C 
HETATM   23  O5  UNL     1       8.859  23.748   1.401  1.00  0.00    -0.266 OA
HETATM   24  N6  UNL     1       9.866  22.729   3.206  1.00  0.00    -0.342 N 
ATOM     25  H6  UNL     1      10.087  21.879   2.686  1.00  0.00     0.163 HD
HETATM   26  C27 UNL     1      10.065  22.785   4.625  1.00  0.00     0.180 C 
HETATM   27  C31 UNL     1       9.607  24.024   5.257  1.00  0.00     0.249 C 
HETATM   28  O6  UNL     1       9.384  23.956   6.515  1.00  0.00    -0.271 OA
HETATM   29  N7  UNL     1       9.410  25.251   4.564  1.00  0.00    -0.287 N 
ENDROOT
BRANCH   1  30
HETATM   30  C6  UNL     1      10.484  26.783   6.107  1.00  0.00     0.045 C 
BRANCH  30  31
HETATM   31  C5  UNL     1      10.295  26.707   7.603  1.00  0.00     0.003 C 
BRANCH  31  32
HETATM   32  C4  UNL     1      11.685  26.638   8.205  1.00  0.00     0.000 C 
BRANCH  32  33
HETATM   33  C3  UNL     1      12.010  25.152   8.314  1.00  0.00    -0.000 C 
BRANCH  33  34
HETATM   34  C2  UNL     1      13.477  24.936   8.001  1.00  0.00    -0.005 C 
HETATM   35  C1  UNL     1      13.864  23.590   8.595  1.00  0.00     0.005 C 
ENDBRANCH  33  34
ENDBRANCH  32  33
ENDBRANCH  31  32
ENDBRANCH  30  31
ENDBRANCH   1  30
BRANCH  20  36
HETATM   36  O4  UNL     1       9.245  26.950   1.636  1.00  0.00    -0.344 OA
ATOM     37  H4  UNL     1       9.132  26.790   0.706  1.00  0.00     0.219 HD
ENDBRANCH  20  36
BRANCH  26  38
HETATM   38  C28 UNL     1      11.508  22.460   4.921  1.00  0.00     0.009 C 
HETATM   39  C29 UNL     1      12.405  23.677   4.821  1.00  0.00     0.012 C 
HETATM   40  C30 UNL     1      11.654  21.918   6.327  1.00  0.00     0.012 C 
ENDBRANCH  26  38
BRANCH  17  41
HETATM   41  C18 UNL     1       5.783  24.551   3.340  1.00  0.00     0.013 C 
BRANCH  41  42
HETATM   42  C19 UNL     1       4.652  23.699   3.588  1.00  0.00     0.006 C 
HETATM   43  C20 UNL     1       3.733  24.221   4.729  1.00  0.00     0.014 C 
BRANCH  42  44
HETATM   44  C21 UNL     1       4.655  22.233   3.780  1.00  0.00     0.003 C 
HETATM   45  C22 UNL     1       3.367  21.491   3.722  1.00  0.00     0.006 C 
ENDBRANCH  42  44
ENDBRANCH  41  42
ENDBRANCH  17  41
BRANCH  12  46
HETATM   46  C12 UNL     1       1.692  27.357   3.617  1.00  0.00     0.038 C 
BRANCH  46  47
HETATM   47  C13 UNL     1       0.748  26.259   3.751  1.00  0.00    -0.020 C 
HETATM   48  C14 UNL     1       0.902  25.140   2.744  1.00  0.00     0.009 C 
HETATM   49  C15 UNL     1       0.419  25.782   5.121  1.00  0.00     0.009 C 
ENDBRANCH  46  47
ENDBRANCH  12  46
TORSDOF 12
ENDMDL
MODEL 5
REMARK VINA RESULT: -6.405002730      3.434      7.237
REMARK  12 active torsions:
REMARK  status: ('A' for Active; 'I' for Inactive)
REMARK    1  A    between atoms: C2_2  and  C3_3 
REMARK    2  A    between atoms: C3_3  and  C4_4 
REMARK    3  A    between atoms: C4_4  and  C5_5 
REMARK    4  A    between atoms: C5_5  and  C6_6 
REMARK    5  A    between atoms: C6_6  and  C7_7 
REMARK    6  A    between atoms: C11_18  and  C12_19 
REMARK    7  A    between atoms: C12_19  and  C13_20 
REMARK    8  A    between atoms: C17_27  and  C18_28 
REMARK    9  A    between atoms: C18_28  and  C19_29 
REMARK   10  A    between atoms: C19_29  and  C21_31 
REMARK   11  A    between atoms: C24_35  and  O4_36 
REMARK   12  A    between atoms: C27_43  and  C28_44 
ROOT
HETATM    1  C7  UNL     1       4.033  25.598   4.059  1.00  0.00     0.207 C 
HETATM    2  N1  UNL     1       3.030  26.337   3.270  1.00  0.00    -0.112 NA
HETATM    3  N2  UNL     1       1.745  25.827   3.461  1.00  0.00    -0.271 N 
ATOM      4  H2  UNL     1       1.588  24.864   3.163  1.00  0.00     0.185 HD
HETATM    5  C8  UNL     1       0.653  26.495   4.016  1.00  0.00     0.250 C 
HETATM    6  O1  UNL     1      -0.075  25.848   4.847  1.00  0.00    -0.270 OA
HETATM    7  C9  UNL     1       0.248  27.909   3.729  1.00  0.00     0.226 C 
HETATM    8  N3  UNL     1      -0.706  28.364   4.719  1.00  0.00    -0.350 N 
ATOM      9  H3  UNL     1      -1.684  28.314   4.436  1.00  0.00     0.163 HD
HETATM   10  C10 UNL     1      -0.483  28.856   5.995  1.00  0.00     0.240 C 
HETATM   11  O2  UNL     1      -1.065  28.202   6.956  1.00  0.00    -0.271 OA
HETATM   12  C11 UNL     1       0.299  29.991   6.480  1.00  0.00     0.177 C 
HETATM   13  N4  UNL     1       1.302  29.665   7.452  1.00  0.00    -0.342 N 
ATOM     14  H4  UNL     1       0.889  29.277   8.301  1.00  0.00     0.163 HD
HETATM   15  C16 UNL     1       2.688  29.737   7.545  1.00  0.00     0.268 C 
HETATM   16  O3  UNL     1       3.106  30.300   8.640  1.00  0.00    -0.266 OA
HETATM   17  C17 UNL     1       3.740  29.269   6.609  1.00  0.00     0.101 C 
HETATM   18  N5  UNL     1       3.974  27.829   6.780  1.00  0.00    -0.326 N 
HETATM   19  C23 UNL     1       2.847  27.155   7.458  1.00  0.00     0.159 C 
HETATM   20  C24 UNL     1       5.052  27.014   6.472  1.00  0.00     0.176 C 
HETATM   21  C25 UNL     1       5.880  26.805   5.266  1.00  0.00     0.158 C 
HETATM   22  C26 UNL     1       6.928  27.841   5.068  1.00  0.00     0.273 C 
HETATM   23  O5  UNL     1       7.195  28.575   6.045  1.00  0.00    -0.266 OA
HETATM   24  N6  UNL     1       7.607  28.010   3.850  1.00  0.00    -0.342 N 
ATOM     25  H6  UNL     1       8.492  28.517   3.817  1.00  0.00     0.163 HD
HETATM   26  C27 UNL     1       7.040  27.460   2.653  1.00  0.00     0.180 C 
HETATM   27  C31 UNL     1       5.719  26.853   2.826  1.00  0.00     0.249 C 
HETATM   28  O6  UNL     1       5.018  26.734   1.762  1.00  0.00    -0.271 OA
HETATM   29  N7  UNL     1       5.201  26.406   4.074  1.00  0.00    -0.287 N 
ENDROOT
BRANCH   1  30
HETATM   30  C6  UNL     1       4.299  24.256   3.408  1.00  0.00     0.045 C 
BRANCH  30  31
HETATM   31  C5  UNL     1       3.685  23.103   4.166  1.00  0.00     0.003 C 
BRANCH  31  32
HETATM   32  C4  UNL     1       2.650  22.489   3.243  1.00  0.00     0.000 C 
BRANCH  32  33
HETATM   33  C3  UNL     1       2.938  20.992   3.243  1.00  0.00    -0.000 C 
BRANCH  33  34
HETATM   34  C2  UNL     1       3.883  20.663   4.382  1.00  0.00    -0.005 C 
HETATM   35  C1  UNL     1       3.681  19.194   4.716  1.00  0.00     0.005 C 
ENDBRANCH  33  34
ENDBRANCH  32  33
ENDBRANCH  31  32
ENDBRANCH  30  31
ENDBRANCH   1  30
BRANCH  20  36
HETATM   36  O4  UNL     1       5.481  26.218   7.446  1.00  0.00    -0.344 OA
ATOM     37  H4  UNL     1       4.820  25.906   8.054  1.00  0.00     0.219 HD
ENDBRANCH  20  36
BRANCH  26  38
HETATM   38  C28 UNL     1       8.049  26.531   2.025  1.00  0.00     0.009 C 
HETATM   39  C29 UNL     1       7.765  25.077   2.341  1.00  0.00     0.012 C 
HETATM   40  C30 UNL     1       8.031  26.666   0.517  1.00  0.00     0.012 C 
ENDBRANCH  26  38
BRANCH  17  41
HETATM   41  C18 UNL     1       3.773  29.823   5.270  1.00  0.00     0.013 C 
BRANCH  41  42
HETATM   42  C19 UNL     1       3.628  31.178   4.813  1.00  0.00     0.006 C 
HETATM   43  C20 UNL     1       4.161  32.225   5.834  1.00  0.00     0.014 C 
BRANCH  42  44
HETATM   44  C21 UNL     1       2.417  31.814   4.254  1.00  0.00     0.003 C 
HETATM   45  C22 UNL     1       2.481  33.235   3.817  1.00  0.00     0.006 C 
ENDBRANCH  42  44
ENDBRANCH  41  42
ENDBRANCH  17  41
BRANCH  12  46
HETATM   46  C12 UNL     1      -0.705  30.985   7.081  1.00  0.00     0.038 C 
BRANCH  46  47
HETATM   47  C13 UNL     1      -0.633  32.379   6.671  1.00  0.00    -0.020 C 
HETATM   48  C14 UNL     1       0.581  33.139   7.157  1.00  0.00     0.009 C 
HETATM   49  C15 UNL     1      -1.028  32.720   5.278  1.00  0.00     0.009 C 
ENDBRANCH  46  47
ENDBRANCH  12  46
TORSDOF 12
ENDMDL
