MODEL 1
REMARK VINA RESULT: -7.756573674      0.000      0.000
REMARK  7 active torsions:
REMARK  status: ('A' for Active; 'I' for Inactive)
REMARK    1  A    between atoms: C3_3  and  C4_4 
REMARK    2  A    between atoms: C5_5  and  C6_6 
REMARK    3  A    between atoms: C6_6  and  O2_8 
REMARK    4  A    between atoms: O2_8  and  C7_9 
REMARK    5  A    between atoms: C7_9  and  C8_10 
REMARK    6  A    between atoms: C13_16  and  O4_17 
REMARK    7  A    between atoms: C17_24  and  C18_25 
ROOT
HETATM    1  C8  UNL     1      14.590  -3.190  11.086  1.00  0.00     0.016 C 
HETATM    2  C9  UNL     1      13.594  -3.309  12.280  1.00  0.00     0.012 C 
HETATM    3  C10 UNL     1      13.349  -4.709  12.703  1.00  0.00     0.043 C 
HETATM    4  C11 UNL     1      14.028  -4.918  14.017  1.00  0.00    -0.004 A 
HETATM    5  C12 UNL     1      13.496  -5.649  15.031  1.00  0.00     0.154 A 
HETATM    6  O3  UNL     1      14.337  -5.644  16.061  1.00  0.00    -0.298 OA
HETATM    7  C13 UNL     1      15.401  -4.950  15.787  1.00  0.00     0.210 A 
HETATM    8  C14 UNL     1      15.265  -4.459  14.494  1.00  0.00     0.095 A 
HETATM    9  N1  UNL     1      16.278  -3.659  13.915  1.00  0.00    -0.381 N 
ATOM     10  H1  UNL     1      16.933  -3.320  14.619  1.00  0.00     0.160 HD
HETATM   11  C15 UNL     1      16.632  -3.192  12.591  1.00  0.00     0.082 C 
HETATM   12  C16 UNL     1      18.137  -3.395  12.444  1.00  0.00     0.032 C 
HETATM   13  C17 UNL     1      15.863  -3.810  11.485  1.00  0.00     0.013 C 
ENDROOT
BRANCH   1  14
HETATM   14  C7  UNL     1      14.493  -1.799  10.627  1.00  0.00     0.184 C 
BRANCH  14  15
HETATM   15  O2  UNL     1      15.078  -1.214   9.603  1.00  0.00    -0.318 OA
BRANCH  15  16
HETATM   16  C6  UNL     1      16.158  -0.528   9.269  1.00  0.00     0.282 C 
HETATM   17  O1  UNL     1      16.029   0.485   8.537  1.00  0.00    -0.260 OA
BRANCH  16  18
HETATM   18  C5  UNL     1      17.530  -0.863   9.697  1.00  0.00     0.082 C 
HETATM   19  C4  UNL     1      18.331  -1.508   8.874  1.00  0.00     0.006 C 
BRANCH  19  20
HETATM   20  C3  UNL     1      19.677  -1.844   9.278  1.00  0.00    -0.004 C 
HETATM   21  C2  UNL     1      20.060  -3.099   9.282  1.00  0.00    -0.031 C 
HETATM   22  C1  UNL     1      21.430  -3.521   9.685  1.00  0.00     0.036 C 
ENDBRANCH  19  20
ENDBRANCH  16  18
ENDBRANCH  15  16
ENDBRANCH  14  15
ENDBRANCH   1  14
BRANCH  13  23
HETATM   23  C18 UNL     1      16.680  -4.393  10.355  1.00  0.00     0.002 C 
HETATM   24  C19 UNL     1      16.900  -5.897  10.590  1.00  0.00     0.005 C 
ENDBRANCH  13  23
BRANCH   7  25
HETATM   25  O4  UNL     1      16.475  -4.737  16.624  1.00  0.00    -0.339 OA
ATOM     26  H4  UNL     1      17.159  -4.088  16.509  1.00  0.00     0.220 HD
ENDBRANCH   7  25
TORSDOF 7
ENDMDL
MODEL 2
REMARK VINA RESULT: -7.332961965      1.093      1.163
REMARK  7 active torsions:
REMARK  status: ('A' for Active; 'I' for Inactive)
REMARK    1  A    between atoms: C3_3  and  C4_4 
REMARK    2  A    between atoms: C5_5  and  C6_6 
REMARK    3  A    between atoms: C6_6  and  O2_8 
REMARK    4  A    between atoms: O2_8  and  C7_9 
REMARK    5  A    between atoms: C7_9  and  C8_10 
REMARK    6  A    between atoms: C13_16  and  O4_17 
REMARK    7  A    between atoms: C17_24  and  C18_25 
ROOT
HETATM    1  C8  UNL     1      14.767  -3.011  10.552  1.00  0.00     0.016 C 
HETATM    2  C9  UNL     1      13.666  -2.940  11.655  1.00  0.00     0.012 C 
HETATM    3  C10 UNL     1      13.301  -4.266  12.206  1.00  0.00     0.043 C 
HETATM    4  C11 UNL     1      13.850  -4.354  13.594  1.00  0.00    -0.004 A 
HETATM    5  C12 UNL     1      13.189  -4.934  14.629  1.00  0.00     0.154 A 
HETATM    6  O3  UNL     1      13.937  -4.851  15.726  1.00  0.00    -0.298 OA
HETATM    7  C13 UNL     1      15.060  -4.248  15.476  1.00  0.00     0.210 A 
HETATM    8  C14 UNL     1      15.067  -3.905  14.128  1.00  0.00     0.095 A 
HETATM    9  N1  UNL     1      16.172  -3.230  13.561  1.00  0.00    -0.381 N 
ATOM     10  H1  UNL     1      16.784  -2.844  14.280  1.00  0.00     0.160 HD
HETATM   11  C15 UNL     1      16.668  -2.940  12.231  1.00  0.00     0.082 C 
HETATM   12  C16 UNL     1      18.164  -3.234  12.248  1.00  0.00     0.032 C 
HETATM   13  C17 UNL     1      15.961  -3.643  11.135  1.00  0.00     0.013 C 
ENDROOT
BRANCH   1  14
HETATM   14  C7  UNL     1      14.794  -1.680   9.933  1.00  0.00     0.184 C 
BRANCH  14  15
HETATM   15  O2  UNL     1      15.706  -1.142   9.151  1.00  0.00    -0.318 OA
BRANCH  15  16
HETATM   16  C6  UNL     1      16.907  -0.589   9.173  1.00  0.00     0.282 C 
HETATM   17  O1  UNL     1      17.069   0.480   9.814  1.00  0.00    -0.260 OA
BRANCH  16  18
HETATM   18  C5  UNL     1      18.095  -1.138   8.492  1.00  0.00     0.082 C 
HETATM   19  C4  UNL     1      19.153  -1.479   9.199  1.00  0.00     0.006 C 
BRANCH  19  20
HETATM   20  C3  UNL     1      20.325  -2.018   8.548  1.00  0.00    -0.004 C 
HETATM   21  C2  UNL     1      20.782  -1.448   7.458  1.00  0.00    -0.031 C 
HETATM   22  C1  UNL     1      21.983  -1.947   6.733  1.00  0.00     0.036 C 
ENDBRANCH  19  20
ENDBRANCH  16  18
ENDBRANCH  15  16
ENDBRANCH  14  15
ENDBRANCH   1  14
BRANCH  13  23
HETATM   23  C18 UNL     1      16.836  -4.395  10.158  1.00  0.00     0.002 C 
HETATM   24  C19 UNL     1      16.929  -5.874  10.570  1.00  0.00     0.005 C 
ENDBRANCH  13  23
BRANCH   7  25
HETATM   25  O4  UNL     1      16.069  -3.992  16.380  1.00  0.00    -0.339 OA
ATOM     26  H4  UNL     1      16.008  -4.061  17.326  1.00  0.00     0.220 HD
ENDBRANCH   7  25
TORSDOF 7
ENDMDL
MODEL 3
REMARK VINA RESULT: -7.309111649      2.907      4.065
REMARK  7 active torsions:
REMARK  status: ('A' for Active; 'I' for Inactive)
REMARK    1  A    between atoms: C3_3  and  C4_4 
REMARK    2  A    between atoms: C5_5  and  C6_6 
REMARK    3  A    between atoms: C6_6  and  O2_8 
REMARK    4  A    between atoms: O2_8  and  C7_9 
REMARK    5  A    between atoms: C7_9  and  C8_10 
REMARK    6  A    between atoms: C13_16  and  O4_17 
REMARK    7  A    between atoms: C17_24  and  C18_25 
ROOT
HETATM    1  C8  UNL     1      13.390  -4.642  12.804  1.00  0.00     0.016 C 
HETATM    2  C9  UNL     1      12.973  -5.963  13.521  1.00  0.00     0.012 C 
HETATM    3  C10 UNL     1      14.012  -7.018  13.459  1.00  0.00     0.043 C 
HETATM    4  C11 UNL     1      14.606  -7.159  14.823  1.00  0.00    -0.004 A 
HETATM    5  C12 UNL     1      14.949  -8.352  15.374  1.00  0.00     0.154 A 
HETATM    6  O3  UNL     1      15.447  -8.145  16.590  1.00  0.00    -0.298 OA
HETATM    7  C13 UNL     1      15.454  -6.878  16.877  1.00  0.00     0.210 A 
HETATM    8  C14 UNL     1      14.929  -6.192  15.788  1.00  0.00     0.095 A 
HETATM    9  N1  UNL     1      14.809  -4.784  15.809  1.00  0.00    -0.381 N 
ATOM     10  H1  UNL     1      14.915  -4.415  16.754  1.00  0.00     0.160 HD
HETATM   11  C15 UNL     1      14.576  -3.725  14.849  1.00  0.00     0.082 C 
HETATM   12  C16 UNL     1      15.577  -2.619  15.167  1.00  0.00     0.032 C 
HETATM   13  C17 UNL     1      14.625  -4.148  13.430  1.00  0.00     0.013 C 
ENDROOT
BRANCH   1  14
HETATM   14  C7  UNL     1      12.166  -3.837  12.715  1.00  0.00     0.184 C 
BRANCH  14  15
HETATM   15  O2  UNL     1      11.899  -2.661  13.246  1.00  0.00    -0.318 OA
BRANCH  15  16
HETATM   16  C6  UNL     1      11.887  -1.369  12.967  1.00  0.00     0.282 C 
HETATM   17  O1  UNL     1      10.967  -0.656  13.443  1.00  0.00    -0.260 OA
BRANCH  16  18
HETATM   18  C5  UNL     1      12.886  -0.683  12.127  1.00  0.00     0.082 C 
HETATM   19  C4  UNL     1      12.969  -0.973  10.844  1.00  0.00     0.006 C 
BRANCH  19  20
HETATM   20  C3  UNL     1      13.943  -0.310  10.006  1.00  0.00    -0.004 C 
HETATM   21  C2  UNL     1      15.054  -0.930   9.687  1.00  0.00    -0.031 C 
HETATM   22  C1  UNL     1      16.102  -0.312   8.829  1.00  0.00     0.036 C 
ENDBRANCH  19  20
ENDBRANCH  16  18
ENDBRANCH  15  16
ENDBRANCH  14  15
ENDBRANCH   1  14
BRANCH  13  23
HETATM   23  C18 UNL     1      15.528  -3.338  12.528  1.00  0.00     0.002 C 
HETATM   24  C19 UNL     1      15.853  -4.139  11.256  1.00  0.00     0.005 C 
ENDBRANCH  13  23
BRANCH   7  25
HETATM   25  O4  UNL     1      15.901  -6.308  18.051  1.00  0.00    -0.339 OA
ATOM     26  H4  UNL     1      15.492  -6.383  18.905  1.00  0.00     0.220 HD
ENDBRANCH   7  25
TORSDOF 7
ENDMDL
MODEL 4
REMARK VINA RESULT: -7.093419410      1.509      3.077
REMARK  7 active torsions:
REMARK  status: ('A' for Active; 'I' for Inactive)
REMARK    1  A    between atoms: C3_3  and  C4_4 
REMARK    2  A    between atoms: C5_5  and  C6_6 
REMARK    3  A    between atoms: C6_6  and  O2_8 
REMARK    4  A    between atoms: O2_8  and  C7_9 
REMARK    5  A    between atoms: C7_9  and  C8_10 
REMARK    6  A    between atoms: C13_16  and  O4_17 
REMARK    7  A    between atoms: C17_24  and  C18_25 
ROOT
HETATM    1  C8  UNL     1      15.005  -2.187  11.288  1.00  0.00     0.016 C 
HETATM    2  C9  UNL     1      15.936  -3.204  12.018  1.00  0.00     0.012 C 
HETATM    3  C10 UNL     1      16.137  -2.891  13.453  1.00  0.00     0.043 C 
HETATM    4  C11 UNL     1      15.387  -3.906  14.254  1.00  0.00    -0.004 A 
HETATM    5  C12 UNL     1      15.854  -4.447  15.409  1.00  0.00     0.154 A 
HETATM    6  O3  UNL     1      14.960  -5.314  15.878  1.00  0.00    -0.298 OA
HETATM    7  C13 UNL     1      13.923  -5.377  15.097  1.00  0.00     0.210 A 
HETATM    8  C14 UNL     1      14.134  -4.499  14.040  1.00  0.00     0.095 A 
HETATM    9  N1  UNL     1      13.166  -4.352  13.020  1.00  0.00    -0.381 N 
ATOM     10  H1  UNL     1      12.479  -5.106  13.044  1.00  0.00     0.160 HD
HETATM   11  C15 UNL     1      12.888  -3.417  11.949  1.00  0.00     0.082 C 
HETATM   12  C16 UNL     1      11.390  -3.133  11.995  1.00  0.00     0.032 C 
HETATM   13  C17 UNL     1      13.704  -2.181  11.974  1.00  0.00     0.013 C 
ENDROOT
BRANCH   1  14
HETATM   14  C7  UNL     1      15.149  -2.476   9.856  1.00  0.00     0.184 C 
BRANCH  14  15
HETATM   15  O2  UNL     1      15.756  -1.778   8.920  1.00  0.00    -0.318 OA
BRANCH  15  16
HETATM   16  C6  UNL     1      16.523  -0.716   8.741  1.00  0.00     0.282 C 
HETATM   17  O1  UNL     1      16.001   0.426   8.806  1.00  0.00    -0.260 OA
BRANCH  16  18
HETATM   18  C5  UNL     1      17.972  -0.765   8.468  1.00  0.00     0.082 C 
HETATM   19  C4  UNL     1      18.722  -1.659   9.081  1.00  0.00     0.006 C 
BRANCH  19  20
HETATM   20  C3  UNL     1      20.142  -1.720   8.825  1.00  0.00    -0.004 C 
HETATM   21  C2  UNL     1      20.619  -1.258   7.693  1.00  0.00    -0.031 C 
HETATM   22  C1  UNL     1      22.069  -1.287   7.358  1.00  0.00     0.036 C 
ENDBRANCH  19  20
ENDBRANCH  16  18
ENDBRANCH  15  16
ENDBRANCH  14  15
ENDBRANCH   1  14
BRANCH  13  23
HETATM   23  C18 UNL     1      12.938  -0.880  11.895  1.00  0.00     0.002 C 
HETATM   24  C19 UNL     1      12.969  -0.341  10.454  1.00  0.00     0.005 C 
ENDBRANCH  13  23
BRANCH   7  25
HETATM   25  O4  UNL     1      12.810  -6.170  15.281  1.00  0.00    -0.339 OA
ATOM     26  H4  UNL     1      12.710  -7.072  15.002  1.00  0.00     0.220 HD
ENDBRANCH   7  25
TORSDOF 7
ENDMDL
MODEL 5
REMARK VINA RESULT: -7.062385775      1.596      2.060
REMARK  7 active torsions:
REMARK  status: ('A' for Active; 'I' for Inactive)
REMARK    1  A    between atoms: C3_3  and  C4_4 
REMARK    2  A    between atoms: C5_5  and  C6_6 
REMARK    3  A    between atoms: C6_6  and  O2_8 
REMARK    4  A    between atoms: O2_8  and  C7_9 
REMARK    5  A    between atoms: C7_9  and  C8_10 
REMARK    6  A    between atoms: C13_16  and  O4_17 
REMARK    7  A    between atoms: C17_24  and  C18_25 
ROOT
HETATM    1  C8  UNL     1      15.586  -2.774  10.071  1.00  0.00     0.016 C 
HETATM    2  C9  UNL     1      14.386  -2.262  10.926  1.00  0.00     0.012 C 
HETATM    3  C10 UNL     1      13.561  -3.354  11.494  1.00  0.00     0.043 C 
HETATM    4  C11 UNL     1      13.821  -3.409  12.965  1.00  0.00    -0.004 A 
HETATM    5  C12 UNL     1      12.856  -3.647  13.891  1.00  0.00     0.154 A 
HETATM    6  O3  UNL     1      13.401  -3.632  15.104  1.00  0.00    -0.298 OA
HETATM    7  C13 UNL     1      14.678  -3.399  15.034  1.00  0.00     0.210 A 
HETATM    8  C14 UNL     1      15.009  -3.247  13.693  1.00  0.00     0.095 A 
HETATM    9  N1  UNL     1      16.342  -2.981  13.304  1.00  0.00    -0.381 N 
ATOM     10  H1  UNL     1      16.912  -2.689  14.098  1.00  0.00     0.160 HD
HETATM   11  C15 UNL     1      17.116  -3.012  12.080  1.00  0.00     0.082 C 
HETATM   12  C16 UNL     1      18.435  -3.701  12.413  1.00  0.00     0.032 C 
HETATM   13  C17 UNL     1      16.426  -3.629  10.922  1.00  0.00     0.013 C 
ENDROOT
BRANCH   1  14
HETATM   14  C7  UNL     1      16.105  -1.593   9.370  1.00  0.00     0.184 C 
BRANCH  14  15
HETATM   15  O2  UNL     1      17.328  -1.341   8.951  1.00  0.00    -0.318 OA
BRANCH  15  16
HETATM   16  C6  UNL     1      18.571  -1.207   9.379  1.00  0.00     0.282 C 
HETATM   17  O1  UNL     1      18.781  -0.557  10.435  1.00  0.00    -0.260 OA
BRANCH  16  18
HETATM   18  C5  UNL     1      19.756  -1.771   8.704  1.00  0.00     0.082 C 
HETATM   19  C4  UNL     1      20.235  -2.936   9.092  1.00  0.00     0.006 C 
BRANCH  19  20
HETATM   20  C3  UNL     1      21.394  -3.502   8.441  1.00  0.00    -0.004 C 
HETATM   21  C2  UNL     1      21.832  -2.975   7.322  1.00  0.00    -0.031 C 
HETATM   22  C1  UNL     1      23.020  -3.503   6.595  1.00  0.00     0.036 C 
ENDBRANCH  19  20
ENDBRANCH  16  18
ENDBRANCH  15  16
ENDBRANCH  14  15
ENDBRANCH   1  14
BRANCH  13  23
HETATM   23  C18 UNL     1      17.191  -4.712  10.196  1.00  0.00     0.002 C 
HETATM   24  C19 UNL     1      16.813  -6.091  10.764  1.00  0.00     0.005 C 
ENDBRANCH  13  23
BRANCH   7  25
HETATM   25  O4  UNL     1      15.552  -3.316  16.098  1.00  0.00    -0.339 OA
ATOM     26  H4  UNL     1      16.114  -4.010  16.420  1.00  0.00     0.220 HD
ENDBRANCH   7  25
TORSDOF 7
ENDMDL
