MODEL 1
REMARK VINA RESULT: -7.431759522      0.000      0.000
REMARK  6 active torsions:
REMARK  status: ('A' for Active; 'I' for Inactive)
REMARK    1  A    between atoms: C3_5  and  S1_6 
REMARK    2  A    between atoms: S1_6  and  C4_7 
REMARK    3  A    between atoms: C4_7  and  C5_8 
REMARK    4  A    between atoms: N2_18  and  N3_19 
REMARK    5  A    between atoms: C15_22  and  N4_23 
REMARK    6  A    between atoms: N4_23  and  C16_25 
ROOT
HETATM    1  C1  UNL     1      18.123  -7.237  17.491  1.00  0.00     0.072 C 
HETATM    2  C2  UNL     1      17.044  -6.463  16.832  1.00  0.00     0.053 A 
HETATM    3  N1  UNL     1      17.162  -5.274  16.221  1.00  0.00    -0.336 N 
ATOM      4  H1  UNL     1      18.032  -4.749  16.135  1.00  0.00     0.168 HD
HETATM    5  C3  UNL     1      15.977  -4.875  15.740  1.00  0.00     0.167 A 
HETATM    6  N2  UNL     1      15.051  -5.836  16.046  1.00  0.00    -0.222 N 
HETATM    7  C15 UNL     1      15.694  -6.811  16.716  1.00  0.00     0.147 A 
ENDROOT
BRANCH   5   8
HETATM    8  S1  UNL     1      15.588  -3.376  14.848  1.00  0.00    -0.091 SA
BRANCH   8   9
HETATM    9  C4  UNL     1      15.407  -3.811  13.100  1.00  0.00     0.092 C 
BRANCH   9  10
HETATM   10  C5  UNL     1      14.148  -3.235  12.501  1.00  0.00    -0.030 C 
HETATM   11  C6  UNL     1      13.713  -2.082  13.381  1.00  0.00     0.015 C 
HETATM   12  C7  UNL     1      12.464  -1.456  12.807  1.00  0.00    -0.013 C 
HETATM   13  C8  UNL     1      12.838  -0.892  11.443  1.00  0.00     0.009 C 
HETATM   14  C12 UNL     1      11.366  -2.470  12.696  1.00  0.00     0.009 C 
HETATM   15  C9  UNL     1      13.292  -2.012  10.554  1.00  0.00    -0.013 C 
HETATM   16  C10 UNL     1      12.152  -3.005  10.441  1.00  0.00     0.009 C 
HETATM   17  C14 UNL     1      14.502  -2.668  11.151  1.00  0.00     0.015 C 
HETATM   18  C11 UNL     1      11.840  -3.598  11.775  1.00  0.00    -0.013 C 
HETATM   19  C13 UNL     1      13.032  -4.224  12.453  1.00  0.00     0.015 C 
ENDBRANCH   9  10
ENDBRANCH   8   9
ENDBRANCH   5   8
BRANCH   6  20
HETATM   20  N3  UNL     1      13.701  -5.772  15.691  1.00  0.00    -0.335 N 
ATOM     21  H32 UNL     1      12.883  -5.789  16.300  1.00  0.00     0.177 HD
ATOM     22  H31 UNL     1      13.360  -5.709  14.731  1.00  0.00     0.177 HD
ENDBRANCH   6  20
BRANCH   7  23
HETATM   23  N4  UNL     1      15.171  -8.019  17.221  1.00  0.00    -0.369 N 
ATOM     24  H4  UNL     1      14.668  -7.957  18.107  1.00  0.00     0.161 HD
BRANCH  23  25
HETATM   25  C16 UNL     1      15.262  -9.319  16.639  1.00  0.00     0.075 C 
HETATM   26  C17 UNL     1      14.770  -9.261  15.198  1.00  0.00     0.031 C 
HETATM   27  C18 UNL     1      14.383 -10.317  17.366  1.00  0.00     0.031 C 
ENDBRANCH  23  25
ENDBRANCH   7  23
TORSDOF 6
ENDMDL
MODEL 2
REMARK VINA RESULT: -7.402066489      0.145      1.522
REMARK  6 active torsions:
REMARK  status: ('A' for Active; 'I' for Inactive)
REMARK    1  A    between atoms: C3_5  and  S1_6 
REMARK    2  A    between atoms: S1_6  and  C4_7 
REMARK    3  A    between atoms: C4_7  and  C5_8 
REMARK    4  A    between atoms: N2_18  and  N3_19 
REMARK    5  A    between atoms: C15_22  and  N4_23 
REMARK    6  A    between atoms: N4_23  and  C16_25 
ROOT
HETATM    1  C1  UNL     1      18.193  -7.281  17.550  1.00  0.00     0.072 C 
HETATM    2  C2  UNL     1      17.108  -6.505  16.901  1.00  0.00     0.053 A 
HETATM    3  N1  UNL     1      17.228  -5.335  16.258  1.00  0.00    -0.336 N 
ATOM      4  H1  UNL     1      18.103  -4.826  16.134  1.00  0.00     0.168 HD
HETATM    5  C3  UNL     1      16.036  -4.929  15.800  1.00  0.00     0.167 A 
HETATM    6  N2  UNL     1      15.103  -5.866  16.156  1.00  0.00    -0.222 N 
HETATM    7  C15 UNL     1      15.750  -6.834  16.832  1.00  0.00     0.147 A 
ENDROOT
BRANCH   5   8
HETATM    8  S1  UNL     1      15.646  -3.445  14.881  1.00  0.00    -0.091 SA
BRANCH   8   9
HETATM    9  C4  UNL     1      15.424  -3.919  13.147  1.00  0.00     0.092 C 
BRANCH   9  10
HETATM   10  C5  UNL     1      14.234  -3.235  12.522  1.00  0.00    -0.030 C 
HETATM   11  C6  UNL     1      13.092  -4.229  12.510  1.00  0.00     0.015 C 
HETATM   12  C7  UNL     1      11.867  -3.581  11.911  1.00  0.00    -0.013 C 
HETATM   13  C8  UNL     1      11.480  -2.430  12.831  1.00  0.00     0.009 C 
HETATM   14  C12 UNL     1      12.151  -3.096  10.521  1.00  0.00     0.009 C 
HETATM   15  C9  UNL     1      12.604  -1.437  12.877  1.00  0.00    -0.013 C 
HETATM   16  C10 UNL     1      12.847  -0.948  11.463  1.00  0.00     0.009 C 
HETATM   17  C14 UNL     1      13.836  -2.096  13.423  1.00  0.00     0.015 C 
HETATM   18  C11 UNL     1      13.288  -2.073  10.587  1.00  0.00    -0.013 C 
HETATM   19  C13 UNL     1      14.492  -2.813  11.114  1.00  0.00     0.015 C 
ENDBRANCH   9  10
ENDBRANCH   8   9
ENDBRANCH   5   8
BRANCH   6  20
HETATM   20  N3  UNL     1      13.745  -5.788  15.836  1.00  0.00    -0.335 N 
ATOM     21  H32 UNL     1      13.031  -5.187  16.248  1.00  0.00     0.177 HD
ATOM     22  H31 UNL     1      13.287  -6.360  15.127  1.00  0.00     0.177 HD
ENDBRANCH   6  20
BRANCH   7  23
HETATM   23  N4  UNL     1      15.222  -8.020  17.382  1.00  0.00    -0.369 N 
ATOM     24  H4  UNL     1      14.705  -7.920  18.256  1.00  0.00     0.161 HD
BRANCH  23  25
HETATM   25  C16 UNL     1      15.327  -9.345  16.861  1.00  0.00     0.075 C 
HETATM   26  C17 UNL     1      14.867  -9.352  15.408  1.00  0.00     0.031 C 
HETATM   27  C18 UNL     1      14.433 -10.311  17.613  1.00  0.00     0.031 C 
ENDBRANCH  23  25
ENDBRANCH   7  23
TORSDOF 6
ENDMDL
MODEL 3
REMARK VINA RESULT: -7.233221910      0.181      1.572
REMARK  6 active torsions:
REMARK  status: ('A' for Active; 'I' for Inactive)
REMARK    1  A    between atoms: C3_5  and  S1_6 
REMARK    2  A    between atoms: S1_6  and  C4_7 
REMARK    3  A    between atoms: C4_7  and  C5_8 
REMARK    4  A    between atoms: N2_18  and  N3_19 
REMARK    5  A    between atoms: C15_22  and  N4_23 
REMARK    6  A    between atoms: N4_23  and  C16_25 
ROOT
HETATM    1  C1  UNL     1      18.203  -7.358  17.518  1.00  0.00     0.072 C 
HETATM    2  C2  UNL     1      17.121  -6.567  16.883  1.00  0.00     0.053 A 
HETATM    3  N1  UNL     1      17.252  -5.410  16.218  1.00  0.00    -0.336 N 
ATOM      4  H1  UNL     1      18.136  -4.923  16.066  1.00  0.00     0.168 HD
HETATM    5  C3  UNL     1      16.059  -4.983  15.781  1.00  0.00     0.167 A 
HETATM    6  N2  UNL     1      15.115  -5.893  16.174  1.00  0.00    -0.222 N 
HETATM    7  C15 UNL     1      15.754  -6.866  16.850  1.00  0.00     0.147 A 
ENDROOT
BRANCH   5   8
HETATM    8  S1  UNL     1      15.682  -3.505  14.848  1.00  0.00    -0.091 SA
BRANCH   8   9
HETATM    9  C4  UNL     1      15.284  -4.014  13.157  1.00  0.00     0.092 C 
BRANCH   9  10
HETATM   10  C5  UNL     1      14.093  -3.270  12.607  1.00  0.00    -0.030 C 
HETATM   11  C6  UNL     1      14.443  -2.824  11.203  1.00  0.00     0.015 C 
HETATM   12  C7  UNL     1      13.269  -2.090  10.601  1.00  0.00    -0.013 C 
HETATM   13  C8  UNL     1      12.124  -3.091  10.505  1.00  0.00     0.009 C 
HETATM   14  C12 UNL     1      12.893  -0.910  11.445  1.00  0.00     0.009 C 
HETATM   15  C9  UNL     1      11.768  -3.565  11.883  1.00  0.00    -0.013 C 
HETATM   16  C10 UNL     1      11.367  -2.353  12.701  1.00  0.00     0.009 C 
HETATM   17  C14 UNL     1      12.952  -4.248  12.502  1.00  0.00     0.015 C 
HETATM   18  C11 UNL     1      12.518  -1.412  12.842  1.00  0.00    -0.013 C 
HETATM   19  C13 UNL     1      13.759  -2.055  13.407  1.00  0.00     0.015 C 
ENDBRANCH   9  10
ENDBRANCH   8   9
ENDBRANCH   5   8
BRANCH   6  20
HETATM   20  N3  UNL     1      13.751  -5.788  15.885  1.00  0.00    -0.335 N 
ATOM     21  H32 UNL     1      13.257  -5.021  15.431  1.00  0.00     0.177 HD
ATOM     22  H31 UNL     1      13.057  -6.499  16.117  1.00  0.00     0.177 HD
ENDBRANCH   6  20
BRANCH   7  23
HETATM   23  N4  UNL     1      15.213  -8.030  17.431  1.00  0.00    -0.369 N 
ATOM     24  H4  UNL     1      14.709  -7.903  18.309  1.00  0.00     0.161 HD
BRANCH  23  25
HETATM   25  C16 UNL     1      15.287  -9.367  16.936  1.00  0.00     0.075 C 
HETATM   26  C17 UNL     1      14.804  -9.395  15.491  1.00  0.00     0.031 C 
HETATM   27  C18 UNL     1      14.388 -10.301  17.721  1.00  0.00     0.031 C 
ENDBRANCH  23  25
ENDBRANCH   7  23
TORSDOF 6
ENDMDL
MODEL 4
REMARK VINA RESULT: -7.191446090      1.360      2.530
REMARK  6 active torsions:
REMARK  status: ('A' for Active; 'I' for Inactive)
REMARK    1  A    between atoms: C3_5  and  S1_6 
REMARK    2  A    between atoms: S1_6  and  C4_7 
REMARK    3  A    between atoms: C4_7  and  C5_8 
REMARK    4  A    between atoms: N2_18  and  N3_19 
REMARK    5  A    between atoms: C15_22  and  N4_23 
REMARK    6  A    between atoms: N4_23  and  C16_25 
ROOT
HETATM    1  C1  UNL     1      14.822  -8.435  14.920  1.00  0.00     0.072 C 
HETATM    2  C2  UNL     1      15.233  -7.010  14.905  1.00  0.00     0.053 A 
HETATM    3  N1  UNL     1      15.816  -6.350  13.893  1.00  0.00    -0.336 N 
ATOM      4  H1  UNL     1      16.053  -6.761  12.990  1.00  0.00     0.168 HD
HETATM    5  C3  UNL     1      16.045  -5.075  14.237  1.00  0.00     0.167 A 
HETATM    6  N2  UNL     1      15.594  -4.894  15.517  1.00  0.00    -0.222 N 
HETATM    7  C15 UNL     1      15.097  -6.073  15.935  1.00  0.00     0.147 A 
ENDROOT
BRANCH   5   8
HETATM    8  S1  UNL     1      16.795  -3.779  13.260  1.00  0.00    -0.091 SA
BRANCH   8   9
HETATM    9  C4  UNL     1      15.940  -3.733  11.665  1.00  0.00     0.092 C 
BRANCH   9  10
HETATM   10  C5  UNL     1      14.571  -3.109  11.774  1.00  0.00    -0.030 C 
HETATM   11  C6  UNL     1      14.339  -2.297  10.518  1.00  0.00     0.015 C 
HETATM   12  C7  UNL     1      12.967  -1.669  10.571  1.00  0.00    -0.013 C 
HETATM   13  C8  UNL     1      11.958  -2.810  10.587  1.00  0.00     0.009 C 
HETATM   14  C12 UNL     1      12.829  -0.801  11.786  1.00  0.00     0.009 C 
HETATM   15  C9  UNL     1      12.177  -3.644  11.815  1.00  0.00    -0.013 C 
HETATM   16  C10 UNL     1      12.005  -2.745  13.023  1.00  0.00     0.009 C 
HETATM   17  C14 UNL     1      13.561  -4.226  11.787  1.00  0.00     0.015 C 
HETATM   18  C11 UNL     1      13.041  -1.670  13.029  1.00  0.00    -0.013 C 
HETATM   19  C13 UNL     1      14.453  -2.191  12.945  1.00  0.00     0.015 C 
ENDBRANCH   9  10
ENDBRANCH   8   9
ENDBRANCH   5   8
BRANCH   6  20
HETATM   20  N3  UNL     1      15.652  -3.681  16.209  1.00  0.00    -0.335 N 
ATOM     21  H32 UNL     1      16.448  -3.053  16.323  1.00  0.00     0.177 HD
ATOM     22  H31 UNL     1      14.867  -3.269  16.715  1.00  0.00     0.177 HD
ENDBRANCH   6  20
BRANCH   7  23
HETATM   23  N4  UNL     1      14.500  -6.382  17.174  1.00  0.00    -0.369 N 
ATOM     24  H4  UNL     1      13.488  -6.269  17.227  1.00  0.00     0.161 HD
BRANCH  23  25
HETATM   25  C16 UNL     1      15.146  -6.835  18.364  1.00  0.00     0.075 C 
HETATM   26  C17 UNL     1      16.650  -6.626  18.231  1.00  0.00     0.031 C 
HETATM   27  C18 UNL     1      14.924  -8.318  18.587  1.00  0.00     0.031 C 
ENDBRANCH  23  25
ENDBRANCH   7  23
TORSDOF 6
ENDMDL
MODEL 5
REMARK VINA RESULT: -7.145428404      1.351      2.271
REMARK  6 active torsions:
REMARK  status: ('A' for Active; 'I' for Inactive)
REMARK    1  A    between atoms: C3_5  and  S1_6 
REMARK    2  A    between atoms: S1_6  and  C4_7 
REMARK    3  A    between atoms: C4_7  and  C5_8 
REMARK    4  A    between atoms: N2_18  and  N3_19 
REMARK    5  A    between atoms: C15_22  and  N4_23 
REMARK    6  A    between atoms: N4_23  and  C16_25 
ROOT
HETATM    1  C1  UNL     1      16.873  -9.135  13.627  1.00  0.00     0.072 C 
HETATM    2  C2  UNL     1      16.247  -7.896  14.149  1.00  0.00     0.053 A 
HETATM    3  N1  UNL     1      16.527  -6.636  13.785  1.00  0.00    -0.336 N 
ATOM      4  H1  UNL     1      17.221  -6.373  13.085  1.00  0.00     0.168 HD
HETATM    5  C3  UNL     1      15.764  -5.771  14.468  1.00  0.00     0.167 A 
HETATM    6  N2  UNL     1      14.958  -6.490  15.309  1.00  0.00    -0.222 N 
HETATM    7  C15 UNL     1      15.247  -7.792  15.122  1.00  0.00     0.147 A 
ENDROOT
BRANCH   5   8
HETATM    8  S1  UNL     1      15.741  -3.987  14.361  1.00  0.00    -0.091 SA
BRANCH   8   9
HETATM    9  C4  UNL     1      15.765  -3.544  12.605  1.00  0.00     0.092 C 
BRANCH   9  10
HETATM   10  C5  UNL     1      14.456  -2.943  12.156  1.00  0.00    -0.030 C 
HETATM   11  C6  UNL     1      13.451  -4.070  12.047  1.00  0.00     0.015 C 
HETATM   12  C7  UNL     1      12.114  -3.512  11.620  1.00  0.00    -0.013 C 
HETATM   13  C8  UNL     1      11.652  -2.574  12.728  1.00  0.00     0.009 C 
HETATM   14  C12 UNL     1      12.235  -2.792  10.311  1.00  0.00     0.009 C 
HETATM   15  C9  UNL     1      12.641  -1.455  12.871  1.00  0.00    -0.013 C 
HETATM   16  C10 UNL     1      12.719  -0.733  11.541  1.00  0.00     0.009 C 
HETATM   17  C14 UNL     1      13.983  -2.015  13.244  1.00  0.00     0.015 C 
HETATM   18  C11 UNL     1      13.236  -1.646  10.479  1.00  0.00    -0.013 C 
HETATM   19  C13 UNL     1      14.558  -2.285  10.821  1.00  0.00     0.015 C 
ENDBRANCH   9  10
ENDBRANCH   8   9
ENDBRANCH   5   8
BRANCH   6  20
HETATM   20  N3  UNL     1      14.014  -5.925  16.170  1.00  0.00    -0.335 N 
ATOM     21  H32 UNL     1      13.778  -6.204  17.123  1.00  0.00     0.177 HD
ATOM     22  H31 UNL     1      13.415  -5.135  15.930  1.00  0.00     0.177 HD
ENDBRANCH   6  20
BRANCH   7  23
HETATM   23  N4  UNL     1      14.665  -8.916  15.743  1.00  0.00    -0.369 N 
ATOM     24  H4  UNL     1      13.770  -9.226  15.365  1.00  0.00     0.161 HD
BRANCH  23  25
HETATM   25  C16 UNL     1      15.182  -9.671  16.839  1.00  0.00     0.075 C 
HETATM   26  C17 UNL     1      14.227 -10.814  17.157  1.00  0.00     0.031 C 
HETATM   27  C18 UNL     1      15.295  -8.826  18.092  1.00  0.00     0.031 C 
ENDBRANCH  23  25
ENDBRANCH   7  23
TORSDOF 6
ENDMDL
