MODEL 1
REMARK VINA RESULT: -7.595713428      0.000      0.000
REMARK  9 active torsions:
REMARK  status: ('A' for Active; 'I' for Inactive)
REMARK    1  A    between atoms: C3_5  and  C4_6 
REMARK    2  A    between atoms: C4_6  and  N2_7 
REMARK    3  A    between atoms: N2_7  and  N3_9 
REMARK    4  A    between atoms: N3_9  and  N4_10 
REMARK    5  A    between atoms: C9_20  and  N6_21 
REMARK       I    between atoms: N6_21  and  C10_23 
REMARK    6  A    between atoms: C10_23  and  C11_25 
REMARK    7  A    between atoms: C11_25  and  C12_26 
REMARK    8  A    between atoms: C13_28  and  N7_29 
REMARK    9  A    between atoms: N7_29  and  N8_30 
ROOT
HETATM    1  C1  UNL     1      -7.341  23.515   4.348  1.00  0.00     0.360 C 
HETATM    2  N1  UNL     1      -6.816  23.320   5.690  1.00  0.00     0.052 N 
HETATM    3  O1  UNL     1      -7.910  23.028   6.470  1.00  0.00    -0.062 OA
HETATM    4  C2  UNL     1      -6.233  24.583   6.081  1.00  0.00     0.323 C 
HETATM    5  C3  UNL     1      -5.325  24.507   7.250  1.00  0.00     0.066 C 
HETATM    6  C5  UNL     1      -4.532  23.243   7.352  1.00  0.00     0.245 C 
HETATM    7  N5  UNL     1      -4.539  22.613   6.041  1.00  0.00    -0.025 N 
ATOM      8  H51 UNL     1      -3.869  21.849   5.952  1.00  0.00     0.281 HD
ATOM      9  H52 UNL     1      -4.150  23.202   5.303  1.00  0.00     0.281 HD
HETATM   10  C6  UNL     1      -5.925  22.209   5.797  1.00  0.00     0.396 C 
HETATM   11  C7  UNL     1      -6.287  21.292   6.973  1.00  0.00     0.090 C 
HETATM   12  C8  UNL     1      -7.176  20.219   6.412  1.00  0.00     0.038 C 
HETATM   13  C9  UNL     1      -6.607  19.994   5.024  1.00  0.00     0.152 C 
HETATM   14  C13 UNL     1      -5.990  21.273   4.647  1.00  0.00     0.181 C 
ENDROOT
BRANCH  14  15
HETATM   15  N7  UNL     1      -5.568  21.552   3.503  1.00  0.00    -0.335 NA
BRANCH  15  16
HETATM   16  N8  UNL     1      -5.226  21.616   2.303  1.00  0.00    -0.280 N 
ATOM     17  H82 UNL     1      -5.661  22.536   2.239  1.00  0.00     0.191 HD
ATOM     18  H81 UNL     1      -4.871  21.496   1.354  1.00  0.00     0.191 HD
ENDBRANCH  15  16
ENDBRANCH  14  15
BRANCH  13  19
HETATM   19  N6  UNL     1      -7.711  19.615   4.163  1.00  0.00    -0.350 N 
HETATM   20  C10 UNL     1      -7.824  18.375   3.527  1.00  0.00     0.219 C 
HETATM   21  O2  UNL     1      -6.921  17.523   3.704  1.00  0.00    -0.274 OA
ATOM     22  H6  UNL     1      -8.453  20.298   4.011  1.00  0.00     0.163 HD
BRANCH  20  23
HETATM   23  C11 UNL     1      -8.999  18.095   2.667  1.00  0.00     0.117 C 
BRANCH  23  24
HETATM   24  C12 UNL     1      -9.434  16.665   2.906  1.00  0.00     0.124 C 
HETATM   25 CL1  UNL     1     -10.533  16.544   4.288  1.00  0.00    -0.130 Cl
ENDBRANCH  23  24
ENDBRANCH  20  23
ENDBRANCH  13  19
BRANCH   5  26
HETATM   26  C4  UNL     1      -6.096  24.824   8.524  1.00  0.00     0.164 C 
BRANCH  26  27
HETATM   27  N2  UNL     1      -5.283  24.510   9.684  1.00  0.00    -0.252 N 
ATOM     28  H2  UNL     1      -4.622  23.735   9.620  1.00  0.00     0.196 HD
BRANCH  27  29
HETATM   29  N3  UNL     1      -5.352  25.134  10.737  1.00  0.00    -0.249 NA
BRANCH  29  30
HETATM   30  N4  UNL     1      -5.408  25.552  11.886  1.00  0.00    -0.261 N 
ATOM     31  H42 UNL     1      -4.568  26.104  11.711  1.00  0.00     0.193 HD
ATOM     32  H41 UNL     1      -5.608  25.793  12.856  1.00  0.00     0.193 HD
ENDBRANCH  29  30
ENDBRANCH  27  29
ENDBRANCH  26  27
ENDBRANCH   5  26
TORSDOF 9
ENDMDL
MODEL 2
REMARK VINA RESULT: -7.038900512      1.714      2.389
REMARK  9 active torsions:
REMARK  status: ('A' for Active; 'I' for Inactive)
REMARK    1  A    between atoms: C3_5  and  C4_6 
REMARK    2  A    between atoms: C4_6  and  N2_7 
REMARK    3  A    between atoms: N2_7  and  N3_9 
REMARK    4  A    between atoms: N3_9  and  N4_10 
REMARK    5  A    between atoms: C9_20  and  N6_21 
REMARK       I    between atoms: N6_21  and  C10_23 
REMARK    6  A    between atoms: C10_23  and  C11_25 
REMARK    7  A    between atoms: C11_25  and  C12_26 
REMARK    8  A    between atoms: C13_28  and  N7_29 
REMARK    9  A    between atoms: N7_29  and  N8_30 
ROOT
HETATM    1  C1  UNL     1      -7.950  22.353   7.287  1.00  0.00     0.360 C 
HETATM    2  N1  UNL     1      -6.837  23.261   7.058  1.00  0.00     0.052 N 
HETATM    3  O1  UNL     1      -5.726  22.598   7.520  1.00  0.00    -0.062 OA
HETATM    4  C2  UNL     1      -7.103  24.433   7.861  1.00  0.00     0.323 C 
HETATM    5  C3  UNL     1      -6.297  25.623   7.500  1.00  0.00     0.066 C 
HETATM    6  C5  UNL     1      -5.987  25.758   6.044  1.00  0.00     0.245 C 
HETATM    7  N5  UNL     1      -6.930  24.924   5.315  1.00  0.00    -0.025 N 
ATOM      8  H51 UNL     1      -6.931  25.093   4.309  1.00  0.00     0.281 HD
ATOM      9  H52 UNL     1      -7.906  25.170   5.482  1.00  0.00     0.281 HD
HETATM   10  C6  UNL     1      -6.606  23.542   5.676  1.00  0.00     0.396 C 
HETATM   11  C7  UNL     1      -5.131  23.364   5.293  1.00  0.00     0.090 C 
HETATM   12  C8  UNL     1      -4.996  21.957   4.783  1.00  0.00     0.038 C 
HETATM   13  C9  UNL     1      -6.315  21.722   4.073  1.00  0.00     0.152 C 
HETATM   14  C13 UNL     1      -7.281  22.599   4.750  1.00  0.00     0.181 C 
ENDROOT
BRANCH  14  15
HETATM   15  N7  UNL     1      -8.518  22.566   4.576  1.00  0.00    -0.335 NA
BRANCH  15  16
HETATM   16  N8  UNL     1      -9.702  22.537   4.174  1.00  0.00    -0.280 N 
ATOM     17  H82 UNL     1      -9.477  21.719   3.607  1.00  0.00     0.191 HD
ATOM     18  H81 UNL     1     -10.690  22.667   3.957  1.00  0.00     0.191 HD
ENDBRANCH  15  16
ENDBRANCH  14  15
BRANCH  13  19
HETATM   19  N6  UNL     1      -6.631  20.312   4.208  1.00  0.00    -0.350 N 
HETATM   20  C10 UNL     1      -6.451  19.365   3.196  1.00  0.00     0.219 C 
HETATM   21  O2  UNL     1      -5.987  19.742   2.094  1.00  0.00    -0.274 OA
ATOM     22  H6  UNL     1      -7.009  19.992   5.099  1.00  0.00     0.163 HD
BRANCH  20  23
HETATM   23  C11 UNL     1      -6.809  17.947   3.445  1.00  0.00     0.117 C 
BRANCH  23  24
HETATM   24  C12 UNL     1      -8.263  17.751   3.074  1.00  0.00     0.124 C 
HETATM   25 CL1  UNL     1      -9.333  18.101   4.439  1.00  0.00    -0.130 Cl
ENDBRANCH  23  24
ENDBRANCH  20  23
ENDBRANCH  13  19
BRANCH   5  26
HETATM   26  C4  UNL     1      -5.053  25.688   8.376  1.00  0.00     0.164 C 
BRANCH  26  27
HETATM   27  N2  UNL     1      -5.185  24.764   9.487  1.00  0.00    -0.252 N 
ATOM     28  H2  UNL     1      -5.231  23.764   9.286  1.00  0.00     0.196 HD
BRANCH  27  29
HETATM   29  N3  UNL     1      -5.243  25.128  10.657  1.00  0.00    -0.249 NA
BRANCH  29  30
HETATM   30  N4  UNL     1      -5.510  25.562  11.770  1.00  0.00    -0.261 N 
ATOM     31  H42 UNL     1      -6.482  25.288  11.628  1.00  0.00     0.193 HD
ATOM     32  H41 UNL     1      -5.549  25.967  12.704  1.00  0.00     0.193 HD
ENDBRANCH  29  30
ENDBRANCH  27  29
ENDBRANCH  26  27
ENDBRANCH   5  26
TORSDOF 9
ENDMDL
MODEL 3
REMARK VINA RESULT: -7.038043246      1.005      1.123
REMARK  9 active torsions:
REMARK  status: ('A' for Active; 'I' for Inactive)
REMARK    1  A    between atoms: C3_5  and  C4_6 
REMARK    2  A    between atoms: C4_6  and  N2_7 
REMARK    3  A    between atoms: N2_7  and  N3_9 
REMARK    4  A    between atoms: N3_9  and  N4_10 
REMARK    5  A    between atoms: C9_20  and  N6_21 
REMARK       I    between atoms: N6_21  and  C10_23 
REMARK    6  A    between atoms: C10_23  and  C11_25 
REMARK    7  A    between atoms: C11_25  and  C12_26 
REMARK    8  A    between atoms: C13_28  and  N7_29 
REMARK    9  A    between atoms: N7_29  and  N8_30 
ROOT
HETATM    1  C1  UNL     1      -7.589  23.327   4.217  1.00  0.00     0.360 C 
HETATM    2  N1  UNL     1      -7.012  23.265   5.551  1.00  0.00     0.052 N 
HETATM    3  O1  UNL     1      -8.046  22.892   6.376  1.00  0.00    -0.062 OA
HETATM    4  C2  UNL     1      -6.570  24.605   5.861  1.00  0.00     0.323 C 
HETATM    5  C3  UNL     1      -5.631  24.696   7.004  1.00  0.00     0.066 C 
HETATM    6  C5  UNL     1      -4.696  23.538   7.145  1.00  0.00     0.245 C 
HETATM    7  N5  UNL     1      -4.661  22.842   5.867  1.00  0.00    -0.025 N 
ATOM      8  H51 UNL     1      -3.910  22.156   5.798  1.00  0.00     0.281 HD
ATOM      9  H52 UNL     1      -4.361  23.432   5.090  1.00  0.00     0.281 HD
HETATM   10  C6  UNL     1      -5.997  22.270   5.686  1.00  0.00     0.396 C 
HETATM   11  C7  UNL     1      -6.222  21.382   6.917  1.00  0.00     0.090 C 
HETATM   12  C8  UNL     1      -6.994  20.186   6.437  1.00  0.00     0.038 C 
HETATM   13  C9  UNL     1      -6.437  19.954   5.046  1.00  0.00     0.152 C 
HETATM   14  C13 UNL     1      -5.981  21.273   4.587  1.00  0.00     0.181 C 
ENDROOT
BRANCH  14  15
HETATM   15  N7  UNL     1      -5.622  21.536   3.419  1.00  0.00    -0.335 NA
BRANCH  15  16
HETATM   16  N8  UNL     1      -5.322  21.577   2.206  1.00  0.00    -0.280 N 
ATOM     17  H82 UNL     1      -4.503  21.001   2.400  1.00  0.00     0.191 HD
ATOM     18  H81 UNL     1      -5.236  21.717   1.199  1.00  0.00     0.191 HD
ENDBRANCH  15  16
ENDBRANCH  14  15
BRANCH  13  19
HETATM   19  N6  UNL     1      -7.510  19.406   4.238  1.00  0.00    -0.350 N 
HETATM   20  C10 UNL     1      -7.419  18.216   3.511  1.00  0.00     0.219 C 
HETATM   21  O2  UNL     1      -6.347  17.566   3.549  1.00  0.00    -0.274 OA
ATOM     22  H6  UNL     1      -8.388  19.924   4.198  1.00  0.00     0.163 HD
BRANCH  20  23
HETATM   23  C11 UNL     1      -8.582  17.749   2.718  1.00  0.00     0.117 C 
BRANCH  23  24
HETATM   24  C12 UNL     1      -9.847  18.142   3.452  1.00  0.00     0.124 C 
HETATM   25 CL1  UNL     1     -10.566  16.758   4.289  1.00  0.00    -0.130 Cl
ENDBRANCH  23  24
ENDBRANCH  20  23
ENDBRANCH  13  19
BRANCH   5  26
HETATM   26  C4  UNL     1      -6.403  24.990   8.282  1.00  0.00     0.164 C 
BRANCH  26  27
HETATM   27  N2  UNL     1      -5.590  25.795   9.175  1.00  0.00    -0.252 N 
ATOM     28  H2  UNL     1      -5.528  25.522  10.156  1.00  0.00     0.196 HD
BRANCH  27  29
HETATM   29  N3  UNL     1      -4.974  26.789   8.804  1.00  0.00    -0.249 NA
BRANCH  29  30
HETATM   30  N4  UNL     1      -4.405  27.860   8.641  1.00  0.00    -0.261 N 
ATOM     31  H42 UNL     1      -4.782  28.180   9.534  1.00  0.00     0.193 HD
ATOM     32  H41 UNL     1      -3.872  28.677   8.344  1.00  0.00     0.193 HD
ENDBRANCH  29  30
ENDBRANCH  27  29
ENDBRANCH  26  27
ENDBRANCH   5  26
TORSDOF 9
ENDMDL
MODEL 4
REMARK VINA RESULT: -6.793202933      2.236      2.814
REMARK  9 active torsions:
REMARK  status: ('A' for Active; 'I' for Inactive)
REMARK    1  A    between atoms: C3_5  and  C4_6 
REMARK    2  A    between atoms: C4_6  and  N2_7 
REMARK    3  A    between atoms: N2_7  and  N3_9 
REMARK    4  A    between atoms: N3_9  and  N4_10 
REMARK    5  A    between atoms: C9_20  and  N6_21 
REMARK       I    between atoms: N6_21  and  C10_23 
REMARK    6  A    between atoms: C10_23  and  C11_25 
REMARK    7  A    between atoms: C11_25  and  C12_26 
REMARK    8  A    between atoms: C13_28  and  N7_29 
REMARK    9  A    between atoms: N7_29  and  N8_30 
ROOT
HETATM    1  C1  UNL     1      -7.898  22.456   7.164  1.00  0.00     0.360 C 
HETATM    2  N1  UNL     1      -6.791  23.338   6.825  1.00  0.00     0.052 N 
HETATM    3  O1  UNL     1      -5.661  22.684   7.254  1.00  0.00    -0.062 OA
HETATM    4  C2  UNL     1      -6.998  24.551   7.583  1.00  0.00     0.323 C 
HETATM    5  C3  UNL     1      -6.203  25.712   7.116  1.00  0.00     0.066 C 
HETATM    6  C5  UNL     1      -5.979  25.770   5.639  1.00  0.00     0.245 C 
HETATM    7  N5  UNL     1      -6.971  24.913   5.009  1.00  0.00    -0.025 N 
ATOM      8  H51 UNL     1      -7.030  25.031   3.998  1.00  0.00     0.281 HD
ATOM      9  H52 UNL     1      -7.933  25.179   5.220  1.00  0.00     0.281 HD
HETATM   10  C6  UNL     1      -6.639  23.547   5.420  1.00  0.00     0.396 C 
HETATM   11  C7  UNL     1      -5.191  23.332   4.961  1.00  0.00     0.090 C 
HETATM   12  C8  UNL     1      -5.100  21.900   4.515  1.00  0.00     0.038 C 
HETATM   13  C9  UNL     1      -6.461  21.645   3.896  1.00  0.00     0.152 C 
HETATM   14  C13 UNL     1      -7.376  22.567   4.583  1.00  0.00     0.181 C 
ENDROOT
BRANCH  14  15
HETATM   15  N7  UNL     1      -8.622  22.541   4.484  1.00  0.00    -0.335 NA
BRANCH  15  16
HETATM   16  N8  UNL     1      -9.827  22.498   4.154  1.00  0.00    -0.280 N 
ATOM     17  H82 UNL     1     -10.023  23.250   4.814  1.00  0.00     0.191 HD
ATOM     18  H81 UNL     1     -10.754  22.324   3.766  1.00  0.00     0.191 HD
ENDBRANCH  15  16
ENDBRANCH  14  15
BRANCH  13  19
HETATM   19  N6  UNL     1      -6.781  20.248   4.120  1.00  0.00    -0.350 N 
HETATM   20  C10 UNL     1      -6.524  19.225   3.203  1.00  0.00     0.219 C 
HETATM   21  O2  UNL     1      -5.981  19.517   2.111  1.00  0.00    -0.274 OA
ATOM     22  H6  UNL     1      -7.223  19.997   5.004  1.00  0.00     0.163 HD
BRANCH  20  23
HETATM   23  C11 UNL     1      -6.895  17.829   3.538  1.00  0.00     0.117 C 
BRANCH  23  24
HETATM   24  C12 UNL     1      -8.325  17.597   3.098  1.00  0.00     0.124 C 
HETATM   25 CL1  UNL     1      -9.469  17.962   4.398  1.00  0.00    -0.130 Cl
ENDBRANCH  23  24
ENDBRANCH  20  23
ENDBRANCH  13  19
BRANCH   5  26
HETATM   26  C4  UNL     1      -4.910  25.805   7.914  1.00  0.00     0.164 C 
BRANCH  26  27
HETATM   27  N2  UNL     1      -3.815  25.246   7.143  1.00  0.00    -0.252 N 
ATOM     28  H2  UNL     1      -3.568  25.688   6.257  1.00  0.00     0.196 HD
BRANCH  27  29
HETATM   29  N3  UNL     1      -3.172  24.267   7.507  1.00  0.00    -0.249 NA
BRANCH  29  30
HETATM   30  N4  UNL     1      -2.733  23.201   7.919  1.00  0.00    -0.261 N 
ATOM     31  H42 UNL     1      -3.349  23.277   8.729  1.00  0.00     0.193 HD
ATOM     32  H41 UNL     1      -2.262  22.317   8.107  1.00  0.00     0.193 HD
ENDBRANCH  29  30
ENDBRANCH  27  29
ENDBRANCH  26  27
ENDBRANCH   5  26
TORSDOF 9
ENDMDL
MODEL 5
REMARK VINA RESULT: -6.685937735      4.191      8.193
REMARK  9 active torsions:
REMARK  status: ('A' for Active; 'I' for Inactive)
REMARK    1  A    between atoms: C3_5  and  C4_6 
REMARK    2  A    between atoms: C4_6  and  N2_7 
REMARK    3  A    between atoms: N2_7  and  N3_9 
REMARK    4  A    between atoms: N3_9  and  N4_10 
REMARK    5  A    between atoms: C9_20  and  N6_21 
REMARK       I    between atoms: N6_21  and  C10_23 
REMARK    6  A    between atoms: C10_23  and  C11_25 
REMARK    7  A    between atoms: C11_25  and  C12_26 
REMARK    8  A    between atoms: C13_28  and  N7_29 
REMARK    9  A    between atoms: N7_29  and  N8_30 
ROOT
HETATM    1  C1  UNL     1      -7.361  23.479   8.653  1.00  0.00     0.360 C 
HETATM    2  N1  UNL     1      -6.653  23.463   7.383  1.00  0.00     0.052 N 
HETATM    3  O1  UNL     1      -7.479  24.115   6.498  1.00  0.00    -0.062 OA
HETATM    4  C2  UNL     1      -6.512  22.072   7.019  1.00  0.00     0.323 C 
HETATM    5  C3  UNL     1      -5.509  21.811   5.959  1.00  0.00     0.066 C 
HETATM    6  C5  UNL     1      -4.317  22.712   5.983  1.00  0.00     0.245 C 
HETATM    7  N5  UNL     1      -4.249  23.316   7.305  1.00  0.00    -0.025 N 
ATOM      8  H51 UNL     1      -3.367  23.796   7.489  1.00  0.00     0.281 HD
ATOM      9  H52 UNL     1      -4.178  22.635   8.061  1.00  0.00     0.281 HD
HETATM   10  C6  UNL     1      -5.422  24.187   7.409  1.00  0.00     0.396 C 
HETATM   11  C7  UNL     1      -5.303  25.161   6.228  1.00  0.00     0.090 C 
HETATM   12  C8  UNL     1      -5.814  26.484   6.723  1.00  0.00     0.038 C 
HETATM   13  C9  UNL     1      -5.363  26.507   8.170  1.00  0.00     0.152 C 
HETATM   14  C13 UNL     1      -5.282  25.096   8.573  1.00  0.00     0.181 C 
ENDROOT
BRANCH  14  15
HETATM   15  N7  UNL     1      -5.117  24.697   9.746  1.00  0.00    -0.335 NA
BRANCH  15  16
HETATM   16  N8  UNL     1      -4.976  24.526  10.976  1.00  0.00    -0.280 N 
ATOM     17  H82 UNL     1      -4.753  25.516  11.078  1.00  0.00     0.191 HD
ATOM     18  H81 UNL     1      -4.903  24.204  11.941  1.00  0.00     0.191 HD
ENDBRANCH  15  16
ENDBRANCH  14  15
BRANCH  13  19
HETATM   19  N6  UNL     1      -6.353  27.260   8.918  1.00  0.00    -0.350 N 
HETATM   20  C10 UNL     1      -6.049  28.139   9.961  1.00  0.00     0.219 C 
HETATM   21  O2  UNL     1      -4.848  28.300  10.285  1.00  0.00    -0.274 OA
ATOM     22  H6  UNL     1      -7.333  27.139   8.666  1.00  0.00     0.163 HD
BRANCH  20  23
HETATM   23  C11 UNL     1      -7.144  28.858  10.657  1.00  0.00     0.117 C 
BRANCH  23  24
HETATM   24  C12 UNL     1      -7.613  29.988   9.766  1.00  0.00     0.124 C 
HETATM   25 CL1  UNL     1      -8.991  30.842  10.475  1.00  0.00    -0.130 Cl
ENDBRANCH  23  24
ENDBRANCH  20  23
ENDBRANCH  13  19
BRANCH   5  26
HETATM   26  C4  UNL     1      -6.194  21.774   4.600  1.00  0.00     0.164 C 
BRANCH  26  27
HETATM   27  N2  UNL     1      -7.611  21.512   4.769  1.00  0.00    -0.252 N 
ATOM     28  H2  UNL     1      -8.180  22.206   5.255  1.00  0.00     0.196 HD
BRANCH  27  29
HETATM   29  N3  UNL     1      -8.157  20.496   4.354  1.00  0.00    -0.249 NA
BRANCH  29  30
HETATM   30  N4  UNL     1      -8.894  19.586   3.997  1.00  0.00    -0.261 N 
ATOM     31  H42 UNL     1      -8.072  19.043   3.734  1.00  0.00     0.193 HD
ATOM     32  H41 UNL     1      -9.647  18.943   3.752  1.00  0.00     0.193 HD
ENDBRANCH  29  30
ENDBRANCH  27  29
ENDBRANCH  26  27
ENDBRANCH   5  26
TORSDOF 9
ENDMDL
