MODEL 1
REMARK VINA RESULT: -8.295436293      0.000      0.000
REMARK  7 active torsions:
REMARK  status: ('A' for Active; 'I' for Inactive)
REMARK    1  A    between atoms: N1_1  and  C1_4 
REMARK    2  A    between atoms: C2_7  and  N3_8 
REMARK    3  A    between atoms: N3_8  and  O1_9 
REMARK    4  A    between atoms: N3_8  and  C3_11 
REMARK    5  A    between atoms: C3_11  and  N4_12 
REMARK    6  A    between atoms: C3_11  and  C4_16 
REMARK       I    between atoms: C4_16  and  N5_18 
REMARK    7  A    between atoms: N5_18  and  C5_20 
ROOT
HETATM    1  C3  UNL     1      18.742  33.909  15.756  1.00  0.00     0.403 C 
ENDROOT
BRANCH   1   2
HETATM    2  N3  UNL     1      20.055  33.774  15.125  1.00  0.00    -0.203 N 
BRANCH   2   3
HETATM    3  C2  UNL     1      21.197  33.576  15.948  1.00  0.00     0.151 A 
HETATM    4  N2  UNL     1      21.984  34.646  16.256  1.00  0.00    -0.175 N 
HETATM    5  C1  UNL     1      23.098  34.491  16.992  1.00  0.00     0.680 A 
ATOM      6  H2  UNL     1      21.725  35.575  15.923  1.00  0.00     0.186 HD
HETATM    7  N9  UNL     1      23.480  33.285  17.456  1.00  0.00    -0.156 N 
HETATM    8  C9  UNL     1      22.712  32.234  17.159  1.00  0.00     0.263 A 
ATOM      9  H9  UNL     1      24.327  33.179  18.014  1.00  0.00     0.187 HD
HETATM   10  C8  UNL     1      21.559  32.332  16.407  1.00  0.00     0.126 A 
HETATM   11  O4  UNL     1      23.025  31.087  17.568  1.00  0.00    -0.268 OA
BRANCH   5  12
HETATM   12  N1  UNL     1      23.842  35.522  17.281  1.00  0.00    -0.234 N 
ATOM     13  H12 UNL     1      23.375  36.396  17.523  1.00  0.00     0.174 HD
ATOM     14  H11 UNL     1      24.858  35.443  17.260  1.00  0.00     0.174 HD
ENDBRANCH   5  12
ENDBRANCH   2   3
BRANCH   2  15
HETATM   15  O1  UNL     1      20.176  33.831  13.910  1.00  0.00    -0.283 OA
ATOM     16  H1  UNL     1      20.430  33.058  13.420  1.00  0.00     0.245 HD
ENDBRANCH   2  15
ENDBRANCH   1   2
BRANCH   1  17
HETATM   17  N4  UNL     1      17.926  32.716  15.415  1.00  0.00    -0.047 N 
ATOM     18  H43 UNL     1      16.929  32.867  15.572  1.00  0.00     0.277 HD
ATOM     19  H42 UNL     1      17.887  32.545  14.410  1.00  0.00     0.277 HD
ATOM     20  H41 UNL     1      18.287  31.915  15.934  1.00  0.00     0.277 HD
ENDBRANCH   1  17
BRANCH   1  21
HETATM   21  C4  UNL     1      18.000  35.087  15.216  1.00  0.00     0.272 C 
HETATM   22  O2  UNL     1      18.541  36.214  15.220  1.00  0.00    -0.269 OA
HETATM   23  N5  UNL     1      16.696  34.932  14.715  1.00  0.00    -0.328 N 
ATOM     24  H5  UNL     1      16.304  33.991  14.743  1.00  0.00     0.165 HD
BRANCH  23  25
HETATM   25  C5  UNL     1      15.864  35.958  14.169  1.00  0.00     0.281 A 
HETATM   26  N6  UNL     1      14.876  35.363  13.316  1.00  0.00    -0.335 N 
HETATM   27  C6  UNL     1      13.671  35.641  13.699  1.00  0.00     0.192 A 
ATOM     28  H6  UNL     1      15.098  34.789  12.503  1.00  0.00     0.164 HD
HETATM   29  N7  UNL     1      12.467  35.193  13.055  1.00  0.00    -0.063 NA
HETATM   30  N8  UNL     1      13.713  36.482  14.843  1.00  0.00    -0.298 N 
HETATM   31  C7  UNL     1      15.075  36.724  15.163  1.00  0.00     0.266 A 
ATOM     32  H8  UNL     1      12.905  36.848  15.347  1.00  0.00     0.171 HD
HETATM   33  O3  UNL     1      15.476  37.437  16.090  1.00  0.00    -0.269 OA
ENDBRANCH  23  25
ENDBRANCH   1  21
TORSDOF 7
ENDMDL
MODEL 2
REMARK VINA RESULT: -8.172738778      1.877      8.000
REMARK  7 active torsions:
REMARK  status: ('A' for Active; 'I' for Inactive)
REMARK    1  A    between atoms: N1_1  and  C1_4 
REMARK    2  A    between atoms: C2_7  and  N3_8 
REMARK    3  A    between atoms: N3_8  and  O1_9 
REMARK    4  A    between atoms: N3_8  and  C3_11 
REMARK    5  A    between atoms: C3_11  and  N4_12 
REMARK    6  A    between atoms: C3_11  and  C4_16 
REMARK       I    between atoms: C4_16  and  N5_18 
REMARK    7  A    between atoms: N5_18  and  C5_20 
ROOT
HETATM    1  C3  UNL     1      19.327  34.311  16.185  1.00  0.00     0.403 C 
ENDROOT
BRANCH   1   2
HETATM    2  N3  UNL     1      18.511  34.331  14.971  1.00  0.00    -0.203 N 
BRANCH   2   3
HETATM    3  C2  UNL     1      17.094  34.323  15.095  1.00  0.00     0.151 A 
HETATM    4  N2  UNL     1      16.354  35.117  14.271  1.00  0.00    -0.175 N 
HETATM    5  C1  UNL     1      15.017  35.172  14.388  1.00  0.00     0.680 A 
ATOM      6  H2  UNL     1      16.820  35.676  13.556  1.00  0.00     0.186 HD
HETATM    7  N9  UNL     1      14.355  34.452  15.315  1.00  0.00    -0.156 N 
HETATM    8  C9  UNL     1      15.075  33.671  16.124  1.00  0.00     0.263 A 
ATOM      9  H9  UNL     1      13.339  34.501  15.395  1.00  0.00     0.187 HD
HETATM   10  C8  UNL     1      16.450  33.574  16.050  1.00  0.00     0.126 A 
HETATM   11  O4  UNL     1      14.505  32.978  17.005  1.00  0.00    -0.268 OA
BRANCH   5  12
HETATM   12  N1  UNL     1      14.319  35.934  13.593  1.00  0.00    -0.234 N 
ATOM     13  H12 UNL     1      14.280  36.932  13.799  1.00  0.00     0.174 HD
ATOM     14  H11 UNL     1      13.828  35.531  12.795  1.00  0.00     0.174 HD
ENDBRANCH   5  12
ENDBRANCH   2   3
BRANCH   2  15
HETATM   15  O1  UNL     1      19.030  34.351  13.865  1.00  0.00    -0.283 OA
ATOM     16  H1  UNL     1      19.476  35.133  13.562  1.00  0.00     0.245 HD
ENDBRANCH   2  15
ENDBRANCH   1   2
BRANCH   1  17
HETATM   17  N4  UNL     1      19.757  35.699  16.491  1.00  0.00    -0.047 N 
ATOM     18  H43 UNL     1      20.191  36.158  15.690  1.00  0.00     0.277 HD
ATOM     19  H42 UNL     1      18.968  36.334  16.608  1.00  0.00     0.277 HD
ATOM     20  H41 UNL     1      20.367  35.678  17.308  1.00  0.00     0.277 HD
ENDBRANCH   1  17
BRANCH   1  21
HETATM   21  C4  UNL     1      20.580  33.524  15.982  1.00  0.00     0.272 C 
HETATM   22  O2  UNL     1      20.573  32.535  15.219  1.00  0.00    -0.269 OA
HETATM   23  N5  UNL     1      21.760  33.888  16.653  1.00  0.00    -0.328 N 
ATOM     24  H5  UNL     1      21.705  34.700  17.268  1.00  0.00     0.165 HD
BRANCH  23  25
HETATM   25  C5  UNL     1      23.030  33.238  16.563  1.00  0.00     0.281 A 
HETATM   26  N6  UNL     1      24.061  34.154  16.952  1.00  0.00    -0.335 N 
HETATM   27  C6  UNL     1      24.756  33.712  17.951  1.00  0.00     0.192 A 
ATOM     28  H6  UNL     1      24.229  35.050  16.495  1.00  0.00     0.164 HD
HETATM   29  N7  UNL     1      25.856  34.397  18.571  1.00  0.00    -0.063 NA
HETATM   30  N8  UNL     1      24.284  32.426  18.329  1.00  0.00    -0.298 N 
HETATM   31  C7  UNL     1      23.210  32.079  17.469  1.00  0.00     0.266 A 
ATOM     32  H8  UNL     1      24.653  31.852  19.088  1.00  0.00     0.171 HD
HETATM   33  O3  UNL     1      22.582  31.015  17.503  1.00  0.00    -0.269 OA
ENDBRANCH  23  25
ENDBRANCH   1  21
TORSDOF 7
ENDMDL
MODEL 3
REMARK VINA RESULT: -8.029399513      1.967      2.575
REMARK  7 active torsions:
REMARK  status: ('A' for Active; 'I' for Inactive)
REMARK    1  A    between atoms: N1_1  and  C1_4 
REMARK    2  A    between atoms: C2_7  and  N3_8 
REMARK    3  A    between atoms: N3_8  and  O1_9 
REMARK    4  A    between atoms: N3_8  and  C3_11 
REMARK    5  A    between atoms: C3_11  and  N4_12 
REMARK    6  A    between atoms: C3_11  and  C4_16 
REMARK       I    between atoms: C4_16  and  N5_18 
REMARK    7  A    between atoms: N5_18  and  C5_20 
ROOT
HETATM    1  C3  UNL     1      20.050  33.281  15.392  1.00  0.00     0.403 C 
ENDROOT
BRANCH   1   2
HETATM    2  N3  UNL     1      21.024  33.983  16.227  1.00  0.00    -0.203 N 
BRANCH   2   3
HETATM    3  C2  UNL     1      22.129  33.259  16.753  1.00  0.00     0.151 A 
HETATM    4  N2  UNL     1      23.342  33.873  16.841  1.00  0.00    -0.175 N 
HETATM    5  C1  UNL     1      24.419  33.207  17.289  1.00  0.00     0.680 A 
ATOM      6  H2  UNL     1      23.433  34.850  16.563  1.00  0.00     0.186 HD
HETATM    7  N9  UNL     1      24.349  31.916  17.669  1.00  0.00    -0.156 N 
HETATM    8  C9  UNL     1      23.162  31.309  17.587  1.00  0.00     0.263 A 
ATOM      9  H9  UNL     1      25.173  31.420  18.008  1.00  0.00     0.187 HD
HETATM   10  C8  UNL     1      22.021  31.942  17.134  1.00  0.00     0.126 A 
HETATM   11  O4  UNL     1      23.043  30.106  17.930  1.00  0.00    -0.268 OA
BRANCH   5  12
HETATM   12  N1  UNL     1      25.575  33.805  17.370  1.00  0.00    -0.234 N 
ATOM     13  H12 UNL     1      25.725  34.634  16.795  1.00  0.00     0.174 HD
ATOM     14  H11 UNL     1      26.298  33.444  17.991  1.00  0.00     0.174 HD
ENDBRANCH   5  12
ENDBRANCH   2   3
BRANCH   2  15
HETATM   15  O1  UNL     1      20.896  35.173  16.476  1.00  0.00    -0.283 OA
ATOM     16  H1  UNL     1      21.626  35.667  16.831  1.00  0.00     0.245 HD
ENDBRANCH   2  15
ENDBRANCH   1   2
BRANCH   1  17
HETATM   17  N4  UNL     1      20.025  33.921  14.052  1.00  0.00    -0.047 N 
ATOM     18  H43 UNL     1      19.079  34.150  13.747  1.00  0.00     0.277 HD
ATOM     19  H42 UNL     1      20.403  34.868  14.065  1.00  0.00     0.277 HD
ATOM     20  H41 UNL     1      20.512  33.314  13.392  1.00  0.00     0.277 HD
ENDBRANCH   1  17
BRANCH   1  21
HETATM   21  C4  UNL     1      18.668  33.416  15.941  1.00  0.00     0.272 C 
HETATM   22  O2  UNL     1      18.444  33.116  17.134  1.00  0.00    -0.269 OA
HETATM   23  N5  UNL     1      17.622  33.870  15.120  1.00  0.00    -0.328 N 
ATOM     24  H5  UNL     1      17.862  34.094  14.155  1.00  0.00     0.165 HD
BRANCH  23  25
HETATM   25  C5  UNL     1      16.255  34.050  15.499  1.00  0.00     0.281 A 
HETATM   26  N6  UNL     1      16.198  34.707  16.772  1.00  0.00    -0.335 N 
HETATM   27  C6  UNL     1      15.539  35.820  16.716  1.00  0.00     0.192 A 
ATOM     28  H6  UNL     1      16.626  34.341  17.621  1.00  0.00     0.164 HD
HETATM   29  N7  UNL     1      15.307  36.709  17.821  1.00  0.00    -0.063 NA
HETATM   30  N8  UNL     1      15.051  36.023  15.396  1.00  0.00    -0.298 N 
HETATM   31  C7  UNL     1      15.462  34.922  14.600  1.00  0.00     0.266 A 
ATOM     32  H8  UNL     1      14.502  36.821  15.078  1.00  0.00     0.171 HD
HETATM   33  O3  UNL     1      15.189  34.763  13.405  1.00  0.00    -0.269 OA
ENDBRANCH  23  25
ENDBRANCH   1  21
TORSDOF 7
ENDMDL
MODEL 4
REMARK VINA RESULT: -7.929937112      1.935      8.105
REMARK  7 active torsions:
REMARK  status: ('A' for Active; 'I' for Inactive)
REMARK    1  A    between atoms: N1_1  and  C1_4 
REMARK    2  A    between atoms: C2_7  and  N3_8 
REMARK    3  A    between atoms: N3_8  and  O1_9 
REMARK    4  A    between atoms: N3_8  and  C3_11 
REMARK    5  A    between atoms: C3_11  and  N4_12 
REMARK    6  A    between atoms: C3_11  and  C4_16 
REMARK       I    between atoms: C4_16  and  N5_18 
REMARK    7  A    between atoms: N5_18  and  C5_20 
ROOT
HETATM    1  C3  UNL     1      19.325  34.370  16.251  1.00  0.00     0.403 C 
ENDROOT
BRANCH   1   2
HETATM    2  N3  UNL     1      18.460  34.370  15.071  1.00  0.00    -0.203 N 
BRANCH   2   3
HETATM    3  C2  UNL     1      17.050  34.367  15.252  1.00  0.00     0.151 A 
HETATM    4  N2  UNL     1      16.508  33.576  16.220  1.00  0.00    -0.175 N 
HETATM    5  C1  UNL     1      15.177  33.511  16.390  1.00  0.00     0.680 A 
ATOM      6  H2  UNL     1      17.121  33.027  16.823  1.00  0.00     0.186 HD
HETATM    7  N9  UNL     1      14.327  34.219  15.620  1.00  0.00    -0.156 N 
HETATM    8  C9  UNL     1      14.852  34.997  14.671  1.00  0.00     0.263 A 
ATOM      9  H9  UNL     1      13.318  34.162  15.758  1.00  0.00     0.187 HD
HETATM   10  C8  UNL     1      16.211  35.103  14.449  1.00  0.00     0.126 A 
HETATM   11  O4  UNL     1      14.103  35.678  13.925  1.00  0.00    -0.268 OA
BRANCH   5  12
HETATM   12  N1  UNL     1      14.670  32.752  17.321  1.00  0.00    -0.234 N 
ATOM     13  H12 UNL     1      15.240  31.983  17.674  1.00  0.00     0.174 HD
ATOM     14  H11 UNL     1      13.730  32.930  17.674  1.00  0.00     0.174 HD
ENDBRANCH   5  12
ENDBRANCH   2   3
BRANCH   2  15
HETATM   15  O1  UNL     1      18.935  34.371  13.944  1.00  0.00    -0.283 OA
ATOM     16  H1  UNL     1      18.530  33.856  13.257  1.00  0.00     0.245 HD
ENDBRANCH   2  15
ENDBRANCH   1   2
BRANCH   1  17
HETATM   17  N4  UNL     1      19.777  35.760  16.508  1.00  0.00    -0.047 N 
ATOM     18  H43 UNL     1      19.959  36.278  15.648  1.00  0.00     0.277 HD
ATOM     19  H42 UNL     1      19.031  36.352  16.874  1.00  0.00     0.277 HD
ATOM     20  H41 UNL     1      20.590  35.730  17.125  1.00  0.00     0.277 HD
ENDBRANCH   1  17
BRANCH   1  21
HETATM   21  C4  UNL     1      20.563  33.568  16.015  1.00  0.00     0.272 C 
HETATM   22  O2  UNL     1      20.529  32.592  15.236  1.00  0.00    -0.269 OA
HETATM   23  N5  UNL     1      21.759  33.905  16.672  1.00  0.00    -0.328 N 
ATOM     24  H5  UNL     1      21.726  34.707  17.300  1.00  0.00     0.165 HD
BRANCH  23  25
HETATM   25  C5  UNL     1      23.017  33.237  16.550  1.00  0.00     0.281 A 
HETATM   26  N6  UNL     1      24.069  34.136  16.926  1.00  0.00    -0.335 N 
HETATM   27  C6  UNL     1      24.777  33.675  17.906  1.00  0.00     0.192 A 
ATOM     28  H6  UNL     1      24.240  35.034  16.473  1.00  0.00     0.164 HD
HETATM   29  N7  UNL     1      25.899  34.339  18.511  1.00  0.00    -0.063 NA
HETATM   30  N8  UNL     1      24.295  32.393  18.284  1.00  0.00    -0.298 N 
HETATM   31  C7  UNL     1      23.199  32.068  17.442  1.00  0.00     0.266 A 
ATOM     32  H8  UNL     1      24.672  31.808  19.029  1.00  0.00     0.171 HD
HETATM   33  O3  UNL     1      22.557  31.013  17.480  1.00  0.00    -0.269 OA
ENDBRANCH  23  25
ENDBRANCH   1  21
TORSDOF 7
ENDMDL
MODEL 5
REMARK VINA RESULT: -7.919237779      2.097      2.576
REMARK  7 active torsions:
REMARK  status: ('A' for Active; 'I' for Inactive)
REMARK    1  A    between atoms: N1_1  and  C1_4 
REMARK    2  A    between atoms: C2_7  and  N3_8 
REMARK    3  A    between atoms: N3_8  and  O1_9 
REMARK    4  A    between atoms: N3_8  and  C3_11 
REMARK    5  A    between atoms: C3_11  and  N4_12 
REMARK    6  A    between atoms: C3_11  and  C4_16 
REMARK       I    between atoms: C4_16  and  N5_18 
REMARK    7  A    between atoms: N5_18  and  C5_20 
ROOT
HETATM    1  C3  UNL     1      20.631  33.360  15.488  1.00  0.00     0.403 C 
ENDROOT
BRANCH   1   2
HETATM    2  N3  UNL     1      21.553  34.085  16.362  1.00  0.00    -0.203 N 
BRANCH   2   3
HETATM    3  C2  UNL     1      22.664  33.391  16.917  1.00  0.00     0.151 A 
HETATM    4  N2  UNL     1      23.862  34.033  17.016  1.00  0.00    -0.175 N 
HETATM    5  C1  UNL     1      24.946  33.396  17.492  1.00  0.00     0.680 A 
ATOM      6  H2  UNL     1      23.938  35.008  16.726  1.00  0.00     0.186 HD
HETATM    7  N9  UNL     1      24.895  32.109  17.889  1.00  0.00    -0.156 N 
HETATM    8  C9  UNL     1      23.724  31.476  17.796  1.00  0.00     0.263 A 
ATOM      9  H9  UNL     1      25.724  31.635  18.249  1.00  0.00     0.187 HD
HETATM   10  C8  UNL     1      22.578  32.079  17.314  1.00  0.00     0.126 A 
HETATM   11  O4  UNL     1      23.623  30.275  18.153  1.00  0.00    -0.268 OA
BRANCH   5  12
HETATM   12  N1  UNL     1      26.086  34.020  17.584  1.00  0.00    -0.234 N 
ATOM     13  H12 UNL     1      26.097  35.025  17.412  1.00  0.00     0.174 HD
ATOM     14  H11 UNL     1      26.935  33.506  17.818  1.00  0.00     0.174 HD
ENDBRANCH   5  12
ENDBRANCH   2   3
BRANCH   2  15
HETATM   15  O1  UNL     1      21.378  35.267  16.618  1.00  0.00    -0.283 OA
ATOM     16  H1  UNL     1      20.592  35.709  16.317  1.00  0.00     0.245 HD
ENDBRANCH   2  15
ENDBRANCH   1   2
BRANCH   1  17
HETATM   17  N4  UNL     1      20.910  33.743  14.081  1.00  0.00    -0.047 N 
ATOM     18  H43 UNL     1      20.610  34.695  13.869  1.00  0.00     0.277 HD
ATOM     19  H42 UNL     1      21.906  33.865  13.900  1.00  0.00     0.277 HD
ATOM     20  H41 UNL     1      20.482  33.053  13.464  1.00  0.00     0.277 HD
ENDBRANCH   1  17
BRANCH   1  21
HETATM   21  C4  UNL     1      19.214  33.752  15.751  1.00  0.00     0.272 C 
HETATM   22  O2  UNL     1      18.741  33.626  16.901  1.00  0.00    -0.269 OA
HETATM   23  N5  UNL     1      18.414  34.253  14.710  1.00  0.00    -0.328 N 
ATOM     24  H5  UNL     1      18.852  34.328  13.792  1.00  0.00     0.165 HD
BRANCH  23  25
HETATM   25  C5  UNL     1      17.049  34.667  14.806  1.00  0.00     0.281 A 
HETATM   26  N6  UNL     1      16.248  33.564  15.251  1.00  0.00    -0.335 N 
HETATM   27  C6  UNL     1      15.616  33.833  16.348  1.00  0.00     0.192 A 
ATOM     28  H6  UNL     1      16.185  32.672  14.761  1.00  0.00     0.164 HD
HETATM   29  N7  UNL     1      14.736  32.936  17.046  1.00  0.00    -0.063 NA
HETATM   30  N8  UNL     1      15.899  35.166  16.751  1.00  0.00    -0.298 N 
HETATM   31  C7  UNL     1      16.783  35.736  15.797  1.00  0.00     0.266 A 
ATOM     32  H8  UNL     1      15.532  35.632  17.580  1.00  0.00     0.171 HD
HETATM   33  O3  UNL     1      17.216  36.894  15.826  1.00  0.00    -0.269 OA
ENDBRANCH  23  25
ENDBRANCH   1  21
TORSDOF 7
ENDMDL
