MODEL 1
REMARK VINA RESULT: -7.813163023      0.000      0.000
REMARK  9 active torsions:
REMARK  status: ('A' for Active; 'I' for Inactive)
REMARK    1  A    between atoms: C2_2  and  N1_3 
REMARK    2  A    between atoms: N1_3  and  C4_6 
REMARK    3  A    between atoms: C4_6  and  C5_7 
REMARK    4  A    between atoms: C5_7  and  C6_8 
REMARK    5  A    between atoms: C6_8  and  C7_9 
REMARK    6  A    between atoms: C7_9  and  N2_10 
REMARK    7  A    between atoms: C11_20  and  C12_21 
REMARK    8  A    between atoms: C12_21  and  C13_22 
REMARK    9  A    between atoms: C15_26  and  N6_27 
ROOT
HETATM    1  N2  UNL     1      12.466 -12.557  15.726  1.00  0.00    -0.268 N 
HETATM    2  C8  UNL     1      12.200 -12.753  17.086  1.00  0.00     0.329 C 
HETATM    3  O1  UNL     1      11.337 -11.951  17.578  1.00  0.00    -0.246 OA
HETATM    4  N3  UNL     1      12.705 -13.680  18.043  1.00  0.00    -0.313 N 
ATOM      5  H3  UNL     1      12.361 -13.419  18.967  1.00  0.00     0.170 HD
HETATM    6  C9  UNL     1      13.514 -14.832  18.168  1.00  0.00     0.166 C 
HETATM    7  C10 UNL     1      14.168 -15.369  17.011  1.00  0.00     0.257 C 
HETATM    8  O2  UNL     1      14.528 -16.567  17.267  1.00  0.00    -0.267 OA
HETATM    9  N4  UNL     1      14.534 -14.992  15.691  1.00  0.00    -0.343 N 
ATOM     10  H4  UNL     1      14.719 -15.802  15.099  1.00  0.00     0.163 HD
HETATM   11  C11 UNL     1      14.706 -13.775  14.994  1.00  0.00     0.183 C 
HETATM   12  C16 UNL     1      13.461 -12.985  14.815  1.00  0.00     0.251 C 
HETATM   13  O3  UNL     1      13.225 -12.613  13.635  1.00  0.00    -0.271 OA
ENDROOT
BRANCH  11  14
HETATM   14  C12 UNL     1      15.814 -12.896  15.597  1.00  0.00     0.094 C 
BRANCH  14  15
HETATM   15  C13 UNL     1      16.466 -12.148  14.491  1.00  0.00     0.045 A 
HETATM   16  C14 UNL     1      16.624 -10.785  14.326  1.00  0.00     0.131 A 
HETATM   17  N5  UNL     1      17.281 -10.558  13.166  1.00  0.00    -0.200 N 
HETATM   18  C15 UNL     1      17.537 -11.757  12.604  1.00  0.00     0.675 A 
ATOM     19  H5  UNL     1      17.537  -9.646  12.786  1.00  0.00     0.183 HD
HETATM   20  N7  UNL     1      17.043 -12.698  13.406  1.00  0.00    -0.194 N 
ATOM     21  H7  UNL     1      17.096 -13.700  13.224  1.00  0.00     0.184 HD
BRANCH  18  22
HETATM   22  N6  UNL     1      18.150 -11.940  11.488  1.00  0.00    -0.234 N 
ATOM     23  H62 UNL     1      18.771 -11.282  11.018  1.00  0.00     0.174 HD
ATOM     24  H61 UNL     1      18.096 -12.783  10.917  1.00  0.00     0.174 HD
ENDBRANCH  18  22
ENDBRANCH  14  15
ENDBRANCH  11  14
BRANCH   1  25
HETATM   25  C7  UNL     1      11.481 -11.707  15.099  1.00  0.00     0.137 C 
BRANCH  25  26
HETATM   26  C6  UNL     1      10.119 -12.360  15.043  1.00  0.00     0.022 C 
BRANCH  26  27
HETATM   27  C5  UNL     1       9.833 -12.960  13.693  1.00  0.00     0.031 C 
BRANCH  27  28
HETATM   28  C4  UNL     1       8.385 -13.393  13.566  1.00  0.00     0.258 C 
BRANCH  28  29
HETATM   29  N1  UNL     1       8.112 -14.073  12.343  1.00  0.00     0.010 N 
HETATM   30  C3  UNL     1       7.765 -15.468  12.536  1.00  0.00     0.295 C 
HETATM   31 CL1  UNL     1       9.592 -14.067  11.394  1.00  0.00     0.117 Cl
BRANCH  29  32
HETATM   32  C2  UNL     1       7.095 -13.474  11.534  1.00  0.00     0.253 C 
HETATM   33  C1  UNL     1       7.657 -12.706  10.347  1.00  0.00     0.036 C 
ENDBRANCH  29  32
ENDBRANCH  28  29
ENDBRANCH  27  28
ENDBRANCH  26  27
ENDBRANCH  25  26
ENDBRANCH   1  25
TORSDOF 9
ENDMDL
MODEL 2
REMARK VINA RESULT: -7.723645079      1.612      1.797
REMARK  9 active torsions:
REMARK  status: ('A' for Active; 'I' for Inactive)
REMARK    1  A    between atoms: C2_2  and  N1_3 
REMARK    2  A    between atoms: N1_3  and  C4_6 
REMARK    3  A    between atoms: C4_6  and  C5_7 
REMARK    4  A    between atoms: C5_7  and  C6_8 
REMARK    5  A    between atoms: C6_8  and  C7_9 
REMARK    6  A    between atoms: C7_9  and  N2_10 
REMARK    7  A    between atoms: C11_20  and  C12_21 
REMARK    8  A    between atoms: C12_21  and  C13_22 
REMARK    9  A    between atoms: C15_26  and  N6_27 
ROOT
HETATM    1  N2  UNL     1      12.591 -12.635  14.899  1.00  0.00    -0.268 N 
HETATM    2  C8  UNL     1      11.726 -12.017  15.810  1.00  0.00     0.329 C 
HETATM    3  O1  UNL     1      10.622 -11.621  15.306  1.00  0.00    -0.246 OA
HETATM    4  N3  UNL     1      11.831 -11.741  17.203  1.00  0.00    -0.313 N 
ATOM      5  H3  UNL     1      11.043 -11.157  17.483  1.00  0.00     0.170 HD
HETATM    6  C9  UNL     1      12.639 -11.986  18.336  1.00  0.00     0.166 C 
HETATM    7  C10 UNL     1      13.850 -12.741  18.195  1.00  0.00     0.257 C 
HETATM    8  O2  UNL     1      14.216 -13.143  19.350  1.00  0.00    -0.267 OA
HETATM    9  N4  UNL     1      14.754 -13.174  17.188  1.00  0.00    -0.343 N 
ATOM     10  H4  UNL     1      15.326 -13.959  17.499  1.00  0.00     0.163 HD
HETATM   11  C11 UNL     1      15.058 -12.789  15.862  1.00  0.00     0.183 C 
HETATM   12  C16 UNL     1      13.957 -13.006  14.889  1.00  0.00     0.251 C 
HETATM   13  O3  UNL     1      14.277 -13.638  13.848  1.00  0.00    -0.271 OA
ENDROOT
BRANCH  11  14
HETATM   14  C12 UNL     1      15.579 -11.347  15.767  1.00  0.00     0.094 C 
BRANCH  14  15
HETATM   15  C13 UNL     1      16.168 -11.154  14.417  1.00  0.00     0.045 A 
HETATM   16  C14 UNL     1      15.960 -10.138  13.504  1.00  0.00     0.131 A 
HETATM   17  N5  UNL     1      16.710 -10.376  12.405  1.00  0.00    -0.200 N 
HETATM   18  C15 UNL     1      17.385 -11.525  12.616  1.00  0.00     0.675 A 
ATOM     19  H5  UNL     1      16.758  -9.794  11.569  1.00  0.00     0.183 HD
HETATM   20  N7  UNL     1      17.050 -11.979  13.822  1.00  0.00    -0.194 N 
ATOM     21  H7  UNL     1      17.414 -12.836  14.239  1.00  0.00     0.184 HD
BRANCH  18  22
HETATM   22  N6  UNL     1      18.202 -12.071  11.787  1.00  0.00    -0.234 N 
ATOM     23  H62 UNL     1      19.174 -11.807  11.624  1.00  0.00     0.174 HD
ATOM     24  H61 UNL     1      17.983 -12.855  11.172  1.00  0.00     0.174 HD
ENDBRANCH  18  22
ENDBRANCH  14  15
ENDBRANCH  11  14
BRANCH   1  25
HETATM   25  C7  UNL     1      11.924 -12.976  13.665  1.00  0.00     0.137 C 
BRANCH  25  26
HETATM   26  C6  UNL     1      11.097 -14.234  13.793  1.00  0.00     0.022 C 
BRANCH  26  27
HETATM   27  C5  UNL     1      10.175 -14.430  12.621  1.00  0.00     0.031 C 
BRANCH  27  28
HETATM   28  C4  UNL     1       8.969 -13.514  12.694  1.00  0.00     0.258 C 
BRANCH  28  29
HETATM   29  N1  UNL     1       8.023 -13.753  11.654  1.00  0.00     0.010 N 
HETATM   30  C3  UNL     1       6.756 -14.258  12.147  1.00  0.00     0.295 C 
HETATM   31 CL1  UNL     1       8.681 -15.015  10.621  1.00  0.00     0.117 Cl
BRANCH  29  32
HETATM   32  C2  UNL     1       7.752 -12.626  10.815  1.00  0.00     0.253 C 
HETATM   33  C1  UNL     1       7.709 -12.985   9.336  1.00  0.00     0.036 C 
ENDBRANCH  29  32
ENDBRANCH  28  29
ENDBRANCH  27  28
ENDBRANCH  26  27
ENDBRANCH  25  26
ENDBRANCH   1  25
TORSDOF 9
ENDMDL
MODEL 3
REMARK VINA RESULT: -7.673021243      1.928      2.537
REMARK  9 active torsions:
REMARK  status: ('A' for Active; 'I' for Inactive)
REMARK    1  A    between atoms: C2_2  and  N1_3 
REMARK    2  A    between atoms: N1_3  and  C4_6 
REMARK    3  A    between atoms: C4_6  and  C5_7 
REMARK    4  A    between atoms: C5_7  and  C6_8 
REMARK    5  A    between atoms: C6_8  and  C7_9 
REMARK    6  A    between atoms: C7_9  and  N2_10 
REMARK    7  A    between atoms: C11_20  and  C12_21 
REMARK    8  A    between atoms: C12_21  and  C13_22 
REMARK    9  A    between atoms: C15_26  and  N6_27 
ROOT
HETATM    1  N2  UNL     1      12.829 -12.726  17.253  1.00  0.00    -0.268 N 
HETATM    2  C8  UNL     1      13.256 -13.868  17.942  1.00  0.00     0.329 C 
HETATM    3  O1  UNL     1      12.991 -13.864  19.190  1.00  0.00    -0.246 OA
HETATM    4  N3  UNL     1      13.936 -15.048  17.521  1.00  0.00    -0.313 N 
ATOM      5  H3  UNL     1      14.187 -15.593  18.346  1.00  0.00     0.170 HD
HETATM    6  C9  UNL     1      14.385 -15.732  16.369  1.00  0.00     0.166 C 
HETATM    7  C10 UNL     1      14.203 -15.141  15.076  1.00  0.00     0.257 C 
HETATM    8  O2  UNL     1      14.339 -16.050  14.190  1.00  0.00    -0.267 OA
HETATM    9  N4  UNL     1      13.923 -13.880  14.482  1.00  0.00    -0.343 N 
ATOM     10  H4  UNL     1      13.575 -13.976  13.528  1.00  0.00     0.163 HD
HETATM   11  C11 UNL     1      14.005 -12.528  14.884  1.00  0.00     0.183 C 
HETATM   12  C16 UNL     1      13.080 -12.153  15.983  1.00  0.00     0.251 C 
HETATM   13  O3  UNL     1      12.373 -11.134  15.768  1.00  0.00    -0.271 OA
ENDROOT
BRANCH  11  14
HETATM   14  C12 UNL     1      15.440 -12.095  15.223  1.00  0.00     0.094 C 
BRANCH  14  15
HETATM   15  C13 UNL     1      15.950 -11.261  14.104  1.00  0.00     0.045 A 
HETATM   16  C14 UNL     1      15.505 -10.035  13.649  1.00  0.00     0.131 A 
HETATM   17  N5  UNL     1      16.272  -9.652  12.603  1.00  0.00    -0.200 N 
HETATM   18  C15 UNL     1      17.190 -10.618  12.399  1.00  0.00     0.675 A 
ATOM     19  H5  UNL     1      16.175  -8.789  12.067  1.00  0.00     0.183 HD
HETATM   20  N7  UNL     1      16.985 -11.574  13.302  1.00  0.00    -0.194 N 
ATOM     21  H7  UNL     1      17.538 -12.428  13.377  1.00  0.00     0.184 HD
BRANCH  18  22
HETATM   22  N6  UNL     1      18.096 -10.603  11.486  1.00  0.00    -0.234 N 
ATOM     23  H62 UNL     1      17.982 -10.867  10.507  1.00  0.00     0.174 HD
ATOM     24  H61 UNL     1      19.067 -10.319  11.623  1.00  0.00     0.174 HD
ENDBRANCH  18  22
ENDBRANCH  14  15
ENDBRANCH  11  14
BRANCH   1  25
HETATM   25  C7  UNL     1      11.904 -11.939  18.034  1.00  0.00     0.137 C 
BRANCH  25  26
HETATM   26  C6  UNL     1      10.655 -12.713  18.388  1.00  0.00     0.022 C 
BRANCH  26  27
HETATM   27  C5  UNL     1       9.574 -12.549  17.354  1.00  0.00     0.031 C 
BRANCH  27  28
HETATM   28  C4  UNL     1       9.593 -13.673  16.337  1.00  0.00     0.258 C 
BRANCH  28  29
HETATM   29  N1  UNL     1       8.942 -13.330  15.115  1.00  0.00     0.010 N 
HETATM   30  C3  UNL     1       9.826 -12.681  14.165  1.00  0.00     0.295 C 
HETATM   31 CL1  UNL     1       7.690 -12.155  15.495  1.00  0.00     0.117 Cl
BRANCH  29  32
HETATM   32  C2  UNL     1       8.302 -14.421  14.446  1.00  0.00     0.253 C 
HETATM   33  C1  UNL     1       7.661 -14.013  13.127  1.00  0.00     0.036 C 
ENDBRANCH  29  32
ENDBRANCH  28  29
ENDBRANCH  27  28
ENDBRANCH  26  27
ENDBRANCH  25  26
ENDBRANCH   1  25
TORSDOF 9
ENDMDL
MODEL 4
REMARK VINA RESULT: -7.590758793      1.816      2.144
REMARK  9 active torsions:
REMARK  status: ('A' for Active; 'I' for Inactive)
REMARK    1  A    between atoms: C2_2  and  N1_3 
REMARK    2  A    between atoms: N1_3  and  C4_6 
REMARK    3  A    between atoms: C4_6  and  C5_7 
REMARK    4  A    between atoms: C5_7  and  C6_8 
REMARK    5  A    between atoms: C6_8  and  C7_9 
REMARK    6  A    between atoms: C7_9  and  N2_10 
REMARK    7  A    between atoms: C11_20  and  C12_21 
REMARK    8  A    between atoms: C12_21  and  C13_22 
REMARK    9  A    between atoms: C15_26  and  N6_27 
ROOT
HETATM    1  N2  UNL     1      12.661 -12.814  15.010  1.00  0.00    -0.268 N 
HETATM    2  C8  UNL     1      11.736 -12.190  15.856  1.00  0.00     0.329 C 
HETATM    3  O1  UNL     1      10.607 -11.941  15.316  1.00  0.00    -0.246 OA
HETATM    4  N3  UNL     1      11.805 -11.775  17.217  1.00  0.00    -0.313 N 
ATOM      5  H3  UNL     1      10.966 -11.238  17.439  1.00  0.00     0.170 HD
HETATM    6  C9  UNL     1      12.620 -11.841  18.369  1.00  0.00     0.166 C 
HETATM    7  C10 UNL     1      13.893 -12.497  18.302  1.00  0.00     0.257 C 
HETATM    8  O2  UNL     1      14.281 -12.755  19.491  1.00  0.00    -0.267 OA
HETATM    9  N4  UNL     1      14.840 -12.944  17.342  1.00  0.00    -0.343 N 
ATOM     10  H4  UNL     1      15.475 -13.644  17.727  1.00  0.00     0.163 HD
HETATM   11  C11 UNL     1      15.122 -12.662  15.986  1.00  0.00     0.183 C 
HETATM   12  C16 UNL     1      14.054 -13.065  15.037  1.00  0.00     0.251 C 
HETATM   13  O3  UNL     1      14.436 -13.762  14.061  1.00  0.00    -0.271 OA
ENDROOT
BRANCH  11  14
HETATM   14  C12 UNL     1      15.518 -11.196  15.755  1.00  0.00     0.094 C 
BRANCH  14  15
HETATM   15  C13 UNL     1      16.134 -11.088  14.407  1.00  0.00     0.045 A 
HETATM   16  C14 UNL     1      15.909 -10.158  13.410  1.00  0.00     0.131 A 
HETATM   17  N5  UNL     1      16.696 -10.453  12.351  1.00  0.00    -0.200 N 
HETATM   18  C15 UNL     1      17.409 -11.552  12.670  1.00  0.00     0.675 A 
ATOM     19  H5  UNL     1      16.743  -9.938  11.471  1.00  0.00     0.183 HD
HETATM   20  N7  UNL     1      17.062 -11.921  13.901  1.00  0.00    -0.194 N 
ATOM     21  H7  UNL     1      17.448 -12.726  14.394  1.00  0.00     0.184 HD
BRANCH  18  22
HETATM   22  N6  UNL     1      18.269 -12.129  11.906  1.00  0.00    -0.234 N 
ATOM     23  H62 UNL     1      18.581 -11.811  10.988  1.00  0.00     0.174 HD
ATOM     24  H61 UNL     1      18.761 -12.996  12.121  1.00  0.00     0.174 HD
ENDBRANCH  18  22
ENDBRANCH  14  15
ENDBRANCH  11  14
BRANCH   1  25
HETATM   25  C7  UNL     1      12.037 -13.327  13.813  1.00  0.00     0.137 C 
BRANCH  25  26
HETATM   26  C6  UNL     1      11.528 -14.738  13.996  1.00  0.00     0.022 C 
BRANCH  26  27
HETATM   27  C5  UNL     1      10.793 -15.239  12.782  1.00  0.00     0.031 C 
BRANCH  27  28
HETATM   28  C4  UNL     1      10.100 -14.112  12.040  1.00  0.00     0.258 C 
BRANCH  28  29
HETATM   29  N1  UNL     1       8.732 -14.394  11.751  1.00  0.00     0.010 N 
HETATM   30  C3  UNL     1       8.565 -15.500  10.828  1.00  0.00     0.295 C 
HETATM   31 CL1  UNL     1       8.061 -12.982  10.945  1.00  0.00     0.117 Cl
BRANCH  29  32
HETATM   32  C2  UNL     1       7.914 -14.649  12.897  1.00  0.00     0.253 C 
HETATM   33  C1  UNL     1       7.742 -13.426  13.787  1.00  0.00     0.036 C 
ENDBRANCH  29  32
ENDBRANCH  28  29
ENDBRANCH  27  28
ENDBRANCH  26  27
ENDBRANCH  25  26
ENDBRANCH   1  25
TORSDOF 9
ENDMDL
MODEL 5
REMARK VINA RESULT: -7.576506369      2.029      2.498
REMARK  9 active torsions:
REMARK  status: ('A' for Active; 'I' for Inactive)
REMARK    1  A    between atoms: C2_2  and  N1_3 
REMARK    2  A    between atoms: N1_3  and  C4_6 
REMARK    3  A    between atoms: C4_6  and  C5_7 
REMARK    4  A    between atoms: C5_7  and  C6_8 
REMARK    5  A    between atoms: C6_8  and  C7_9 
REMARK    6  A    between atoms: C7_9  and  N2_10 
REMARK    7  A    between atoms: C11_20  and  C12_21 
REMARK    8  A    between atoms: C12_21  and  C13_22 
REMARK    9  A    between atoms: C15_26  and  N6_27 
ROOT
HETATM    1  N2  UNL     1      12.680 -12.721  17.072  1.00  0.00    -0.268 N 
HETATM    2  C8  UNL     1      13.110 -13.832  17.806  1.00  0.00     0.329 C 
HETATM    3  O1  UNL     1      12.778 -13.814  19.039  1.00  0.00    -0.246 OA
HETATM    4  N3  UNL     1      13.853 -14.994  17.448  1.00  0.00    -0.313 N 
ATOM      5  H3  UNL     1      14.079 -15.514  18.296  1.00  0.00     0.170 HD
HETATM    6  C9  UNL     1      14.389 -15.683  16.337  1.00  0.00     0.166 C 
HETATM    7  C10 UNL     1      14.256 -15.124  15.023  1.00  0.00     0.257 C 
HETATM    8  O2  UNL     1      14.472 -16.045  14.166  1.00  0.00    -0.267 OA
HETATM    9  N4  UNL     1      13.963 -13.887  14.389  1.00  0.00    -0.343 N 
ATOM     10  H4  UNL     1      13.671 -14.014  13.419  1.00  0.00     0.163 HD
HETATM   11  C11 UNL     1      13.974 -12.525  14.766  1.00  0.00     0.183 C 
HETATM   12  C16 UNL     1      12.978 -12.164  15.805  1.00  0.00     0.251 C 
HETATM   13  O3  UNL     1      12.248 -11.175  15.531  1.00  0.00    -0.271 OA
ENDROOT
BRANCH  11  14
HETATM   14  C12 UNL     1      15.372 -12.033  15.171  1.00  0.00     0.094 C 
BRANCH  14  15
HETATM   15  C13 UNL     1      15.917 -11.214  14.057  1.00  0.00     0.045 A 
HETATM   16  C14 UNL     1      15.514  -9.975  13.599  1.00  0.00     0.131 A 
HETATM   17  N5  UNL     1      16.301  -9.614  12.561  1.00  0.00    -0.200 N 
HETATM   18  C15 UNL     1      17.192 -10.608  12.364  1.00  0.00     0.675 A 
ATOM     19  H5  UNL     1      16.235  -8.748  12.025  1.00  0.00     0.183 HD
HETATM   20  N7  UNL     1      16.950 -11.557  13.265  1.00  0.00    -0.194 N 
ATOM     21  H7  UNL     1      17.476 -12.428  13.343  1.00  0.00     0.184 HD
BRANCH  18  22
HETATM   22  N6  UNL     1      18.106 -10.619  11.459  1.00  0.00    -0.234 N 
ATOM     23  H62 UNL     1      18.450 -11.432  10.949  1.00  0.00     0.174 HD
ATOM     24  H61 UNL     1      18.617  -9.801  11.127  1.00  0.00     0.174 HD
ENDBRANCH  18  22
ENDBRANCH  14  15
ENDBRANCH  11  14
BRANCH   1  25
HETATM   25  C7  UNL     1      11.686 -11.954  17.786  1.00  0.00     0.137 C 
BRANCH  25  26
HETATM   26  C6  UNL     1      10.403 -12.728  17.984  1.00  0.00     0.022 C 
BRANCH  26  27
HETATM   27  C5  UNL     1       9.498 -12.643  16.785  1.00  0.00     0.031 C 
BRANCH  27  28
HETATM   28  C4  UNL     1       8.791 -13.958  16.520  1.00  0.00     0.258 C 
BRANCH  28  29
HETATM   29  N1  UNL     1       8.924 -14.401  15.172  1.00  0.00     0.010 N 
HETATM   30  C3  UNL     1       8.157 -13.602  14.235  1.00  0.00     0.295 C 
HETATM   31 CL1  UNL     1       8.262 -16.027  15.081  1.00  0.00     0.117 Cl
BRANCH  29  32
HETATM   32  C2  UNL     1      10.271 -14.471  14.691  1.00  0.00     0.253 C 
HETATM   33  C1  UNL     1      10.453 -13.797  13.338  1.00  0.00     0.036 C 
ENDBRANCH  29  32
ENDBRANCH  28  29
ENDBRANCH  27  28
ENDBRANCH  26  27
ENDBRANCH  25  26
ENDBRANCH   1  25
TORSDOF 9
ENDMDL
