MODEL 1
REMARK VINA RESULT: -9.921651772      0.000      0.000
REMARK  7 active torsions:
REMARK  status: ('A' for Active; 'I' for Inactive)
REMARK    1  A    between atoms: C3_5  and  C4_6 
REMARK    2  A    between atoms: C4_6  and  C5_7 
REMARK    3  A    between atoms: C11_15  and  C12_16 
REMARK    4  A    between atoms: C12_16  and  C13_17 
REMARK    5  A    between atoms: C13_17  and  C14_18 
REMARK    6  A    between atoms: C16_20  and  O1_21 
REMARK    7  A    between atoms: C19_24  and  O2_25 
ROOT
HETATM    1  C1  UNL     1      -9.398  21.761   4.820  1.00  0.00     0.043 C 
HETATM    2  C2  UNL     1      -9.288  22.759   3.969  1.00  0.00     0.030 A 
HETATM    3  N1  UNL     1      -9.788  22.732   2.731  1.00  0.00    -0.356 N 
ATOM      4  H1  UNL     1     -10.303  21.961   2.305  1.00  0.00     0.166 HD
HETATM    5  C3  UNL     1      -9.489  23.904   2.150  1.00  0.00     0.040 A 
HETATM    6  C9  UNL     1      -8.783  24.702   3.026  1.00  0.00    -0.027 A 
HETATM    7  C10 UNL     1      -8.263  26.052   2.807  1.00  0.00     0.051 C 
HETATM    8  C11 UNL     1      -8.653  23.982   4.181  1.00  0.00    -0.024 A 
ENDROOT
BRANCH   8   9
HETATM    9  C12 UNL     1      -8.006  24.346   5.432  1.00  0.00     0.046 C 
BRANCH   9  10
HETATM   10  C13 UNL     1      -6.626  24.875   5.354  1.00  0.00     0.043 C 
BRANCH  10  11
HETATM   11  C14 UNL     1      -5.866  24.382   6.546  1.00  0.00    -0.052 A 
HETATM   12  C15 UNL     1      -5.510  23.062   6.693  1.00  0.00     0.044 A 
HETATM   13  C16 UNL     1      -4.801  22.708   7.822  1.00  0.00     0.071 A 
HETATM   14  C18 UNL     1      -4.468  23.663   8.763  1.00  0.00     0.073 A 
HETATM   15  C19 UNL     1      -4.830  25.000   8.610  1.00  0.00     0.071 A 
HETATM   16  C21 UNL     1      -5.529  25.330   7.489  1.00  0.00     0.044 A 
BRANCH  13  17
HETATM   17  O1  UNL     1      -4.426  21.366   7.996  1.00  0.00    -0.356 OA
HETATM   18  C17 UNL     1      -4.392  20.540   6.861  1.00  0.00     0.210 C 
ENDBRANCH  13  17
BRANCH  15  19
HETATM   19  O2  UNL     1      -4.495  25.958   9.552  1.00  0.00    -0.356 OA
HETATM   20  C20 UNL     1      -4.230  27.289   9.159  1.00  0.00     0.210 C 
ENDBRANCH  15  19
ENDBRANCH  10  11
ENDBRANCH   9  10
ENDBRANCH   8   9
BRANCH   5  21
HETATM   21  C4  UNL     1      -9.806  24.281   0.919  1.00  0.00     0.043 C 
BRANCH  21  22
HETATM   22  C5  UNL     1      -8.866  24.286  -0.196  1.00  0.00    -0.017 A 
HETATM   23  C6  UNL     1      -8.457  23.160  -0.920  1.00  0.00     0.030 A 
HETATM   24  C7  UNL     1      -7.569  23.540  -1.888  1.00  0.00     0.088 A 
HETATM   25  N2  UNL     1      -7.417  24.889  -1.783  1.00  0.00    -0.374 N 
HETATM   26  C8  UNL     1      -8.188  25.341  -0.775  1.00  0.00     0.099 A 
ATOM     27  H2  UNL     1      -6.815  25.465  -2.372  1.00  0.00     0.164 HD
ENDBRANCH  21  22
ENDBRANCH   5  21
TORSDOF 7
ENDMDL
MODEL 2
REMARK VINA RESULT: -9.789885861      0.112      2.625
REMARK  7 active torsions:
REMARK  status: ('A' for Active; 'I' for Inactive)
REMARK    1  A    between atoms: C3_5  and  C4_6 
REMARK    2  A    between atoms: C4_6  and  C5_7 
REMARK    3  A    between atoms: C11_15  and  C12_16 
REMARK    4  A    between atoms: C12_16  and  C13_17 
REMARK    5  A    between atoms: C13_17  and  C14_18 
REMARK    6  A    between atoms: C16_20  and  O1_21 
REMARK    7  A    between atoms: C19_24  and  O2_25 
ROOT
HETATM    1  C1  UNL     1      -9.339  21.813   4.907  1.00  0.00     0.043 C 
HETATM    2  C2  UNL     1      -9.240  22.802   4.045  1.00  0.00     0.030 A 
HETATM    3  N1  UNL     1      -9.769  22.769   2.819  1.00  0.00    -0.356 N 
ATOM      4  H1  UNL     1     -10.301  22.000   2.412  1.00  0.00     0.166 HD
HETATM    5  C3  UNL     1      -9.473  23.933   2.221  1.00  0.00     0.040 A 
HETATM    6  C9  UNL     1      -8.740  24.732   3.074  1.00  0.00    -0.027 A 
HETATM    7  C10 UNL     1      -8.213  26.076   2.831  1.00  0.00     0.051 C 
HETATM    8  C11 UNL     1      -8.589  24.021   4.231  1.00  0.00    -0.024 A 
ENDROOT
BRANCH   8   9
HETATM    9  C12 UNL     1      -7.910  24.389   5.464  1.00  0.00     0.046 C 
BRANCH   9  10
HETATM   10  C13 UNL     1      -6.525  24.899   5.349  1.00  0.00     0.043 C 
BRANCH  10  11
HETATM   11  C14 UNL     1      -5.792  24.552   6.608  1.00  0.00    -0.052 A 
HETATM   12  C15 UNL     1      -5.480  25.496   7.558  1.00  0.00     0.044 A 
HETATM   13  C16 UNL     1      -4.812  25.074   8.689  1.00  0.00     0.071 A 
HETATM   14  C18 UNL     1      -4.475  23.743   8.844  1.00  0.00     0.073 A 
HETATM   15  C19 UNL     1      -4.793  22.790   7.878  1.00  0.00     0.071 A 
HETATM   16  C21 UNL     1      -5.452  23.225   6.770  1.00  0.00     0.044 A 
BRANCH  13  17
HETATM   17  O1  UNL     1      -4.482  26.019   9.675  1.00  0.00    -0.356 OA
HETATM   18  C17 UNL     1      -4.166  27.321   9.258  1.00  0.00     0.210 C 
ENDBRANCH  13  17
BRANCH  15  19
HETATM   19  O2  UNL     1      -4.457  21.456   8.034  1.00  0.00    -0.356 OA
HETATM   20  C20 UNL     1      -4.415  20.592   6.917  1.00  0.00     0.210 C 
ENDBRANCH  15  19
ENDBRANCH  10  11
ENDBRANCH   9  10
ENDBRANCH   8   9
BRANCH   5  21
HETATM   21  C4  UNL     1      -9.816  24.303   0.995  1.00  0.00     0.043 C 
BRANCH  21  22
HETATM   22  C5  UNL     1      -8.894  24.317  -0.135  1.00  0.00    -0.017 A 
HETATM   23  C6  UNL     1      -8.474  23.194  -0.856  1.00  0.00     0.030 A 
HETATM   24  C7  UNL     1      -7.611  23.583  -1.843  1.00  0.00     0.088 A 
HETATM   25  N2  UNL     1      -7.485  24.935  -1.752  1.00  0.00    -0.374 N 
HETATM   26  C8  UNL     1      -8.248  25.381  -0.735  1.00  0.00     0.099 A 
ATOM     27  H2  UNL     1      -6.905  25.518  -2.356  1.00  0.00     0.164 HD
ENDBRANCH  21  22
ENDBRANCH   5  21
TORSDOF 7
ENDMDL
MODEL 3
REMARK VINA RESULT: -9.657748149      4.398      6.222
REMARK  7 active torsions:
REMARK  status: ('A' for Active; 'I' for Inactive)
REMARK    1  A    between atoms: C3_5  and  C4_6 
REMARK    2  A    between atoms: C4_6  and  C5_7 
REMARK    3  A    between atoms: C11_15  and  C12_16 
REMARK    4  A    between atoms: C12_16  and  C13_17 
REMARK    5  A    between atoms: C13_17  and  C14_18 
REMARK    6  A    between atoms: C16_20  and  O1_21 
REMARK    7  A    between atoms: C19_24  and  O2_25 
ROOT
HETATM    1  C1  UNL     1      -7.129  24.487   5.180  1.00  0.00     0.043 C 
HETATM    2  C2  UNL     1      -7.895  24.508   4.110  1.00  0.00     0.030 A 
HETATM    3  N1  UNL     1      -7.582  25.165   2.991  1.00  0.00    -0.356 N 
ATOM      4  H1  UNL     1      -6.736  25.712   2.829  1.00  0.00     0.166 HD
HETATM    5  C3  UNL     1      -8.583  24.973   2.118  1.00  0.00     0.040 A 
HETATM    6  C9  UNL     1      -9.560  24.180   2.683  1.00  0.00    -0.027 A 
HETATM    7  C10 UNL     1     -10.817  23.724   2.087  1.00  0.00     0.051 C 
HETATM    8  C11 UNL     1      -9.130  23.882   3.945  1.00  0.00    -0.024 A 
ENDROOT
BRANCH   8   9
HETATM    9  C12 UNL     1      -9.764  23.071   4.974  1.00  0.00     0.046 C 
BRANCH   9  10
HETATM   10  C13 UNL     1     -10.011  23.712   6.285  1.00  0.00     0.043 C 
BRANCH  10  11
HETATM   11  C14 UNL     1     -11.483  23.953   6.419  1.00  0.00    -0.052 A 
HETATM   12  C15 UNL     1     -12.226  24.525   5.414  1.00  0.00     0.044 A 
HETATM   13  C16 UNL     1     -13.578  24.696   5.630  1.00  0.00     0.071 A 
HETATM   14  C18 UNL     1     -14.149  24.298   6.824  1.00  0.00     0.073 A 
HETATM   15  C19 UNL     1     -13.392  23.719   7.840  1.00  0.00     0.071 A 
HETATM   16  C21 UNL     1     -12.060  23.559   7.609  1.00  0.00     0.044 A 
BRANCH  13  17
HETATM   17  O1  UNL     1     -14.360  25.277   4.618  1.00  0.00    -0.356 OA
HETATM   18  C17 UNL     1     -15.685  24.838   4.475  1.00  0.00     0.210 C 
ENDBRANCH  13  17
BRANCH  15  19
HETATM   19  O2  UNL     1     -13.963  23.319   9.037  1.00  0.00    -0.356 OA
HETATM   20  C20 UNL     1     -15.103  23.981   9.543  1.00  0.00     0.210 C 
ENDBRANCH  15  19
ENDBRANCH  10  11
ENDBRANCH   9  10
ENDBRANCH   8   9
BRANCH   5  21
HETATM   21  C4  UNL     1      -8.662  25.455   0.885  1.00  0.00     0.043 C 
BRANCH  21  22
HETATM   22  C5  UNL     1      -8.149  24.763  -0.291  1.00  0.00    -0.017 A 
HETATM   23  C6  UNL     1      -8.140  25.272  -1.595  1.00  0.00     0.030 A 
HETATM   24  C7  UNL     1      -7.587  24.349  -2.439  1.00  0.00     0.088 A 
HETATM   25  N2  UNL     1      -7.248  23.269  -1.683  1.00  0.00    -0.374 N 
HETATM   26  C8  UNL     1      -7.580  23.509  -0.399  1.00  0.00     0.099 A 
ATOM     27  H2  UNL     1      -6.812  22.415  -2.032  1.00  0.00     0.164 HD
ENDBRANCH  21  22
ENDBRANCH   5  21
TORSDOF 7
ENDMDL
MODEL 4
REMARK VINA RESULT: -9.557404216      4.431      6.266
REMARK  7 active torsions:
REMARK  status: ('A' for Active; 'I' for Inactive)
REMARK    1  A    between atoms: C3_5  and  C4_6 
REMARK    2  A    between atoms: C4_6  and  C5_7 
REMARK    3  A    between atoms: C11_15  and  C12_16 
REMARK    4  A    between atoms: C12_16  and  C13_17 
REMARK    5  A    between atoms: C13_17  and  C14_18 
REMARK    6  A    between atoms: C16_20  and  O1_21 
REMARK    7  A    between atoms: C19_24  and  O2_25 
ROOT
HETATM    1  C1  UNL     1      -7.096  24.409   5.299  1.00  0.00     0.043 C 
HETATM    2  C2  UNL     1      -7.880  24.463   4.244  1.00  0.00     0.030 A 
HETATM    3  N1  UNL     1      -7.558  25.103   3.117  1.00  0.00    -0.356 N 
ATOM      4  H1  UNL     1      -6.692  25.612   2.938  1.00  0.00     0.166 HD
HETATM    5  C3  UNL     1      -8.583  24.955   2.263  1.00  0.00     0.040 A 
HETATM    6  C9  UNL     1      -9.584  24.207   2.848  1.00  0.00    -0.027 A 
HETATM    7  C10 UNL     1     -10.870  23.807   2.276  1.00  0.00     0.051 C 
HETATM    8  C11 UNL     1      -9.144  23.892   4.103  1.00  0.00    -0.024 A 
ENDROOT
BRANCH   8   9
HETATM    9  C12 UNL     1      -9.795  23.113   5.145  1.00  0.00     0.046 C 
BRANCH   9  10
HETATM   10  C13 UNL     1     -10.053  23.789   6.436  1.00  0.00     0.043 C 
BRANCH  10  11
HETATM   11  C14 UNL     1     -11.535  23.915   6.611  1.00  0.00    -0.052 A 
HETATM   12  C15 UNL     1     -12.177  23.487   7.749  1.00  0.00     0.044 A 
HETATM   13  C16 UNL     1     -13.545  23.658   7.819  1.00  0.00     0.071 A 
HETATM   14  C18 UNL     1     -14.228  24.242   6.771  1.00  0.00     0.073 A 
HETATM   15  C19 UNL     1     -13.573  24.674   5.619  1.00  0.00     0.071 A 
HETATM   16  C21 UNL     1     -12.225  24.497   5.568  1.00  0.00     0.044 A 
BRANCH  13  17
HETATM   17  O1  UNL     1     -14.224  23.229   8.972  1.00  0.00    -0.356 OA
HETATM   18  C17 UNL     1     -15.078  24.142   9.610  1.00  0.00     0.210 C 
ENDBRANCH  13  17
BRANCH  15  19
HETATM   19  O2  UNL     1     -14.258  25.260   4.568  1.00  0.00    -0.356 OA
HETATM   20  C20 UNL     1     -15.623  24.969   4.349  1.00  0.00     0.210 C 
ENDBRANCH  15  19
ENDBRANCH  10  11
ENDBRANCH   9  10
ENDBRANCH   8   9
BRANCH   5  21
HETATM   21  C4  UNL     1      -8.663  25.438   1.031  1.00  0.00     0.043 C 
BRANCH  21  22
HETATM   22  C5  UNL     1      -8.176  24.735  -0.150  1.00  0.00    -0.017 A 
HETATM   23  C6  UNL     1      -8.272  25.195  -1.468  1.00  0.00     0.030 A 
HETATM   24  C7  UNL     1      -7.713  24.276  -2.312  1.00  0.00     0.088 A 
HETATM   25  N2  UNL     1      -7.268  23.245  -1.542  1.00  0.00    -0.374 N 
HETATM   26  C8  UNL     1      -7.540  23.513  -0.249  1.00  0.00     0.099 A 
ATOM     27  H2  UNL     1      -6.802  22.406  -1.887  1.00  0.00     0.164 HD
ENDBRANCH  21  22
ENDBRANCH   5  21
TORSDOF 7
ENDMDL
MODEL 5
REMARK VINA RESULT: -9.335830315      1.415      3.320
REMARK  7 active torsions:
REMARK  status: ('A' for Active; 'I' for Inactive)
REMARK    1  A    between atoms: C3_5  and  C4_6 
REMARK    2  A    between atoms: C4_6  and  C5_7 
REMARK    3  A    between atoms: C11_15  and  C12_16 
REMARK    4  A    between atoms: C12_16  and  C13_17 
REMARK    5  A    between atoms: C13_17  and  C14_18 
REMARK    6  A    between atoms: C16_20  and  O1_21 
REMARK    7  A    between atoms: C19_24  and  O2_25 
ROOT
HETATM    1  C1  UNL     1      -8.095  26.575   3.630  1.00  0.00     0.043 C 
HETATM    2  C2  UNL     1      -8.598  25.630   2.864  1.00  0.00     0.030 A 
HETATM    3  N1  UNL     1      -8.704  25.733   1.537  1.00  0.00    -0.356 N 
ATOM      4  H1  UNL     1      -8.415  26.530   0.969  1.00  0.00     0.166 HD
HETATM    5  C3  UNL     1      -9.260  24.597   1.087  1.00  0.00     0.040 A 
HETATM    6  C9  UNL     1      -9.518  23.746   2.142  1.00  0.00    -0.027 A 
HETATM    7  C10 UNL     1     -10.114  22.409   2.104  1.00  0.00     0.051 C 
HETATM    8  C11 UNL     1      -9.101  24.394   3.270  1.00  0.00    -0.024 A 
ENDROOT
BRANCH   8   9
HETATM    9  C12 UNL     1      -9.128  23.954   4.657  1.00  0.00     0.046 C 
BRANCH   9  10
HETATM   10  C13 UNL     1      -8.351  22.741   4.998  1.00  0.00     0.043 C 
BRANCH  10  11
HETATM   11  C14 UNL     1      -7.100  23.168   5.702  1.00  0.00    -0.052 A 
HETATM   12  C15 UNL     1      -6.712  24.485   5.771  1.00  0.00     0.044 A 
HETATM   13  C16 UNL     1      -5.548  24.778   6.452  1.00  0.00     0.071 A 
HETATM   14  C18 UNL     1      -4.812  23.768   7.040  1.00  0.00     0.073 A 
HETATM   15  C19 UNL     1      -5.210  22.434   6.968  1.00  0.00     0.071 A 
HETATM   16  C21 UNL     1      -6.360  22.164   6.292  1.00  0.00     0.044 A 
BRANCH  13  17
HETATM   17  O1  UNL     1      -5.130  26.116   6.537  1.00  0.00    -0.356 OA
HETATM   18  C17 UNL     1      -4.415  26.511   7.679  1.00  0.00     0.210 C 
ENDBRANCH  13  17
BRANCH  15  19
HETATM   19  O2  UNL     1      -4.473  21.421   7.558  1.00  0.00    -0.356 OA
HETATM   20  C20 UNL     1      -4.255  20.203   6.877  1.00  0.00     0.210 C 
ENDBRANCH  15  19
ENDBRANCH  10  11
ENDBRANCH   9  10
ENDBRANCH   8   9
BRANCH   5  21
HETATM   21  C4  UNL     1      -9.536  24.296  -0.174  1.00  0.00     0.043 C 
BRANCH  21  22
HETATM   22  C5  UNL     1      -8.750  24.761  -1.310  1.00  0.00    -0.017 A 
HETATM   23  C6  UNL     1      -9.010  24.467  -2.654  1.00  0.00     0.030 A 
HETATM   24  C7  UNL     1      -8.067  25.069  -3.441  1.00  0.00     0.088 A 
HETATM   25  N2  UNL     1      -7.221  25.738  -2.610  1.00  0.00    -0.374 N 
HETATM   26  C8  UNL     1      -7.623  25.559  -1.337  1.00  0.00     0.099 A 
ATOM     27  H2  UNL     1      -6.413  26.286  -2.905  1.00  0.00     0.164 HD
ENDBRANCH  21  22
ENDBRANCH   5  21
TORSDOF 7
ENDMDL
