MODEL 1
REMARK VINA RESULT: -6.892760889      0.000      0.000
REMARK  5 active torsions:
REMARK  status: ('A' for Active; 'I' for Inactive)
REMARK    1  A    between atoms: N1_2  and  C3_4 
REMARK       I    between atoms: N2_5  and  C4_7 
REMARK       I    between atoms: C4_7  and  N4_11 
REMARK    2  A    between atoms: N4_11  and  C5_13 
REMARK    3  A    between atoms: C5_13  and  C6_14 
REMARK    4  A    between atoms: C6_14  and  O1_15 
REMARK    5  A    between atoms: O1_15  and  C7_16 
ROOT
HETATM    1  C3  UNL     1      -1.192  12.119   4.747  1.00  0.00     0.195 C 
HETATM    2  N2  UNL     1      -0.158  12.352   5.462  1.00  0.00    -0.189 N 
ATOM      3  H2  UNL     1       0.396  13.194   5.301  1.00  0.00     0.184 HD
HETATM    4  C4  UNL     1       0.224  11.424   6.498  1.00  0.00     0.672 C 
HETATM    5  N3  UNL     1       1.481  11.296   6.676  1.00  0.00    -0.235 N 
ATOM      6  H31 UNL     1       1.750  10.640   7.408  1.00  0.00     0.174 HD
ATOM      7  H32 UNL     1       2.219  11.779   6.165  1.00  0.00     0.174 HD
HETATM    8  N4  UNL     1      -0.787  10.764   7.196  1.00  0.00    -0.224 N 
ATOM      9  H4  UNL     1      -1.563  10.373   6.662  1.00  0.00     0.177 HD
ENDROOT
BRANCH   8  10
HETATM   10  C5  UNL     1      -0.800  10.603   8.617  1.00  0.00     0.164 C 
BRANCH  10  11
HETATM   11  C6  UNL     1      -0.688  11.938   9.299  1.00  0.00     0.196 C 
BRANCH  11  12
HETATM   12  O1  UNL     1      -1.562  12.842   8.744  1.00  0.00    -0.350 OA
BRANCH  12  13
HETATM   13  C7  UNL     1      -2.918  12.900   8.777  1.00  0.00     0.068 A 
HETATM   14  C8  UNL     1      -3.679  13.004   9.899  1.00  0.00     0.038 A 
HETATM   15  C9  UNL     1      -5.088  13.053   9.877  1.00  0.00     0.029 A 
HETATM   16  C10 UNL     1      -5.744  12.996   8.667  1.00  0.00     0.046 A 
HETATM   17  N5  UNL     1      -7.163  13.043   8.612  1.00  0.00    -0.102 NA
HETATM   18  C11 UNL     1      -4.981  12.892   7.520  1.00  0.00     0.029 A 
HETATM   19  C12 UNL     1      -3.607  12.843   7.548  1.00  0.00     0.038 A 
ENDBRANCH  12  13
ENDBRANCH  11  12
ENDBRANCH  10  11
ENDBRANCH   8  10
BRANCH   1  20
HETATM   20  N1  UNL     1      -1.549  13.046   3.733  1.00  0.00    -0.385 N 
HETATM   21  C1  UNL     1      -2.566  14.013   4.053  1.00  0.00     0.149 C 
HETATM   22  C2  UNL     1      -0.912  13.000   2.456  1.00  0.00     0.149 C 
ENDBRANCH   1  20
TORSDOF 5
ENDMDL
MODEL 2
REMARK VINA RESULT: -6.845228021      0.392      1.172
REMARK  5 active torsions:
REMARK  status: ('A' for Active; 'I' for Inactive)
REMARK    1  A    between atoms: N1_2  and  C3_4 
REMARK       I    between atoms: N2_5  and  C4_7 
REMARK       I    between atoms: C4_7  and  N4_11 
REMARK    2  A    between atoms: N4_11  and  C5_13 
REMARK    3  A    between atoms: C5_13  and  C6_14 
REMARK    4  A    between atoms: C6_14  and  O1_15 
REMARK    5  A    between atoms: O1_15  and  C7_16 
ROOT
HETATM    1  C3  UNL     1      -1.148  12.131   4.606  1.00  0.00     0.195 C 
HETATM    2  N2  UNL     1      -0.142  12.358   5.363  1.00  0.00    -0.189 N 
ATOM      3  H2  UNL     1       0.454  13.168   5.192  1.00  0.00     0.184 HD
HETATM    4  C4  UNL     1       0.148  11.466   6.458  1.00  0.00     0.672 C 
HETATM    5  N3  UNL     1       1.388  11.297   6.707  1.00  0.00    -0.235 N 
ATOM      6  H31 UNL     1       1.593  10.667   7.482  1.00  0.00     0.174 HD
ATOM      7  H32 UNL     1       2.171  11.725   6.214  1.00  0.00     0.174 HD
HETATM    8  N4  UNL     1      -0.923  10.881   7.133  1.00  0.00    -0.224 N 
ATOM      9  H4  UNL     1      -1.687  10.495   6.578  1.00  0.00     0.177 HD
ENDROOT
BRANCH   8  10
HETATM   10  C5  UNL     1      -1.014  10.789   8.557  1.00  0.00     0.164 C 
BRANCH  10  11
HETATM   11  C6  UNL     1      -0.941  12.155   9.178  1.00  0.00     0.196 C 
BRANCH  11  12
HETATM   12  O1  UNL     1      -1.911  12.978   8.658  1.00  0.00    -0.350 OA
BRANCH  12  13
HETATM   13  C7  UNL     1      -3.264  12.928   8.757  1.00  0.00     0.068 A 
HETATM   14  C8  UNL     1      -4.131  12.816   7.716  1.00  0.00     0.038 A 
HETATM   15  C9  UNL     1      -5.531  12.775   7.876  1.00  0.00     0.029 A 
HETATM   16  C10 UNL     1      -6.066  12.850   9.143  1.00  0.00     0.046 A 
HETATM   17  N5  UNL     1      -7.474  12.812   9.336  1.00  0.00    -0.102 NA
HETATM   18  C11 UNL     1      -5.195  12.963  10.208  1.00  0.00     0.029 A 
HETATM   19  C12 UNL     1      -3.831  13.004  10.047  1.00  0.00     0.038 A 
ENDBRANCH  12  13
ENDBRANCH  11  12
ENDBRANCH  10  11
ENDBRANCH   8  10
BRANCH   1  20
HETATM   20  N1  UNL     1      -1.414  13.022   3.534  1.00  0.00    -0.385 N 
HETATM   21  C1  UNL     1      -2.364  14.077   3.774  1.00  0.00     0.149 C 
HETATM   22  C2  UNL     1      -0.756  12.857   2.277  1.00  0.00     0.149 C 
ENDBRANCH   1  20
TORSDOF 5
ENDMDL
MODEL 3
REMARK VINA RESULT: -6.524851432      1.036      1.140
REMARK  5 active torsions:
REMARK  status: ('A' for Active; 'I' for Inactive)
REMARK    1  A    between atoms: N1_2  and  C3_4 
REMARK       I    between atoms: N2_5  and  C4_7 
REMARK       I    between atoms: C4_7  and  N4_11 
REMARK    2  A    between atoms: N4_11  and  C5_13 
REMARK    3  A    between atoms: C5_13  and  C6_14 
REMARK    4  A    between atoms: C6_14  and  O1_15 
REMARK    5  A    between atoms: O1_15  and  C7_16 
ROOT
HETATM    1  C3  UNL     1      -2.484  12.010   4.776  1.00  0.00     0.195 C 
HETATM    2  N2  UNL     1      -1.355  12.423   5.212  1.00  0.00    -0.189 N 
ATOM      3  H2  UNL     1      -0.986  13.323   4.903  1.00  0.00     0.184 HD
HETATM    4  C4  UNL     1      -0.606  11.616   6.143  1.00  0.00     0.672 C 
HETATM    5  N3  UNL     1       0.662  11.673   6.013  1.00  0.00    -0.235 N 
ATOM      6  H31 UNL     1       1.192  11.102   6.671  1.00  0.00     0.174 HD
ATOM      7  H32 UNL     1       1.179  12.223   5.328  1.00  0.00     0.174 HD
HETATM    8  N4  UNL     1      -1.313  10.864   7.081  1.00  0.00    -0.224 N 
ATOM      9  H4  UNL     1      -2.127  10.340   6.760  1.00  0.00     0.177 HD
ENDROOT
BRANCH   8  10
HETATM   10  C5  UNL     1      -0.964  10.782   8.465  1.00  0.00     0.164 C 
BRANCH  10  11
HETATM   11  C6  UNL     1      -1.027  12.141   9.104  1.00  0.00     0.196 C 
BRANCH  11  12
HETATM   12  O1  UNL     1      -2.048  12.886   8.562  1.00  0.00    -0.350 OA
BRANCH  12  13
HETATM   13  C7  UNL     1      -3.380  12.886   8.821  1.00  0.00     0.068 A 
HETATM   14  C8  UNL     1      -3.947  12.966  10.054  1.00  0.00     0.038 A 
HETATM   15  C9  UNL     1      -5.341  12.956  10.267  1.00  0.00     0.029 A 
HETATM   16  C10 UNL     1      -6.186  12.861   9.184  1.00  0.00     0.046 A 
HETATM   17  N5  UNL     1      -7.596  12.847   9.366  1.00  0.00    -0.102 NA
HETATM   18  C11 UNL     1      -5.622  12.781   7.926  1.00  0.00     0.029 A 
HETATM   19  C12 UNL     1      -4.262  12.791   7.724  1.00  0.00     0.038 A 
ENDBRANCH  12  13
ENDBRANCH  11  12
ENDBRANCH  10  11
ENDBRANCH   8  10
BRANCH   1  20
HETATM   20  N1  UNL     1      -3.204  12.820   3.859  1.00  0.00    -0.385 N 
HETATM   21  C1  UNL     1      -2.928  14.233   3.872  1.00  0.00     0.149 C 
HETATM   22  C2  UNL     1      -4.158  12.236   2.972  1.00  0.00     0.149 C 
ENDBRANCH   1  20
TORSDOF 5
ENDMDL
MODEL 4
REMARK VINA RESULT: -6.443266622      1.271      1.623
REMARK  5 active torsions:
REMARK  status: ('A' for Active; 'I' for Inactive)
REMARK    1  A    between atoms: N1_2  and  C3_4 
REMARK       I    between atoms: N2_5  and  C4_7 
REMARK       I    between atoms: C4_7  and  N4_11 
REMARK    2  A    between atoms: N4_11  and  C5_13 
REMARK    3  A    between atoms: C5_13  and  C6_14 
REMARK    4  A    between atoms: C6_14  and  O1_15 
REMARK    5  A    between atoms: O1_15  and  C7_16 
ROOT
HETATM    1  C3  UNL     1      -0.804  13.294   4.078  1.00  0.00     0.195 C 
HETATM    2  N2  UNL     1      -0.788  12.095   4.523  1.00  0.00    -0.189 N 
ATOM      3  H2  UNL     1      -0.538  11.324   3.903  1.00  0.00     0.184 HD
HETATM    4  C4  UNL     1      -1.121  11.836   5.901  1.00  0.00     0.672 C 
HETATM    5  N3  UNL     1      -1.740  10.740   6.113  1.00  0.00    -0.235 N 
ATOM      6  H31 UNL     1      -1.975  10.556   7.088  1.00  0.00     0.174 HD
ATOM      7  H32 UNL     1      -2.011  10.050   5.414  1.00  0.00     0.174 HD
HETATM    8  N4  UNL     1      -0.749  12.779   6.858  1.00  0.00    -0.224 N 
ATOM      9  H4  UNL     1      -0.915  13.764   6.651  1.00  0.00     0.177 HD
ENDROOT
BRANCH   8  10
HETATM   10  C5  UNL     1      -0.148  12.448   8.113  1.00  0.00     0.164 C 
BRANCH  10  11
HETATM   11  C6  UNL     1      -1.205  12.161   9.143  1.00  0.00     0.196 C 
BRANCH  11  12
HETATM   12  O1  UNL     1      -2.211  13.096   9.080  1.00  0.00    -0.350 OA
BRANCH  12  13
HETATM   13  C7  UNL     1      -3.560  12.953   9.133  1.00  0.00     0.068 A 
HETATM   14  C8  UNL     1      -4.314  12.968  10.265  1.00  0.00     0.038 A 
HETATM   15  C9  UNL     1      -5.715  12.808  10.263  1.00  0.00     0.029 A 
HETATM   16  C10 UNL     1      -6.370  12.628   9.065  1.00  0.00     0.046 A 
HETATM   17  N5  UNL     1      -7.781  12.463   9.031  1.00  0.00    -0.102 NA
HETATM   18  C11 UNL     1      -5.615  12.612   7.909  1.00  0.00     0.029 A 
HETATM   19  C12 UNL     1      -4.249  12.768   7.916  1.00  0.00     0.038 A 
ENDBRANCH  12  13
ENDBRANCH  11  12
ENDBRANCH  10  11
ENDBRANCH   8  10
BRANCH   1  20
HETATM   20  N1  UNL     1      -0.473  13.526   2.718  1.00  0.00    -0.385 N 
HETATM   21  C1  UNL     1      -0.844  12.511   1.767  1.00  0.00     0.149 C 
HETATM   22  C2  UNL     1       0.200  14.725   2.332  1.00  0.00     0.149 C 
ENDBRANCH   1  20
TORSDOF 5
ENDMDL
MODEL 5
REMARK VINA RESULT: -6.349199571      1.236      1.911
REMARK  5 active torsions:
REMARK  status: ('A' for Active; 'I' for Inactive)
REMARK    1  A    between atoms: N1_2  and  C3_4 
REMARK       I    between atoms: N2_5  and  C4_7 
REMARK       I    between atoms: C4_7  and  N4_11 
REMARK    2  A    between atoms: N4_11  and  C5_13 
REMARK    3  A    between atoms: C5_13  and  C6_14 
REMARK    4  A    between atoms: C6_14  and  O1_15 
REMARK    5  A    between atoms: O1_15  and  C7_16 
ROOT
HETATM    1  C3  UNL     1      -0.710  13.332   4.072  1.00  0.00     0.195 C 
HETATM    2  N2  UNL     1      -0.736  12.125   4.495  1.00  0.00    -0.189 N 
ATOM      3  H2  UNL     1      -0.517  11.357   3.861  1.00  0.00     0.184 HD
HETATM    4  C4  UNL     1      -1.074  11.854   5.870  1.00  0.00     0.672 C 
HETATM    5  N3  UNL     1      -1.732  10.778   6.064  1.00  0.00    -0.235 N 
ATOM      6  H31 UNL     1      -1.971  10.585   7.037  1.00  0.00     0.174 HD
ATOM      7  H32 UNL     1      -2.032  10.111   5.353  1.00  0.00     0.174 HD
HETATM    8  N4  UNL     1      -0.664  12.765   6.842  1.00  0.00    -0.224 N 
ATOM      9  H4  UNL     1      -0.794  13.759   6.654  1.00  0.00     0.177 HD
ENDROOT
BRANCH   8  10
HETATM   10  C5  UNL     1      -0.072  12.389   8.089  1.00  0.00     0.164 C 
BRANCH  10  11
HETATM   11  C6  UNL     1      -1.136  12.081   9.105  1.00  0.00     0.196 C 
BRANCH  11  12
HETATM   12  O1  UNL     1      -2.127  13.034   9.075  1.00  0.00    -0.350 OA
BRANCH  12  13
HETATM   13  C7  UNL     1      -3.478  12.908   9.012  1.00  0.00     0.068 A 
HETATM   14  C8  UNL     1      -4.202  12.707   7.878  1.00  0.00     0.038 A 
HETATM   15  C9  UNL     1      -5.607  12.590   7.868  1.00  0.00     0.029 A 
HETATM   16  C10 UNL     1      -6.297  12.679   9.057  1.00  0.00     0.046 A 
HETATM   17  N5  UNL     1      -7.714  12.565   9.079  1.00  0.00    -0.102 NA
HETATM   18  C11 UNL     1      -5.572  12.881  10.214  1.00  0.00     0.029 A 
HETATM   19  C12 UNL     1      -4.202  12.996  10.218  1.00  0.00     0.038 A 
ENDBRANCH  12  13
ENDBRANCH  11  12
ENDBRANCH  10  11
ENDBRANCH   8  10
BRANCH   1  20
HETATM   20  N1  UNL     1      -0.375  13.577   2.715  1.00  0.00    -0.385 N 
HETATM   21  C1  UNL     1       0.148  14.878   2.389  1.00  0.00     0.149 C 
HETATM   22  C2  UNL     1      -0.559  12.559   1.730  1.00  0.00     0.149 C 
ENDBRANCH   1  20
TORSDOF 5
ENDMDL
