MODEL 1
REMARK VINA RESULT: -7.144613928      0.000      0.000
REMARK  3 active torsions:
REMARK  status: ('A' for Active; 'I' for Inactive)
REMARK    1  A    between atoms: C2_2  and  C4_4 
REMARK    2  A    between atoms: C4_4  and  O1_5 
REMARK    3  A    between atoms: C9_11  and  O2_12 
ROOT
HETATM    1  C4  UNL     1      14.616  -3.237  12.573  1.00  0.00     0.069 C 
HETATM    2  C5  UNL     1      13.897  -2.169  11.811  1.00  0.00     0.050 C 
HETATM    3  C6  UNL     1      12.432  -2.260  11.684  1.00  0.00    -0.019 C 
HETATM    4  C7  UNL     1      12.019  -2.723  10.275  1.00  0.00     0.017 C 
HETATM    5  C8  UNL     1      11.756  -0.883  11.825  1.00  0.00     0.017 C 
HETATM    6  C9  UNL     1      11.710  -3.165  12.638  1.00  0.00     0.131 C 
HETATM    7  C10 UNL     1      12.425  -4.449  12.616  1.00  0.00     0.026 C 
HETATM    8  C11 UNL     1      11.818  -5.601  13.295  1.00  0.00     0.008 C 
HETATM    9  C12 UNL     1      12.994  -6.493  13.570  1.00  0.00     0.001 C 
HETATM   10  C13 UNL     1      14.258  -5.675  13.260  1.00  0.00     0.012 C 
HETATM   11  C14 UNL     1      13.825  -4.255  13.222  1.00  0.00    -0.007 C 
HETATM   12  C15 UNL     1      13.578  -3.905  14.704  1.00  0.00     0.019 C 
ENDROOT
BRANCH   1  13
HETATM   13  C2  UNL     1      15.827  -3.655  11.762  1.00  0.00     0.012 C 
HETATM   14  C1  UNL     1      17.153  -3.420  12.340  1.00  0.00     0.012 C 
HETATM   15  C3  UNL     1      15.700  -3.303  10.300  1.00  0.00     0.012 C 
ENDBRANCH   1  13
BRANCH   1  16
HETATM   16  O1  UNL     1      15.298  -2.531  13.623  1.00  0.00    -0.389 OA
ATOM     17  H1  UNL     1      14.630  -1.884  13.814  1.00  0.00     0.210 HD
ENDBRANCH   1  16
BRANCH   6  18
HETATM   18  O2  UNL     1      11.483  -2.594  13.857  1.00  0.00    -0.394 OA
ATOM     19  H2  UNL     1      10.589  -2.698  14.161  1.00  0.00     0.210 HD
ENDBRANCH   6  18
TORSDOF 3
ENDMDL
MODEL 2
REMARK VINA RESULT: -6.641829214      1.407      4.067
REMARK  3 active torsions:
REMARK  status: ('A' for Active; 'I' for Inactive)
REMARK    1  A    between atoms: C2_2  and  C4_4 
REMARK    2  A    between atoms: C4_4  and  O1_5 
REMARK    3  A    between atoms: C9_11  and  O2_12 
ROOT
HETATM    1  C4  UNL     1      13.814  -3.464  12.506  1.00  0.00     0.069 C 
HETATM    2  C5  UNL     1      13.073  -4.269  13.526  1.00  0.00     0.050 C 
HETATM    3  C6  UNL     1      13.643  -5.558  13.956  1.00  0.00    -0.019 C 
HETATM    4  C7  UNL     1      12.885  -6.743  13.330  1.00  0.00     0.017 C 
HETATM    5  C8  UNL     1      13.479  -5.783  15.471  1.00  0.00     0.017 C 
HETATM    6  C9  UNL     1      15.094  -5.804  13.665  1.00  0.00     0.131 C 
HETATM    7  C10 UNL     1      15.298  -5.465  12.249  1.00  0.00     0.026 C 
HETATM    8  C11 UNL     1      16.581  -5.811  11.623  1.00  0.00     0.008 C 
HETATM    9  C12 UNL     1      16.661  -4.861  10.464  1.00  0.00     0.001 C 
HETATM   10  C13 UNL     1      15.528  -3.838  10.643  1.00  0.00     0.012 C 
HETATM   11  C14 UNL     1      15.098  -3.953  12.061  1.00  0.00    -0.007 C 
HETATM   12  C15 UNL     1      16.247  -3.292  12.849  1.00  0.00     0.019 C 
ENDROOT
BRANCH   1  13
HETATM   13  C2  UNL     1      12.814  -2.983  11.473  1.00  0.00     0.012 C 
HETATM   14  C1  UNL     1      12.816  -1.559  11.128  1.00  0.00     0.012 C 
HETATM   15  C3  UNL     1      11.445  -3.590  11.662  1.00  0.00     0.012 C 
ENDBRANCH   1  13
BRANCH   1  16
HETATM   16  O1  UNL     1      14.068  -2.207  13.155  1.00  0.00    -0.389 OA
ATOM     17  H1  UNL     1      14.480  -2.538  13.945  1.00  0.00     0.210 HD
ENDBRANCH   1  16
BRANCH   6  18
HETATM   18  O2  UNL     1      15.933  -5.228  14.575  1.00  0.00    -0.394 OA
ATOM     19  H2  UNL     1      16.724  -5.732  14.729  1.00  0.00     0.210 HD
ENDBRANCH   6  18
TORSDOF 3
ENDMDL
MODEL 3
REMARK VINA RESULT: -6.603212741      1.568      4.795
REMARK  3 active torsions:
REMARK  status: ('A' for Active; 'I' for Inactive)
REMARK    1  A    between atoms: C2_2  and  C4_4 
REMARK    2  A    between atoms: C4_4  and  O1_5 
REMARK    3  A    between atoms: C9_11  and  O2_12 
ROOT
HETATM    1  C4  UNL     1      13.676  -4.478  13.453  1.00  0.00     0.069 C 
HETATM    2  C5  UNL     1      14.252  -5.712  14.071  1.00  0.00     0.050 C 
HETATM    3  C6  UNL     1      15.559  -6.197  13.592  1.00  0.00    -0.019 C 
HETATM    4  C7  UNL     1      15.400  -7.433  12.689  1.00  0.00     0.017 C 
HETATM    5  C8  UNL     1      16.443  -6.702  14.747  1.00  0.00     0.017 C 
HETATM    6  C9  UNL     1      16.411  -5.235  12.819  1.00  0.00     0.131 C 
HETATM    7  C10 UNL     1      15.544  -4.641  11.792  1.00  0.00     0.026 C 
HETATM    8  C11 UNL     1      16.160  -3.815  10.745  1.00  0.00     0.008 C 
HETATM    9  C12 UNL     1      15.023  -2.956  10.275  1.00  0.00     0.001 C 
HETATM   10  C13 UNL     1      13.868  -3.159  11.269  1.00  0.00     0.012 C 
HETATM   11  C14 UNL     1      14.475  -3.774  12.477  1.00  0.00    -0.007 C 
HETATM   12  C15 UNL     1      15.253  -2.614  13.131  1.00  0.00     0.019 C 
ENDROOT
BRANCH   1  13
HETATM   13  C2  UNL     1      12.215  -4.745  13.149  1.00  0.00     0.012 C 
HETATM   14  C1  UNL     1      11.224  -3.790  13.652  1.00  0.00     0.012 C 
HETATM   15  C3  UNL     1      11.841  -6.197  13.319  1.00  0.00     0.012 C 
ENDBRANCH   1  13
BRANCH   1  16
HETATM   16  O1  UNL     1      13.500  -3.572  14.554  1.00  0.00    -0.389 OA
ATOM     17  H1  UNL     1      14.076  -2.877  14.258  1.00  0.00     0.210 HD
ENDBRANCH   1  16
BRANCH   6  18
HETATM   18  O2  UNL     1      17.117  -4.379  13.615  1.00  0.00    -0.394 OA
ATOM     19  H2  UNL     1      18.031  -4.300  13.365  1.00  0.00     0.210 HD
ENDBRANCH   6  18
TORSDOF 3
ENDMDL
MODEL 4
REMARK VINA RESULT: -6.549655845      1.970      4.965
REMARK  3 active torsions:
REMARK  status: ('A' for Active; 'I' for Inactive)
REMARK    1  A    between atoms: C2_2  and  C4_4 
REMARK    2  A    between atoms: C4_4  and  O1_5 
REMARK    3  A    between atoms: C9_11  and  O2_12 
ROOT
HETATM    1  C4  UNL     1      13.726  -4.587  14.005  1.00  0.00     0.069 C 
HETATM    2  C5  UNL     1      13.909  -5.520  15.160  1.00  0.00     0.050 C 
HETATM    3  C6  UNL     1      15.203  -6.209  15.311  1.00  0.00    -0.019 C 
HETATM    4  C7  UNL     1      15.104  -7.686  14.891  1.00  0.00     0.017 C 
HETATM    5  C8  UNL     1      15.648  -6.279  16.784  1.00  0.00     0.017 C 
HETATM    6  C9  UNL     1      16.375  -5.650  14.560  1.00  0.00     0.131 C 
HETATM    7  C10 UNL     1      15.925  -5.450  13.174  1.00  0.00     0.026 C 
HETATM    8  C11 UNL     1      16.926  -5.111  12.154  1.00  0.00     0.008 C 
HETATM    9  C12 UNL     1      16.111  -4.443  11.086  1.00  0.00     0.001 C 
HETATM   10  C13 UNL     1      14.712  -4.202  11.676  1.00  0.00     0.012 C 
HETATM   11  C14 UNL     1      14.861  -4.342  13.147  1.00  0.00    -0.007 C 
HETATM   12  C15 UNL     1      15.605  -3.057  13.566  1.00  0.00     0.019 C 
ENDROOT
BRANCH   1  13
HETATM   13  C2  UNL     1      12.380  -4.883  13.373  1.00  0.00     0.012 C 
HETATM   14  C1  UNL     1      11.273  -3.965  13.658  1.00  0.00     0.012 C 
HETATM   15  C3  UNL     1      12.020  -6.348  13.427  1.00  0.00     0.012 C 
ENDBRANCH   1  13
BRANCH   1  16
HETATM   16  O1  UNL     1      13.402  -3.324  14.611  1.00  0.00    -0.389 OA
ATOM     17  H1  UNL     1      13.136  -2.857  13.828  1.00  0.00     0.210 HD
ENDBRANCH   1  16
BRANCH   6  18
HETATM   18  O2  UNL     1      16.963  -4.590  15.187  1.00  0.00    -0.394 OA
ATOM     19  H2  UNL     1      17.574  -4.117  14.633  1.00  0.00     0.210 HD
ENDBRANCH   6  18
TORSDOF 3
ENDMDL
MODEL 5
REMARK VINA RESULT: -6.204403937      2.037      3.504
REMARK  3 active torsions:
REMARK  status: ('A' for Active; 'I' for Inactive)
REMARK    1  A    between atoms: C2_2  and  C4_4 
REMARK    2  A    between atoms: C4_4  and  O1_5 
REMARK    3  A    between atoms: C9_11  and  O2_12 
ROOT
HETATM    1  C4  UNL     1      15.573  -5.203  14.801  1.00  0.00     0.069 C 
HETATM    2  C5  UNL     1      16.417  -4.730  13.660  1.00  0.00     0.050 C 
HETATM    3  C6  UNL     1      15.752  -4.350  12.402  1.00  0.00    -0.019 C 
HETATM    4  C7  UNL     1      15.936  -5.432  11.322  1.00  0.00     0.017 C 
HETATM    5  C8  UNL     1      16.386  -3.096  11.771  1.00  0.00     0.017 C 
HETATM    6  C9  UNL     1      14.278  -4.076  12.454  1.00  0.00     0.131 C 
HETATM    7  C10 UNL     1      13.669  -5.204  13.174  1.00  0.00     0.026 C 
HETATM    8  C11 UNL     1      12.205  -5.315  13.194  1.00  0.00     0.008 C 
HETATM    9  C12 UNL     1      11.944  -6.152  14.412  1.00  0.00     0.001 C 
HETATM   10  C13 UNL     1      13.273  -6.258  15.177  1.00  0.00     0.012 C 
HETATM   11  C14 UNL     1      14.139  -5.179  14.638  1.00  0.00    -0.007 C 
HETATM   12  C15 UNL     1      13.536  -3.890  15.233  1.00  0.00     0.019 C 
ENDROOT
BRANCH   1  13
HETATM   13  C2  UNL     1      16.224  -6.444  15.381  1.00  0.00     0.012 C 
HETATM   14  C1  UNL     1      17.118  -6.275  16.530  1.00  0.00     0.012 C 
HETATM   15  C3  UNL     1      16.727  -7.389  14.317  1.00  0.00     0.012 C 
ENDBRANCH   1  13
BRANCH   1  16
HETATM   16  O1  UNL     1      15.870  -4.290  15.871  1.00  0.00    -0.389 OA
ATOM     17  H1  UNL     1      15.360  -3.548  15.567  1.00  0.00     0.210 HD
ENDBRANCH   1  16
BRANCH   6  18
HETATM   18  O2  UNL     1      13.978  -2.818  12.893  1.00  0.00    -0.394 OA
ATOM     19  H2  UNL     1      14.106  -2.705  13.828  1.00  0.00     0.210 HD
ENDBRANCH   6  18
TORSDOF 3
ENDMDL
