MODEL 1
REMARK VINA RESULT: -7.711987115      0.000      0.000
REMARK  19 active torsions:
REMARK  status: ('A' for Active; 'I' for Inactive)
REMARK    1  A    between atoms: C2_2  and  C3_3 
REMARK    2  A    between atoms: C3_3  and  N1_5 
REMARK    3  A    between atoms: N1_5  and  C5_7 
REMARK    4  A    between atoms: C6_8  and  N2_9 
REMARK    5  A    between atoms: C7_13  and  C8_14 
REMARK    6  A    between atoms: C8_14  and  O1_15 
REMARK    7  A    between atoms: O1_15  and  C9_16 
REMARK    8  A    between atoms: C10_18  and  C11_19 
REMARK    9  A    between atoms: C11_19  and  O3_20 
REMARK   10  A    between atoms: C12_22  and  N3_23 
REMARK   11  A    between atoms: C13_27  and  O4_28 
REMARK   12  A    between atoms: C14_30  and  O5_31 
REMARK   13  A    between atoms: C15_34  and  C16_35 
REMARK   14  A    between atoms: C16_35  and  C17_36 
REMARK   15  A    between atoms: C16_35  and  C18_39 
REMARK   16  A    between atoms: C16_35  and  O9_42 
REMARK   17  A    between atoms: C17_36  and  O7_37 
REMARK   18  A    between atoms: C18_39  and  O8_40 
REMARK   19  A    between atoms: O9_42  and  C19_43 
ROOT
HETATM    1  C5  UNL     1     -21.468   3.380   2.551  1.00  0.00     0.142 C 
HETATM    2  C6  UNL     1     -22.121   3.172   3.887  1.00  0.00     0.239 C 
HETATM    3  C7  UNL     1     -21.969   1.644   4.110  1.00  0.00     0.178 C 
HETATM    4  O6  UNL     1     -21.656   1.104   2.897  1.00  0.00    -0.371 OA
HETATM    5  C15 UNL     1     -21.840   2.058   1.880  1.00  0.00     0.186 C 
ENDROOT
BRANCH   3   6
HETATM    6  C8  UNL     1     -23.288   1.143   4.629  1.00  0.00     0.205 C 
BRANCH   6   7
HETATM    7  O1  UNL     1     -23.594   1.558   5.888  1.00  0.00    -0.356 OA
BRANCH   7   8
HETATM    8  C9  UNL     1     -24.936   1.473   6.249  1.00  0.00     0.291 C 
HETATM    9  O2  UNL     1     -25.399   2.767   6.370  1.00  0.00    -0.349 OA
HETATM   10  C10 UNL     1     -26.596   2.894   7.032  1.00  0.00     0.181 C 
HETATM   11  C12 UNL     1     -26.358   2.505   8.476  1.00  0.00     0.245 C 
HETATM   12  C13 UNL     1     -26.127   1.003   8.440  1.00  0.00     0.184 C 
HETATM   13  C14 UNL     1     -25.027   0.654   7.511  1.00  0.00     0.204 C 
BRANCH  10  14
HETATM   14  C11 UNL     1     -27.093   4.316   6.906  1.00  0.00     0.198 C 
BRANCH  14  15
HETATM   15  O3  UNL     1     -26.562   5.134   7.889  1.00  0.00    -0.398 OA
ATOM     16  H3  UNL     1     -26.111   5.883   7.518  1.00  0.00     0.209 HD
ENDBRANCH  14  15
ENDBRANCH  10  14
BRANCH  11  17
HETATM   17  N3  UNL     1     -27.427   2.848   9.352  1.00  0.00    -0.070 N 
ATOM     18  H33 UNL     1     -28.015   3.569   8.934  1.00  0.00     0.274 HD
ATOM     19  H32 UNL     1     -28.102   2.086   9.409  1.00  0.00     0.274 HD
ATOM     20  H31 UNL     1     -27.125   3.129  10.285  1.00  0.00     0.274 HD
ENDBRANCH  11  17
BRANCH  12  21
HETATM   21  O4  UNL     1     -25.780   0.586   9.724  1.00  0.00    -0.391 OA
ATOM     22  H4  UNL     1     -25.375  -0.271   9.658  1.00  0.00     0.210 HD
ENDBRANCH  12  21
BRANCH  13  23
HETATM   23  O5  UNL     1     -23.820   0.724   8.208  1.00  0.00    -0.388 OA
ATOM     24  H5  UNL     1     -23.966   0.525   9.126  1.00  0.00     0.210 HD
ENDBRANCH  13  23
ENDBRANCH   7   8
ENDBRANCH   6   7
ENDBRANCH   3   6
BRANCH   2  25
HETATM   25  N2  UNL     1     -23.541   3.465   3.832  1.00  0.00    -0.070 N 
ATOM     26  H23 UNL     1     -23.838   4.033   4.627  1.00  0.00     0.274 HD
ATOM     27  H22 UNL     1     -23.760   4.120   3.081  1.00  0.00     0.274 HD
ATOM     28  H21 UNL     1     -24.093   2.611   3.756  1.00  0.00     0.274 HD
ENDBRANCH   2  25
BRANCH   1  29
HETATM   29  N1  UNL     1     -21.853   4.507   1.859  1.00  0.00    -0.409 N 
ATOM     30  H1  UNL     1     -22.573   4.382   1.148  1.00  0.00     0.154 HD
BRANCH  29  31
HETATM   31  C3  UNL     1     -21.369   5.787   2.026  1.00  0.00     0.072 C 
HETATM   32  C4  UNL     1     -22.297   6.774   2.652  1.00  0.00     0.031 C 
BRANCH  31  33
HETATM   33  C2  UNL     1     -20.007   5.897   2.696  1.00  0.00     0.020 C 
HETATM   34  C1  UNL     1     -19.859   7.184   3.476  1.00  0.00     0.007 C 
ENDBRANCH  31  33
ENDBRANCH  29  31
ENDBRANCH   1  29
BRANCH   5  35
HETATM   35  C16 UNL     1     -20.905   1.671   0.777  1.00  0.00     0.140 C 
BRANCH  35  36
HETATM   36  C17 UNL     1     -21.061   0.148   0.617  1.00  0.00     0.207 C 
BRANCH  36  37
HETATM   37  O7  UNL     1     -20.227  -0.356  -0.357  1.00  0.00    -0.398 OA
ATOM     38  H7  UNL     1     -20.593  -1.126  -0.776  1.00  0.00     0.209 HD
ENDBRANCH  36  37
ENDBRANCH  35  36
BRANCH  35  39
HETATM   39  C18 UNL     1     -19.440   1.849   1.185  1.00  0.00     0.207 C 
BRANCH  39  40
HETATM   40  O8  UNL     1     -18.946   0.689   1.799  1.00  0.00    -0.398 OA
ATOM     41  H8  UNL     1     -18.990   0.760   2.744  1.00  0.00     0.209 HD
ENDBRANCH  39  40
ENDBRANCH  35  39
BRANCH  35  42
HETATM   42  O9  UNL     1     -21.065   2.332  -0.429  1.00  0.00    -0.303 OA
BRANCH  42  43
HETATM   43  C19 UNL     1     -20.157   3.150  -1.073  1.00  0.00     0.255 C 
HETATM   44  C20 UNL     1     -19.512   2.655  -2.311  1.00  0.00     0.126 C 
HETATM   45  O10 UNL     1     -19.934   4.275  -0.558  1.00  0.00    -0.266 OA
ENDBRANCH  42  43
ENDBRANCH  35  42
ENDBRANCH   5  35
TORSDOF 19
ENDMDL
MODEL 2
REMARK VINA RESULT: -7.495717233      1.987      3.772
REMARK  19 active torsions:
REMARK  status: ('A' for Active; 'I' for Inactive)
REMARK    1  A    between atoms: C2_2  and  C3_3 
REMARK    2  A    between atoms: C3_3  and  N1_5 
REMARK    3  A    between atoms: N1_5  and  C5_7 
REMARK    4  A    between atoms: C6_8  and  N2_9 
REMARK    5  A    between atoms: C7_13  and  C8_14 
REMARK    6  A    between atoms: C8_14  and  O1_15 
REMARK    7  A    between atoms: O1_15  and  C9_16 
REMARK    8  A    between atoms: C10_18  and  C11_19 
REMARK    9  A    between atoms: C11_19  and  O3_20 
REMARK   10  A    between atoms: C12_22  and  N3_23 
REMARK   11  A    between atoms: C13_27  and  O4_28 
REMARK   12  A    between atoms: C14_30  and  O5_31 
REMARK   13  A    between atoms: C15_34  and  C16_35 
REMARK   14  A    between atoms: C16_35  and  C17_36 
REMARK   15  A    between atoms: C16_35  and  C18_39 
REMARK   16  A    between atoms: C16_35  and  O9_42 
REMARK   17  A    between atoms: C17_36  and  O7_37 
REMARK   18  A    between atoms: C18_39  and  O8_40 
REMARK   19  A    between atoms: O9_42  and  C19_43 
ROOT
HETATM    1  C5  UNL     1     -21.702   0.775   1.993  1.00  0.00     0.142 C 
HETATM    2  C6  UNL     1     -22.458   0.304   3.202  1.00  0.00     0.239 C 
HETATM    3  C7  UNL     1     -22.680   1.616   4.001  1.00  0.00     0.178 C 
HETATM    4  O6  UNL     1     -21.819   2.537   3.481  1.00  0.00    -0.371 OA
HETATM    5  C15 UNL     1     -20.897   1.910   2.625  1.00  0.00     0.186 C 
ENDROOT
BRANCH   3   6
HETATM    6  C8  UNL     1     -22.380   1.309   5.442  1.00  0.00     0.205 C 
BRANCH   6   7
HETATM    7  O1  UNL     1     -23.108   2.031   6.336  1.00  0.00    -0.356 OA
BRANCH   7   8
HETATM    8  C9  UNL     1     -24.464   1.722   6.410  1.00  0.00     0.291 C 
HETATM    9  O2  UNL     1     -25.139   2.918   6.537  1.00  0.00    -0.349 OA
HETATM   10  C10 UNL     1     -26.444   2.804   6.952  1.00  0.00     0.181 C 
HETATM   11  C12 UNL     1     -26.424   2.297   8.378  1.00  0.00     0.245 C 
HETATM   12  C13 UNL     1     -25.956   0.855   8.270  1.00  0.00     0.184 C 
HETATM   13  C14 UNL     1     -24.660   0.765   7.559  1.00  0.00     0.204 C 
BRANCH  10  14
HETATM   14  C11 UNL     1     -27.126   4.149   6.841  1.00  0.00     0.198 C 
BRANCH  14  15
HETATM   15  O3  UNL     1     -26.709   5.018   7.835  1.00  0.00    -0.398 OA
ATOM     16  H3  UNL     1     -27.247   5.801   7.865  1.00  0.00     0.209 HD
ENDBRANCH  14  15
ENDBRANCH  10  14
BRANCH  11  17
HETATM   17  N3  UNL     1     -27.678   2.391   9.045  1.00  0.00    -0.070 N 
ATOM     18  H33 UNL     1     -28.235   3.152   8.655  1.00  0.00     0.274 HD
ATOM     19  H32 UNL     1     -28.274   1.600   8.800  1.00  0.00     0.274 HD
ATOM     20  H31 UNL     1     -27.604   2.483  10.058  1.00  0.00     0.274 HD
ENDBRANCH  11  17
BRANCH  12  21
HETATM   21  O4  UNL     1     -25.795   0.353   9.561  1.00  0.00    -0.391 OA
ATOM     22  H4  UNL     1     -26.648   0.084   9.883  1.00  0.00     0.210 HD
ENDBRANCH  12  21
BRANCH  13  23
HETATM   23  O5  UNL     1     -23.631   0.927   8.489  1.00  0.00    -0.388 OA
ATOM     24  H5  UNL     1     -23.861   1.612   9.107  1.00  0.00     0.210 HD
ENDBRANCH  13  23
ENDBRANCH   7   8
ENDBRANCH   6   7
ENDBRANCH   3   6
BRANCH   2  25
HETATM   25  N2  UNL     1     -21.646  -0.573   4.024  1.00  0.00    -0.070 N 
ATOM     26  H23 UNL     1     -20.827  -0.911   3.517  1.00  0.00     0.274 HD
ATOM     27  H22 UNL     1     -21.170  -0.058   4.765  1.00  0.00     0.274 HD
ATOM     28  H21 UNL     1     -22.197  -1.345   4.400  1.00  0.00     0.274 HD
ENDBRANCH   2  25
BRANCH   1  29
HETATM   29  N1  UNL     1     -20.948  -0.177   1.344  1.00  0.00    -0.409 N 
ATOM     30  H1  UNL     1     -20.131  -0.529   1.843  1.00  0.00     0.154 HD
BRANCH  29  31
HETATM   31  C3  UNL     1     -21.179  -0.706   0.092  1.00  0.00     0.072 C 
HETATM   32  C4  UNL     1     -22.564  -0.567  -0.444  1.00  0.00     0.031 C 
BRANCH  31  33
HETATM   33  C2  UNL     1     -20.188  -0.299  -0.990  1.00  0.00     0.020 C 
HETATM   34  C1  UNL     1     -19.992  -1.388  -2.020  1.00  0.00     0.007 C 
ENDBRANCH  31  33
ENDBRANCH  29  31
ENDBRANCH   1  29
BRANCH   5  35
HETATM   35  C16 UNL     1     -20.472   2.954   1.639  1.00  0.00     0.140 C 
BRANCH  35  36
HETATM   36  C17 UNL     1     -20.334   4.255   2.448  1.00  0.00     0.207 C 
BRANCH  36  37
HETATM   37  O7  UNL     1     -20.290   5.367   1.634  1.00  0.00    -0.398 OA
ATOM     38  H7  UNL     1     -19.398   5.616   1.421  1.00  0.00     0.209 HD
ENDBRANCH  36  37
ENDBRANCH  35  36
BRANCH  35  39
HETATM   39  C18 UNL     1     -21.580   3.265   0.629  1.00  0.00     0.207 C 
BRANCH  39  40
HETATM   40  O8  UNL     1     -22.653   3.922   1.247  1.00  0.00    -0.398 OA
ATOM     41  H8  UNL     1     -22.872   4.722   0.786  1.00  0.00     0.209 HD
ENDBRANCH  39  40
ENDBRANCH  35  39
BRANCH  35  42
HETATM   42  O9  UNL     1     -19.329   2.682   0.907  1.00  0.00    -0.303 OA
BRANCH  42  43
HETATM   43  C19 UNL     1     -18.046   3.140   1.139  1.00  0.00     0.255 C 
HETATM   44  C20 UNL     1     -17.245   2.490   2.201  1.00  0.00     0.126 C 
HETATM   45  O10 UNL     1     -17.640   4.091   0.425  1.00  0.00    -0.266 OA
ENDBRANCH  42  43
ENDBRANCH  35  42
ENDBRANCH   5  35
TORSDOF 19
ENDMDL
MODEL 3
REMARK VINA RESULT: -7.362462377      1.864      2.454
REMARK  19 active torsions:
REMARK  status: ('A' for Active; 'I' for Inactive)
REMARK    1  A    between atoms: C2_2  and  C3_3 
REMARK    2  A    between atoms: C3_3  and  N1_5 
REMARK    3  A    between atoms: N1_5  and  C5_7 
REMARK    4  A    between atoms: C6_8  and  N2_9 
REMARK    5  A    between atoms: C7_13  and  C8_14 
REMARK    6  A    between atoms: C8_14  and  O1_15 
REMARK    7  A    between atoms: O1_15  and  C9_16 
REMARK    8  A    between atoms: C10_18  and  C11_19 
REMARK    9  A    between atoms: C11_19  and  O3_20 
REMARK   10  A    between atoms: C12_22  and  N3_23 
REMARK   11  A    between atoms: C13_27  and  O4_28 
REMARK   12  A    between atoms: C14_30  and  O5_31 
REMARK   13  A    between atoms: C15_34  and  C16_35 
REMARK   14  A    between atoms: C16_35  and  C17_36 
REMARK   15  A    between atoms: C16_35  and  C18_39 
REMARK   16  A    between atoms: C16_35  and  O9_42 
REMARK   17  A    between atoms: C17_36  and  O7_37 
REMARK   18  A    between atoms: C18_39  and  O8_40 
REMARK   19  A    between atoms: O9_42  and  C19_43 
ROOT
HETATM    1  C5  UNL     1     -21.535   2.730   2.778  1.00  0.00     0.142 C 
HETATM    2  C6  UNL     1     -22.212   3.196   4.035  1.00  0.00     0.239 C 
HETATM    3  C7  UNL     1     -22.375   1.882   4.844  1.00  0.00     0.178 C 
HETATM    4  O6  UNL     1     -22.184   0.857   3.964  1.00  0.00    -0.371 OA
HETATM    5  C15 UNL     1     -22.172   1.347   2.646  1.00  0.00     0.186 C 
ENDROOT
BRANCH   3   6
HETATM    6  C8  UNL     1     -23.766   1.886   5.414  1.00  0.00     0.205 C 
BRANCH   6   7
HETATM    7  O1  UNL     1     -23.893   2.557   6.591  1.00  0.00    -0.356 OA
BRANCH   7   8
HETATM    8  C9  UNL     1     -24.963   2.177   7.397  1.00  0.00     0.291 C 
HETATM    9  O2  UNL     1     -26.086   2.794   6.885  1.00  0.00    -0.349 OA
HETATM   10  C10 UNL     1     -27.172   2.808   7.728  1.00  0.00     0.181 C 
HETATM   11  C12 UNL     1     -26.824   3.701   8.899  1.00  0.00     0.245 C 
HETATM   12  C13 UNL     1     -25.777   2.925   9.681  1.00  0.00     0.184 C 
HETATM   13  C14 UNL     1     -24.631   2.556   8.818  1.00  0.00     0.204 C 
BRANCH  10  14
HETATM   14  C11 UNL     1     -28.384   3.310   6.976  1.00  0.00     0.198 C 
BRANCH  14  15
HETATM   15  O3  UNL     1     -29.512   2.559   7.261  1.00  0.00    -0.398 OA
ATOM     16  H3  UNL     1     -30.220   3.100   7.590  1.00  0.00     0.209 HD
ENDBRANCH  14  15
ENDBRANCH  10  14
BRANCH  11  17
HETATM   17  N3  UNL     1     -27.939   4.044   9.717  1.00  0.00    -0.070 N 
ATOM     18  H33 UNL     1     -28.496   4.775   9.275  1.00  0.00     0.274 HD
ATOM     19  H32 UNL     1     -28.623   3.287   9.725  1.00  0.00     0.274 HD
ATOM     20  H31 UNL     1     -27.689   4.310  10.669  1.00  0.00     0.274 HD
ENDBRANCH  11  17
BRANCH  12  21
HETATM   21  O4  UNL     1     -25.317   3.738  10.716  1.00  0.00    -0.391 OA
ATOM     22  H4  UNL     1     -24.816   3.198  11.316  1.00  0.00     0.210 HD
ENDBRANCH  12  21
BRANCH  13  23
HETATM   23  O5  UNL     1     -23.715   3.609   8.825  1.00  0.00    -0.388 OA
ATOM     24  H5  UNL     1     -23.981   4.264   9.460  1.00  0.00     0.210 HD
ENDBRANCH  13  23
ENDBRANCH   7   8
ENDBRANCH   6   7
ENDBRANCH   3   6
BRANCH   2  25
HETATM   25  N2  UNL     1     -23.542   3.706   3.761  1.00  0.00    -0.070 N 
ATOM     26  H23 UNL     1     -23.508   4.643   3.358  1.00  0.00     0.274 HD
ATOM     27  H22 UNL     1     -23.978   3.215   2.980  1.00  0.00     0.274 HD
ATOM     28  H21 UNL     1     -24.129   3.678   4.595  1.00  0.00     0.274 HD
ENDBRANCH   2  25
BRANCH   1  29
HETATM   29  N1  UNL     1     -21.684   3.542   1.675  1.00  0.00    -0.409 N 
ATOM     30  H1  UNL     1     -22.588   3.510   1.204  1.00  0.00     0.154 HD
BRANCH  29  31
HETATM   31  C3  UNL     1     -20.742   4.395   1.141  1.00  0.00     0.072 C 
HETATM   32  C4  UNL     1     -19.901   5.152   2.114  1.00  0.00     0.031 C 
BRANCH  31  33
HETATM   33  C2  UNL     1     -19.840   3.796   0.071  1.00  0.00     0.020 C 
HETATM   34  C1  UNL     1     -18.376   4.032   0.363  1.00  0.00     0.007 C 
ENDBRANCH  31  33
ENDBRANCH  29  31
ENDBRANCH   1  29
BRANCH   5  35
HETATM   35  C16 UNL     1     -21.341   0.385   1.855  1.00  0.00     0.140 C 
BRANCH  35  36
HETATM   36  C17 UNL     1     -21.630  -1.002   2.454  1.00  0.00     0.207 C 
BRANCH  36  37
HETATM   37  O7  UNL     1     -21.379  -2.015   1.554  1.00  0.00    -0.398 OA
ATOM     38  H7  UNL     1     -21.677  -1.797   0.679  1.00  0.00     0.209 HD
ENDBRANCH  36  37
ENDBRANCH  35  36
BRANCH  35  39
HETATM   39  C18 UNL     1     -19.844   0.589   2.107  1.00  0.00     0.207 C 
BRANCH  39  40
HETATM   40  O8  UNL     1     -19.405  -0.197   3.182  1.00  0.00    -0.398 OA
ATOM     41  H8  UNL     1     -18.801  -0.868   2.888  1.00  0.00     0.209 HD
ENDBRANCH  39  40
ENDBRANCH  35  39
BRANCH  35  42
HETATM   42  O9  UNL     1     -21.519   0.399   0.482  1.00  0.00    -0.303 OA
BRANCH  42  43
HETATM   43  C19 UNL     1     -22.705   0.522  -0.216  1.00  0.00     0.255 C 
HETATM   44  C20 UNL     1     -22.949   1.766  -0.981  1.00  0.00     0.126 C 
HETATM   45  O10 UNL     1     -23.508  -0.442  -0.154  1.00  0.00    -0.266 OA
ENDBRANCH  42  43
ENDBRANCH  35  42
ENDBRANCH   5  35
TORSDOF 19
ENDMDL
MODEL 4
REMARK VINA RESULT: -7.298138565      1.774      2.206
REMARK  19 active torsions:
REMARK  status: ('A' for Active; 'I' for Inactive)
REMARK    1  A    between atoms: C2_2  and  C3_3 
REMARK    2  A    between atoms: C3_3  and  N1_5 
REMARK    3  A    between atoms: N1_5  and  C5_7 
REMARK    4  A    between atoms: C6_8  and  N2_9 
REMARK    5  A    between atoms: C7_13  and  C8_14 
REMARK    6  A    between atoms: C8_14  and  O1_15 
REMARK    7  A    between atoms: O1_15  and  C9_16 
REMARK    8  A    between atoms: C10_18  and  C11_19 
REMARK    9  A    between atoms: C11_19  and  O3_20 
REMARK   10  A    between atoms: C12_22  and  N3_23 
REMARK   11  A    between atoms: C13_27  and  O4_28 
REMARK   12  A    between atoms: C14_30  and  O5_31 
REMARK   13  A    between atoms: C15_34  and  C16_35 
REMARK   14  A    between atoms: C16_35  and  C17_36 
REMARK   15  A    between atoms: C16_35  and  C18_39 
REMARK   16  A    between atoms: C16_35  and  O9_42 
REMARK   17  A    between atoms: C17_36  and  O7_37 
REMARK   18  A    between atoms: C18_39  and  O8_40 
REMARK   19  A    between atoms: O9_42  and  C19_43 
ROOT
HETATM    1  C5  UNL     1     -21.311   2.668   3.034  1.00  0.00     0.142 C 
HETATM    2  C6  UNL     1     -22.103   3.106   4.232  1.00  0.00     0.239 C 
HETATM    3  C7  UNL     1     -22.158   1.819   5.096  1.00  0.00     0.178 C 
HETATM    4  O6  UNL     1     -21.804   0.786   4.278  1.00  0.00    -0.371 OA
HETATM    5  C15 UNL     1     -21.777   1.216   2.940  1.00  0.00     0.186 C 
ENDROOT
BRANCH   3   6
HETATM    6  C8  UNL     1     -23.570   1.685   5.597  1.00  0.00     0.205 C 
BRANCH   6   7
HETATM    7  O1  UNL     1     -23.897   2.543   6.600  1.00  0.00    -0.356 OA
BRANCH   7   8
HETATM    8  C9  UNL     1     -24.973   2.166   7.399  1.00  0.00     0.291 C 
HETATM    9  O2  UNL     1     -26.092   2.784   6.879  1.00  0.00    -0.349 OA
HETATM   10  C10 UNL     1     -27.184   2.801   7.713  1.00  0.00     0.181 C 
HETATM   11  C12 UNL     1     -26.843   3.694   8.887  1.00  0.00     0.245 C 
HETATM   12  C13 UNL     1     -25.803   2.916   9.676  1.00  0.00     0.184 C 
HETATM   13  C14 UNL     1     -24.651   2.544   8.822  1.00  0.00     0.204 C 
BRANCH  10  14
HETATM   14  C11 UNL     1     -28.389   3.305   6.953  1.00  0.00     0.198 C 
BRANCH  14  15
HETATM   15  O3  UNL     1     -29.516   2.545   7.217  1.00  0.00    -0.398 OA
ATOM     16  H3  UNL     1     -30.039   2.922   7.916  1.00  0.00     0.209 HD
ENDBRANCH  14  15
ENDBRANCH  10  14
BRANCH  11  17
HETATM   17  N3  UNL     1     -27.962   4.038   9.697  1.00  0.00    -0.070 N 
ATOM     18  H33 UNL     1     -28.532   4.748   9.236  1.00  0.00     0.274 HD
ATOM     19  H32 UNL     1     -28.633   3.271   9.726  1.00  0.00     0.274 HD
ATOM     20  H31 UNL     1     -27.716   4.334  10.641  1.00  0.00     0.274 HD
ENDBRANCH  11  17
BRANCH  12  21
HETATM   21  O4  UNL     1     -25.348   3.729  10.714  1.00  0.00    -0.391 OA
ATOM     22  H4  UNL     1     -26.105   4.078  11.171  1.00  0.00     0.210 HD
ENDBRANCH  12  21
BRANCH  13  23
HETATM   23  O5  UNL     1     -23.733   3.596   8.835  1.00  0.00    -0.388 OA
ATOM     24  H5  UNL     1     -22.931   3.318   9.263  1.00  0.00     0.210 HD
ENDBRANCH  13  23
ENDBRANCH   7   8
ENDBRANCH   6   7
ENDBRANCH   3   6
BRANCH   2  25
HETATM   25  N2  UNL     1     -23.466   3.445   3.869  1.00  0.00    -0.070 N 
ATOM     26  H23 UNL     1     -23.494   4.093   3.081  1.00  0.00     0.274 HD
ATOM     27  H22 UNL     1     -23.947   2.655   3.439  1.00  0.00     0.274 HD
ATOM     28  H21 UNL     1     -23.984   3.807   4.669  1.00  0.00     0.274 HD
ENDBRANCH   2  25
BRANCH   1  29
HETATM   29  N1  UNL     1     -21.492   3.409   1.887  1.00  0.00    -0.409 N 
ATOM     30  H1  UNL     1     -22.212   3.083   1.243  1.00  0.00     0.154 HD
BRANCH  29  31
HETATM   31  C3  UNL     1     -20.803   4.545   1.516  1.00  0.00     0.072 C 
HETATM   32  C4  UNL     1     -21.268   5.830   2.115  1.00  0.00     0.031 C 
BRANCH  31  33
HETATM   33  C2  UNL     1     -19.288   4.466   1.631  1.00  0.00     0.020 C 
HETATM   34  C1  UNL     1     -18.641   4.024   0.338  1.00  0.00     0.007 C 
ENDBRANCH  31  33
ENDBRANCH  29  31
ENDBRANCH   1  29
BRANCH   5  35
HETATM   35  C16 UNL     1     -20.799   0.325   2.239  1.00  0.00     0.140 C 
BRANCH  35  36
HETATM   36  C17 UNL     1     -21.527  -1.016   2.044  1.00  0.00     0.207 C 
BRANCH  36  37
HETATM   37  O7  UNL     1     -21.147  -1.951   2.983  1.00  0.00    -0.398 OA
ATOM     38  H7  UNL     1     -21.580  -1.813   3.817  1.00  0.00     0.209 HD
ENDBRANCH  36  37
ENDBRANCH  35  36
BRANCH  35  39
HETATM   39  C18 UNL     1     -19.610  -0.029   3.136  1.00  0.00     0.207 C 
BRANCH  39  40
HETATM   40  O8  UNL     1     -18.400   0.350   2.538  1.00  0.00    -0.398 OA
ATOM     41  H8  UNL     1     -18.441   0.250   1.595  1.00  0.00     0.209 HD
ENDBRANCH  39  40
ENDBRANCH  35  39
BRANCH  35  42
HETATM   42  O9  UNL     1     -20.273   0.801   1.049  1.00  0.00    -0.303 OA
BRANCH  42  43
HETATM   43  C19 UNL     1     -20.798   0.668  -0.222  1.00  0.00     0.255 C 
HETATM   44  C20 UNL     1     -20.205  -0.339  -1.130  1.00  0.00     0.126 C 
HETATM   45  O10 UNL     1     -21.757   1.421  -0.526  1.00  0.00    -0.266 OA
ENDBRANCH  42  43
ENDBRANCH  35  42
ENDBRANCH   5  35
TORSDOF 19
ENDMDL
MODEL 5
REMARK VINA RESULT: -7.285834787      1.870      3.568
REMARK  19 active torsions:
REMARK  status: ('A' for Active; 'I' for Inactive)
REMARK    1  A    between atoms: C2_2  and  C3_3 
REMARK    2  A    between atoms: C3_3  and  N1_5 
REMARK    3  A    between atoms: N1_5  and  C5_7 
REMARK    4  A    between atoms: C6_8  and  N2_9 
REMARK    5  A    between atoms: C7_13  and  C8_14 
REMARK    6  A    between atoms: C8_14  and  O1_15 
REMARK    7  A    between atoms: O1_15  and  C9_16 
REMARK    8  A    between atoms: C10_18  and  C11_19 
REMARK    9  A    between atoms: C11_19  and  O3_20 
REMARK   10  A    between atoms: C12_22  and  N3_23 
REMARK   11  A    between atoms: C13_27  and  O4_28 
REMARK   12  A    between atoms: C14_30  and  O5_31 
REMARK   13  A    between atoms: C15_34  and  C16_35 
REMARK   14  A    between atoms: C16_35  and  C17_36 
REMARK   15  A    between atoms: C16_35  and  C18_39 
REMARK   16  A    between atoms: C16_35  and  O9_42 
REMARK   17  A    between atoms: C17_36  and  O7_37 
REMARK   18  A    between atoms: C18_39  and  O8_40 
REMARK   19  A    between atoms: O9_42  and  C19_43 
ROOT
HETATM    1  C5  UNL     1     -21.309   1.114   1.676  1.00  0.00     0.142 C 
HETATM    2  C6  UNL     1     -22.348   0.842   2.726  1.00  0.00     0.239 C 
HETATM    3  C7  UNL     1     -22.275   2.110   3.618  1.00  0.00     0.178 C 
HETATM    4  O6  UNL     1     -21.103   2.736   3.308  1.00  0.00    -0.371 OA
HETATM    5  C15 UNL     1     -20.300   1.895   2.517  1.00  0.00     0.186 C 
ENDROOT
BRANCH   3   6
HETATM    6  C8  UNL     1     -22.307   1.644   5.047  1.00  0.00     0.205 C 
BRANCH   6   7
HETATM    7  O1  UNL     1     -23.093   2.392   5.867  1.00  0.00    -0.356 OA
BRANCH   7   8
HETATM    8  C9  UNL     1     -24.398   1.939   6.041  1.00  0.00     0.291 C 
HETATM    9  O2  UNL     1     -25.169   3.045   6.334  1.00  0.00    -0.349 OA
HETATM   10  C10 UNL     1     -26.408   2.764   6.858  1.00  0.00     0.181 C 
HETATM   11  C12 UNL     1     -26.193   2.153   8.226  1.00  0.00     0.245 C 
HETATM   12  C13 UNL     1     -25.603   0.781   7.950  1.00  0.00     0.184 C 
HETATM   13  C14 UNL     1     -24.383   0.881   7.115  1.00  0.00     0.204 C 
BRANCH  10  14
HETATM   14  C11 UNL     1     -27.223   4.035   6.929  1.00  0.00     0.198 C 
BRANCH  14  15
HETATM   15  O3  UNL     1     -26.790   4.866   7.949  1.00  0.00    -0.398 OA
ATOM     16  H3  UNL     1     -27.152   4.609   8.790  1.00  0.00     0.209 HD
ENDBRANCH  14  15
ENDBRANCH  10  14
BRANCH  11  17
HETATM   17  N3  UNL     1     -27.376   2.064   9.013  1.00  0.00    -0.070 N 
ATOM     18  H33 UNL     1     -28.138   2.580   8.574  1.00  0.00     0.274 HD
ATOM     19  H32 UNL     1     -27.762   1.121   8.975  1.00  0.00     0.274 HD
ATOM     20  H31 UNL     1     -27.254   2.362   9.981  1.00  0.00     0.274 HD
ENDBRANCH  11  17
BRANCH  12  21
HETATM   21  O4  UNL     1     -25.263   0.200   9.172  1.00  0.00    -0.391 OA
ATOM     22  H4  UNL     1     -24.480  -0.323   9.044  1.00  0.00     0.210 HD
ENDBRANCH  12  21
BRANCH  13  23
HETATM   23  O5  UNL     1     -23.286   1.076   7.955  1.00  0.00    -0.388 OA
ATOM     24  H5  UNL     1     -22.955   0.237   8.253  1.00  0.00     0.210 HD
ENDBRANCH  13  23
ENDBRANCH   7   8
ENDBRANCH   6   7
ENDBRANCH   3   6
BRANCH   2  25
HETATM   25  N2  UNL     1     -21.981  -0.293   3.552  1.00  0.00    -0.070 N 
ATOM     26  H23 UNL     1     -22.461  -1.143   3.256  1.00  0.00     0.274 HD
ATOM     27  H22 UNL     1     -21.020  -0.587   3.377  1.00  0.00     0.274 HD
ATOM     28  H21 UNL     1     -22.139  -0.098   4.540  1.00  0.00     0.274 HD
ENDBRANCH   2  25
BRANCH   1  29
HETATM   29  N1  UNL     1     -20.794   0.008   1.035  1.00  0.00    -0.409 N 
ATOM     30  H1  UNL     1     -20.028  -0.474   1.504  1.00  0.00     0.154 HD
BRANCH  29  31
HETATM   31  C3  UNL     1     -21.205  -0.516  -0.171  1.00  0.00     0.072 C 
HETATM   32  C4  UNL     1     -22.504  -0.014  -0.708  1.00  0.00     0.031 C 
BRANCH  31  33
HETATM   33  C2  UNL     1     -20.170  -0.497  -1.287  1.00  0.00     0.020 C 
HETATM   34  C1  UNL     1     -19.993  -1.858  -1.922  1.00  0.00     0.007 C 
ENDBRANCH  31  33
ENDBRANCH  29  31
ENDBRANCH   1  29
BRANCH   5  35
HETATM   35  C16 UNL     1     -19.429   2.802   1.703  1.00  0.00     0.140 C 
BRANCH  35  36
HETATM   36  C17 UNL     1     -18.076   2.843   2.435  1.00  0.00     0.207 C 
BRANCH  36  37
HETATM   37  O7  UNL     1     -17.034   3.130   1.580  1.00  0.00    -0.398 OA
ATOM     38  H7  UNL     1     -16.985   4.057   1.378  1.00  0.00     0.209 HD
ENDBRANCH  36  37
ENDBRANCH  35  36
BRANCH  35  39
HETATM   39  C18 UNL     1     -19.917   4.252   1.752  1.00  0.00     0.207 C 
BRANCH  39  40
HETATM   40  O8  UNL     1     -18.836   5.145   1.776  1.00  0.00    -0.398 OA
ATOM     41  H8  UNL     1     -18.773   5.623   0.958  1.00  0.00     0.209 HD
ENDBRANCH  39  40
ENDBRANCH  35  39
BRANCH  35  42
HETATM   42  O9  UNL     1     -19.278   2.477   0.365  1.00  0.00    -0.303 OA
BRANCH  42  43
HETATM   43  C19 UNL     1     -19.441   3.304  -0.730  1.00  0.00     0.255 C 
HETATM   44  C20 UNL     1     -20.754   3.321  -1.413  1.00  0.00     0.126 C 
HETATM   45  O10 UNL     1     -18.451   3.994  -1.078  1.00  0.00    -0.266 OA
ENDBRANCH  42  43
ENDBRANCH  35  42
ENDBRANCH   5  35
TORSDOF 19
ENDMDL
