MODEL 1
REMARK VINA RESULT: -9.280127447      0.000      0.000
REMARK  17 active torsions:
REMARK  status: ('A' for Active; 'I' for Inactive)
REMARK    1  A    between atoms: C1_4  and  C2_5 
REMARK    2  A    between atoms: C1_4  and  C4_9 
REMARK    3  A    between atoms: C2_5  and  C3_6 
REMARK    4  A    between atoms: C4_9  and  N2_11 
REMARK    5  A    between atoms: N2_11  and  C5_13 
REMARK    6  A    between atoms: C6_16  and  O3_17 
REMARK    7  A    between atoms: O3_17  and  C7_18 
REMARK    8  A    between atoms: C7_18  and  C8_19 
REMARK    9  A    between atoms: C8_19  and  N4_20 
REMARK   10  A    between atoms: N4_20  and  C9_23 
REMARK   11  A    between atoms: C9_23  and  C10_24 
REMARK   12  A    between atoms: C11_25  and  N5_26 
REMARK   13  A    between atoms: C13_31  and  N6_32 
REMARK   14  A    between atoms: C14_36  and  O4_37 
REMARK   15  A    between atoms: C15_39  and  O5_40 
REMARK   16  A    between atoms: C16_43  and  C17_44 
REMARK   17  A    between atoms: C18_46  and  O7_47 
ROOT
HETATM    1  O3  UNL     1      41.645   0.671   6.876  1.00  0.00    -0.343 OA
ENDROOT
BRANCH   1   2
HETATM    2  C6  UNL     1      40.932   1.748   6.335  1.00  0.00     0.368 C 
HETATM    3  N3  UNL     1      41.706   2.906   6.412  1.00  0.00    -0.352 N 
HETATM    4  C5  UNL     1      41.370   3.976   7.265  1.00  0.00     0.210 C 
ATOM      5  H3  UNL     1      42.542   2.982   5.832  1.00  0.00     0.160 HD
HETATM    6  C18 UNL     1      39.997   3.822   7.840  1.00  0.00     0.190 C 
HETATM    7  C16 UNL     1      39.173   3.078   6.777  1.00  0.00     0.172 C 
HETATM    8  O6  UNL     1      39.639   1.783   6.800  1.00  0.00    -0.335 OA
BRANCH   4   9
HETATM    9  N2  UNL     1      42.345   4.063   8.334  1.00  0.00    -0.366 N 
ATOM     10  H2  UNL     1      42.092   3.949   9.316  1.00  0.00     0.158 HD
BRANCH   9  11
HETATM   11  C4  UNL     1      43.674   4.319   7.914  1.00  0.00     0.313 C 
HETATM   12  F1  UNL     1      43.659   4.802   6.622  1.00  0.00    -0.221 F 
BRANCH  11  13
HETATM   13  C1  UNL     1      44.448   5.273   8.747  1.00  0.00     0.043 C 
HETATM   14  N1  UNL     1      44.182   6.509   8.830  1.00  0.00    -0.401 N 
ATOM     15  H12 UNL     1      44.714   7.166   9.403  1.00  0.00     0.155 HD
ATOM     16  H11 UNL     1      43.391   6.881   8.306  1.00  0.00     0.155 HD
BRANCH  13  17
HETATM   17  C2  UNL     1      45.596   4.735   9.508  1.00  0.00     0.169 C 
BRANCH  17  18
HETATM   18  C3  UNL     1      46.734   5.666   9.628  1.00  0.00     0.178 C 
HETATM   19  O1  UNL     1      47.645   5.675   8.741  1.00  0.00    -0.648 OA
HETATM   20  O2  UNL     1      46.905   6.569  10.662  1.00  0.00    -0.648 OA
ENDBRANCH  17  18
ENDBRANCH  13  17
ENDBRANCH  11  13
ENDBRANCH   9  11
ENDBRANCH   4   9
BRANCH   6  21
HETATM   21  O7  UNL     1      40.032   3.037   9.010  1.00  0.00    -0.389 OA
ATOM     22  H7  UNL     1      40.001   3.586   9.785  1.00  0.00     0.210 HD
ENDBRANCH   6  21
BRANCH   7  23
HETATM   23  C17 UNL     1      37.697   3.170   7.106  1.00  0.00     0.149 C 
HETATM   24 CL1  UNL     1      37.063   1.578   7.543  1.00  0.00    -0.128 Cl
ENDBRANCH   7  23
ENDBRANCH   1   2
BRANCH   1  25
HETATM   25  C7  UNL     1      41.646  -0.451   6.048  1.00  0.00     0.200 C 
BRANCH  25  26
HETATM   26  C8  UNL     1      43.021  -0.992   5.827  1.00  0.00     0.258 C 
BRANCH  26  27
HETATM   27  N4  UNL     1      43.913   0.025   5.254  1.00  0.00    -0.073 N 
ATOM     28  H42 UNL     1      43.961   0.868   5.827  1.00  0.00     0.277 HD
ATOM     29  H41 UNL     1      44.896  -0.242   5.311  1.00  0.00     0.277 HD
BRANCH  27  30
HETATM   30  C9  UNL     1      43.491   0.302   3.893  1.00  0.00     0.241 C 
BRANCH  30  31
HETATM   31  C10 UNL     1      44.531   0.911   3.027  1.00  0.00     0.073 C 
HETATM   32  C11 UNL     1      44.400   0.657   1.567  1.00  0.00     0.193 C 
HETATM   33  C12 UNL     1      45.225   1.719   0.858  1.00  0.00     0.068 C 
HETATM   34  C13 UNL     1      46.362   2.232   1.682  1.00  0.00     0.216 C 
HETATM   35  C14 UNL     1      46.948   1.240   2.642  1.00  0.00     0.177 C 
HETATM   36  C15 UNL     1      45.928   0.519   3.458  1.00  0.00     0.156 C 
BRANCH  32  37
HETATM   37  N5  UNL     1      44.853  -0.638   1.134  1.00  0.00    -0.074 N 
ATOM     38  H53 UNL     1      45.056  -0.625   0.134  1.00  0.00     0.274 HD
ATOM     39  H52 UNL     1      45.785  -0.827   1.502  1.00  0.00     0.274 HD
ATOM     40  H51 UNL     1      44.223  -1.409   1.356  1.00  0.00     0.274 HD
ENDBRANCH  32  37
BRANCH  34  41
HETATM   41  N6  UNL     1      47.437   2.599   0.754  1.00  0.00    -0.072 N 
ATOM     42  H63 UNL     1      48.301   2.861   1.227  1.00  0.00     0.274 HD
ATOM     43  H62 UNL     1      47.807   1.802   0.236  1.00  0.00     0.274 HD
ATOM     44  H61 UNL     1      47.073   3.335   0.150  1.00  0.00     0.274 HD
ENDBRANCH  34  41
BRANCH  35  45
HETATM   45  O4  UNL     1      47.871   0.385   2.033  1.00  0.00    -0.391 OA
ATOM     46  H4  UNL     1      47.522  -0.488   1.893  1.00  0.00     0.210 HD
ENDBRANCH  35  45
BRANCH  36  47
HETATM   47  O5  UNL     1      46.151  -0.840   3.362  1.00  0.00    -0.392 OA
ATOM     48  H5  UNL     1      45.555  -1.347   3.901  1.00  0.00     0.210 HD
ENDBRANCH  36  47
ENDBRANCH  30  31
ENDBRANCH  27  30
ENDBRANCH  26  27
ENDBRANCH  25  26
ENDBRANCH   1  25
TORSDOF 17
ENDMDL
MODEL 2
REMARK VINA RESULT: -9.048376529      1.426      1.858
REMARK  17 active torsions:
REMARK  status: ('A' for Active; 'I' for Inactive)
REMARK    1  A    between atoms: C1_4  and  C2_5 
REMARK    2  A    between atoms: C1_4  and  C4_9 
REMARK    3  A    between atoms: C2_5  and  C3_6 
REMARK    4  A    between atoms: C4_9  and  N2_11 
REMARK    5  A    between atoms: N2_11  and  C5_13 
REMARK    6  A    between atoms: C6_16  and  O3_17 
REMARK    7  A    between atoms: O3_17  and  C7_18 
REMARK    8  A    between atoms: C7_18  and  C8_19 
REMARK    9  A    between atoms: C8_19  and  N4_20 
REMARK   10  A    between atoms: N4_20  and  C9_23 
REMARK   11  A    between atoms: C9_23  and  C10_24 
REMARK   12  A    between atoms: C11_25  and  N5_26 
REMARK   13  A    between atoms: C13_31  and  N6_32 
REMARK   14  A    between atoms: C14_36  and  O4_37 
REMARK   15  A    between atoms: C15_39  and  O5_40 
REMARK   16  A    between atoms: C16_43  and  C17_44 
REMARK   17  A    between atoms: C18_46  and  O7_47 
ROOT
HETATM    1  O3  UNL     1      41.445   0.525   7.798  1.00  0.00    -0.343 OA
ENDROOT
BRANCH   1   2
HETATM    2  C6  UNL     1      40.851   1.423   6.903  1.00  0.00     0.368 C 
HETATM    3  N3  UNL     1      41.688   2.526   6.724  1.00  0.00    -0.352 N 
HETATM    4  C5  UNL     1      41.349   3.809   7.199  1.00  0.00     0.210 C 
ATOM      5  H3  UNL     1      42.574   2.400   6.234  1.00  0.00     0.160 HD
HETATM    6  C18 UNL     1      39.924   3.878   7.653  1.00  0.00     0.190 C 
HETATM    7  C16 UNL     1      39.150   2.888   6.768  1.00  0.00     0.172 C 
HETATM    8  O6  UNL     1      39.528   1.639   7.206  1.00  0.00    -0.335 OA
BRANCH   4   9
HETATM    9  N2  UNL     1      42.232   4.166   8.292  1.00  0.00    -0.366 N 
ATOM     10  H2  UNL     1      41.894   4.311   9.243  1.00  0.00     0.158 HD
BRANCH   9  11
HETATM   11  C4  UNL     1      43.598   4.298   7.939  1.00  0.00     0.313 C 
HETATM   12  F1  UNL     1      43.693   4.697   6.622  1.00  0.00    -0.221 F 
BRANCH  11  13
HETATM   13  C1  UNL     1      44.393   5.248   8.759  1.00  0.00     0.043 C 
HETATM   14  N1  UNL     1      44.146   6.488   8.836  1.00  0.00    -0.401 N 
ATOM     15  H12 UNL     1      44.692   7.140   9.400  1.00  0.00     0.155 HD
ATOM     16  H11 UNL     1      43.355   6.867   8.315  1.00  0.00     0.155 HD
BRANCH  13  17
HETATM   17  C2  UNL     1      45.539   4.698   9.515  1.00  0.00     0.169 C 
BRANCH  17  18
HETATM   18  C3  UNL     1      46.691   5.613   9.619  1.00  0.00     0.178 C 
HETATM   19  O1  UNL     1      47.606   5.588   8.737  1.00  0.00    -0.648 OA
HETATM   20  O2  UNL     1      46.871   6.536  10.634  1.00  0.00    -0.648 OA
ENDBRANCH  17  18
ENDBRANCH  13  17
ENDBRANCH  11  13
ENDBRANCH   9  11
ENDBRANCH   4   9
BRANCH   6  21
HETATM   21  O7  UNL     1      39.809   3.464   8.995  1.00  0.00    -0.389 OA
ATOM     22  H7  UNL     1      39.051   3.863   9.406  1.00  0.00     0.210 HD
ENDBRANCH   6  21
BRANCH   7  23
HETATM   23  C17 UNL     1      37.659   3.125   6.907  1.00  0.00     0.149 C 
HETATM   24 CL1  UNL     1      36.852   1.655   7.468  1.00  0.00    -0.128 Cl
ENDBRANCH   7  23
ENDBRANCH   1   2
BRANCH   1  25
HETATM   25  C7  UNL     1      42.282  -0.396   7.167  1.00  0.00     0.200 C 
BRANCH  25  26
HETATM   26  C8  UNL     1      41.625  -1.053   5.998  1.00  0.00     0.258 C 
BRANCH  26  27
HETATM   27  N4  UNL     1      42.564  -1.225   4.881  1.00  0.00    -0.073 N 
ATOM     28  H42 UNL     1      42.672  -2.202   4.609  1.00  0.00     0.277 HD
ATOM     29  H41 UNL     1      42.191  -0.872   4.000  1.00  0.00     0.277 HD
BRANCH  27  30
HETATM   30  C9  UNL     1      43.828  -0.604   5.235  1.00  0.00     0.241 C 
BRANCH  30  31
HETATM   31  C10 UNL     1      44.494   0.132   4.132  1.00  0.00     0.073 C 
HETATM   32  C11 UNL     1      45.657   0.978   4.516  1.00  0.00     0.193 C 
HETATM   33  C12 UNL     1      46.456   1.233   3.248  1.00  0.00     0.068 C 
HETATM   34  C13 UNL     1      45.624   1.186   2.006  1.00  0.00     0.216 C 
HETATM   35  C14 UNL     1      44.198   1.615   2.180  1.00  0.00     0.177 C 
HETATM   36  C15 UNL     1      43.519   0.985   3.349  1.00  0.00     0.156 C 
BRANCH  32  37
HETATM   37  N5  UNL     1      45.315   2.246   5.104  1.00  0.00    -0.074 N 
ATOM     38  H53 UNL     1      44.319   2.276   5.324  1.00  0.00     0.274 HD
ATOM     39  H52 UNL     1      45.706   2.316   6.043  1.00  0.00     0.274 HD
ATOM     40  H51 UNL     1      45.579   3.061   4.550  1.00  0.00     0.274 HD
ENDBRANCH  32  37
BRANCH  34  41
HETATM   41  N6  UNL     1      46.227   2.118   1.048  1.00  0.00    -0.072 N 
ATOM     42  H63 UNL     1      46.463   3.020   1.462  1.00  0.00     0.274 HD
ATOM     43  H62 UNL     1      47.170   1.851   0.768  1.00  0.00     0.274 HD
ATOM     44  H61 UNL     1      45.583   2.197   0.261  1.00  0.00     0.274 HD
ENDBRANCH  34  41
BRANCH  35  45
HETATM   45  O4  UNL     1      44.047   3.005   2.140  1.00  0.00    -0.391 OA
ATOM     46  H4  UNL     1      43.617   3.347   2.914  1.00  0.00     0.210 HD
ENDBRANCH  35  45
BRANCH  36  47
HETATM   47  O5  UNL     1      42.938   1.971   4.121  1.00  0.00    -0.392 OA
ATOM     48  H5  UNL     1      42.005   2.058   3.961  1.00  0.00     0.210 HD
ENDBRANCH  36  47
ENDBRANCH  30  31
ENDBRANCH  27  30
ENDBRANCH  26  27
ENDBRANCH  25  26
ENDBRANCH   1  25
TORSDOF 17
ENDMDL
MODEL 3
REMARK VINA RESULT: -8.923090775      1.024      1.187
REMARK  17 active torsions:
REMARK  status: ('A' for Active; 'I' for Inactive)
REMARK    1  A    between atoms: C1_4  and  C2_5 
REMARK    2  A    between atoms: C1_4  and  C4_9 
REMARK    3  A    between atoms: C2_5  and  C3_6 
REMARK    4  A    between atoms: C4_9  and  N2_11 
REMARK    5  A    between atoms: N2_11  and  C5_13 
REMARK    6  A    between atoms: C6_16  and  O3_17 
REMARK    7  A    between atoms: O3_17  and  C7_18 
REMARK    8  A    between atoms: C7_18  and  C8_19 
REMARK    9  A    between atoms: C8_19  and  N4_20 
REMARK   10  A    between atoms: N4_20  and  C9_23 
REMARK   11  A    between atoms: C9_23  and  C10_24 
REMARK   12  A    between atoms: C11_25  and  N5_26 
REMARK   13  A    between atoms: C13_31  and  N6_32 
REMARK   14  A    between atoms: C14_36  and  O4_37 
REMARK   15  A    between atoms: C15_39  and  O5_40 
REMARK   16  A    between atoms: C16_43  and  C17_44 
REMARK   17  A    between atoms: C18_46  and  O7_47 
ROOT
HETATM    1  O3  UNL     1      41.132   0.567   8.069  1.00  0.00    -0.343 OA
ENDROOT
BRANCH   1   2
HETATM    2  C6  UNL     1      40.607   1.437   7.106  1.00  0.00     0.368 C 
HETATM    3  N3  UNL     1      41.518   2.466   6.860  1.00  0.00    -0.352 N 
HETATM    4  C5  UNL     1      41.263   3.799   7.239  1.00  0.00     0.210 C 
ATOM      5  H3  UNL     1      42.397   2.246   6.391  1.00  0.00     0.160 HD
HETATM    6  C18 UNL     1      39.843   3.996   7.670  1.00  0.00     0.190 C 
HETATM    7  C16 UNL     1      39.009   2.999   6.848  1.00  0.00     0.172 C 
HETATM    8  O6  UNL     1      39.299   1.762   7.377  1.00  0.00    -0.335 OA
BRANCH   4   9
HETATM    9  N2  UNL     1      42.160   4.173   8.314  1.00  0.00    -0.366 N 
ATOM     10  H2  UNL     1      41.829   4.377   9.258  1.00  0.00     0.158 HD
BRANCH   9  11
HETATM   11  C4  UNL     1      43.530   4.235   7.957  1.00  0.00     0.313 C 
HETATM   12  F1  UNL     1      43.639   4.552   6.620  1.00  0.00    -0.221 F 
BRANCH  11  13
HETATM   13  C1  UNL     1      44.359   5.201   8.723  1.00  0.00     0.043 C 
HETATM   14  N1  UNL     1      44.132   6.447   8.760  1.00  0.00    -0.401 N 
ATOM     15  H12 UNL     1      44.701   7.110   9.286  1.00  0.00     0.155 HD
ATOM     16  H11 UNL     1      43.334   6.819   8.246  1.00  0.00     0.155 HD
BRANCH  13  17
HETATM   17  C2  UNL     1      45.515   4.661   9.469  1.00  0.00     0.169 C 
BRANCH  17  18
HETATM   18  C3  UNL     1      46.640   5.605   9.609  1.00  0.00     0.178 C 
HETATM   19  O1  UNL     1      47.579   5.608   8.752  1.00  0.00    -0.648 OA
HETATM   20  O2  UNL     1      46.770   6.526  10.632  1.00  0.00    -0.648 OA
ENDBRANCH  17  18
ENDBRANCH  13  17
ENDBRANCH  11  13
ENDBRANCH   9  11
ENDBRANCH   4   9
BRANCH   6  21
HETATM   21  O7  UNL     1      39.690   3.687   9.037  1.00  0.00    -0.389 OA
ATOM     22  H7  UNL     1      38.853   3.265   9.194  1.00  0.00     0.210 HD
ENDBRANCH   6  21
BRANCH   7  23
HETATM   23  C17 UNL     1      37.538   3.345   6.951  1.00  0.00     0.149 C 
HETATM   24 CL1  UNL     1      36.572   1.876   7.143  1.00  0.00    -0.128 Cl
ENDBRANCH   7  23
ENDBRANCH   1   2
BRANCH   1  25
HETATM   25  C7  UNL     1      42.023  -0.362   7.532  1.00  0.00     0.200 C 
BRANCH  25  26
HETATM   26  C8  UNL     1      41.442  -1.104   6.374  1.00  0.00     0.258 C 
BRANCH  26  27
HETATM   27  N4  UNL     1      42.391  -1.182   5.255  1.00  0.00    -0.073 N 
ATOM     28  H42 UNL     1      42.731  -2.131   5.098  1.00  0.00     0.277 HD
ATOM     29  H41 UNL     1      41.941  -1.041   4.351  1.00  0.00     0.277 HD
BRANCH  27  30
HETATM   30  C9  UNL     1      43.470  -0.239   5.492  1.00  0.00     0.241 C 
BRANCH  30  31
HETATM   31  C10 UNL     1      44.021   0.399   4.271  1.00  0.00     0.073 C 
HETATM   32  C11 UNL     1      44.149  -0.476   3.074  1.00  0.00     0.193 C 
HETATM   33  C12 UNL     1      44.255   0.441   1.866  1.00  0.00     0.068 C 
HETATM   34  C13 UNL     1      44.838   1.779   2.189  1.00  0.00     0.216 C 
HETATM   35  C14 UNL     1      45.827   1.786   3.316  1.00  0.00     0.177 C 
HETATM   36  C15 UNL     1      45.360   1.056   4.530  1.00  0.00     0.156 C 
BRANCH  32  37
HETATM   37  N5  UNL     1      45.290  -1.353   3.084  1.00  0.00    -0.074 N 
ATOM     38  H53 UNL     1      46.081  -0.896   3.538  1.00  0.00     0.274 HD
ATOM     39  H52 UNL     1      45.135  -2.125   3.732  1.00  0.00     0.274 HD
ATOM     40  H51 UNL     1      45.565  -1.709   2.169  1.00  0.00     0.274 HD
ENDBRANCH  32  37
BRANCH  34  41
HETATM   41  N6  UNL     1      45.560   2.235   0.997  1.00  0.00    -0.072 N 
ATOM     42  H63 UNL     1      45.145   3.063   0.570  1.00  0.00     0.274 HD
ATOM     43  H62 UNL     1      46.471   2.640   1.212  1.00  0.00     0.274 HD
ATOM     44  H61 UNL     1      45.616   1.442   0.358  1.00  0.00     0.274 HD
ENDBRANCH  34  41
BRANCH  35  45
HETATM   45  O4  UNL     1      47.109   1.408   2.906  1.00  0.00    -0.391 OA
ATOM     46  H4  UNL     1      47.792   1.902   3.344  1.00  0.00     0.210 HD
ENDBRANCH  35  45
BRANCH  36  47
HETATM   47  O5  UNL     1      46.329   0.151   4.914  1.00  0.00    -0.392 OA
ATOM     48  H5  UNL     1      47.081   0.152   4.333  1.00  0.00     0.210 HD
ENDBRANCH  36  47
ENDBRANCH  30  31
ENDBRANCH  27  30
ENDBRANCH  26  27
ENDBRANCH  25  26
ENDBRANCH   1  25
TORSDOF 17
ENDMDL
MODEL 4
REMARK VINA RESULT: -8.828665135      3.965      8.589
REMARK  17 active torsions:
REMARK  status: ('A' for Active; 'I' for Inactive)
REMARK    1  A    between atoms: C1_4  and  C2_5 
REMARK    2  A    between atoms: C1_4  and  C4_9 
REMARK    3  A    between atoms: C2_5  and  C3_6 
REMARK    4  A    between atoms: C4_9  and  N2_11 
REMARK    5  A    between atoms: N2_11  and  C5_13 
REMARK    6  A    between atoms: C6_16  and  O3_17 
REMARK    7  A    between atoms: O3_17  and  C7_18 
REMARK    8  A    between atoms: C7_18  and  C8_19 
REMARK    9  A    between atoms: C8_19  and  N4_20 
REMARK   10  A    between atoms: N4_20  and  C9_23 
REMARK   11  A    between atoms: C9_23  and  C10_24 
REMARK   12  A    between atoms: C11_25  and  N5_26 
REMARK   13  A    between atoms: C13_31  and  N6_32 
REMARK   14  A    between atoms: C14_36  and  O4_37 
REMARK   15  A    between atoms: C15_39  and  O5_40 
REMARK   16  A    between atoms: C16_43  and  C17_44 
REMARK   17  A    between atoms: C18_46  and  O7_47 
ROOT
HETATM    1  O3  UNL     1      43.665   2.366   3.844  1.00  0.00    -0.343 OA
ENDROOT
BRANCH   1   2
HETATM    2  C6  UNL     1      44.228   2.237   2.569  1.00  0.00     0.368 C 
HETATM    3  N3  UNL     1      44.097   0.918   2.132  1.00  0.00    -0.352 N 
HETATM    4  C5  UNL     1      45.208   0.065   1.980  1.00  0.00     0.210 C 
ATOM      5  H3  UNL     1      43.167   0.559   1.916  1.00  0.00     0.160 HD
HETATM    6  C18 UNL     1      46.503   0.810   2.083  1.00  0.00     0.190 C 
HETATM    7  C16 UNL     1      46.225   2.219   1.534  1.00  0.00     0.172 C 
HETATM    8  O6  UNL     1      45.462   2.839   2.498  1.00  0.00    -0.335 OA
BRANCH   4   9
HETATM    9  N2  UNL     1      45.158  -0.974   2.990  1.00  0.00    -0.366 N 
ATOM     10  H2  UNL     1      45.999  -1.385   3.395  1.00  0.00     0.158 HD
BRANCH   9  11
HETATM   11  C4  UNL     1      43.853  -1.378   3.369  1.00  0.00     0.313 C 
HETATM   12  F1  UNL     1      43.717  -2.735   3.162  1.00  0.00    -0.221 F 
BRANCH  11  13
HETATM   13  C1  UNL     1      43.466  -1.091   4.774  1.00  0.00     0.043 C 
HETATM   14  N1  UNL     1      44.056  -0.242   5.506  1.00  0.00    -0.401 N 
ATOM     15  H12 UNL     1      43.790  -0.045   6.471  1.00  0.00     0.155 HD
ATOM     16  H11 UNL     1      44.837   0.286   5.118  1.00  0.00     0.155 HD
BRANCH  13  17
HETATM   17  C2  UNL     1      42.333  -1.857   5.336  1.00  0.00     0.169 C 
BRANCH  17  18
HETATM   18  C3  UNL     1      41.527  -1.112   6.321  1.00  0.00     0.178 C 
HETATM   19  O1  UNL     1      41.392  -1.561   7.503  1.00  0.00    -0.648 OA
HETATM   20  O2  UNL     1      40.880   0.083   6.064  1.00  0.00    -0.648 OA
ENDBRANCH  17  18
ENDBRANCH  13  17
ENDBRANCH  11  13
ENDBRANCH   9  11
ENDBRANCH   4   9
BRANCH   6  21
HETATM   21  O7  UNL     1      46.905   0.926   3.429  1.00  0.00    -0.389 OA
ATOM     22  H7  UNL     1      46.167   1.153   3.982  1.00  0.00     0.210 HD
ENDBRANCH   6  21
BRANCH   7  23
HETATM   23  C17 UNL     1      47.531   2.941   1.274  1.00  0.00     0.149 C 
HETATM   24 CL1  UNL     1      47.458   3.812  -0.264  1.00  0.00    -0.128 Cl
ENDBRANCH   7  23
ENDBRANCH   1   2
BRANCH   1  25
HETATM   25  C7  UNL     1      44.493   3.047   4.737  1.00  0.00     0.200 C 
BRANCH  25  26
HETATM   26  C8  UNL     1      43.753   3.532   5.940  1.00  0.00     0.258 C 
BRANCH  26  27
HETATM   27  N4  UNL     1      42.425   2.912   6.040  1.00  0.00    -0.073 N 
ATOM     28  H42 UNL     1      41.675   3.555   5.784  1.00  0.00     0.277 HD
ATOM     29  H41 UNL     1      42.266   2.212   5.316  1.00  0.00     0.277 HD
BRANCH  27  30
HETATM   30  C9  UNL     1      42.261   2.374   7.378  1.00  0.00     0.241 C 
BRANCH  30  31
HETATM   31  C10 UNL     1      41.108   2.920   8.136  1.00  0.00     0.073 C 
HETATM   32  C11 UNL     1      40.456   1.991   9.099  1.00  0.00     0.193 C 
HETATM   33  C12 UNL     1      39.667   2.849  10.075  1.00  0.00     0.068 C 
HETATM   34  C13 UNL     1      39.223   4.152   9.491  1.00  0.00     0.216 C 
HETATM   35  C14 UNL     1      38.959   4.130   8.015  1.00  0.00     0.177 C 
HETATM   36  C15 UNL     1      40.044   3.485   7.220  1.00  0.00     0.156 C 
BRANCH  32  37
HETATM   37  N5  UNL     1      39.562   1.033   8.505  1.00  0.00    -0.074 N 
ATOM     38  H53 UNL     1      38.633   1.116   8.918  1.00  0.00     0.274 HD
ATOM     39  H52 UNL     1      39.352   1.296   7.543  1.00  0.00     0.274 HD
ATOM     40  H51 UNL     1      39.882   0.066   8.546  1.00  0.00     0.274 HD
ENDBRANCH  32  37
BRANCH  34  41
HETATM   41  N6  UNL     1      37.955   4.505  10.137  1.00  0.00    -0.072 N 
ATOM     42  H63 UNL     1      37.145   4.359   9.534  1.00  0.00     0.274 HD
ATOM     43  H62 UNL     1      37.688   3.855  10.876  1.00  0.00     0.274 HD
ATOM     44  H61 UNL     1      38.041   5.468  10.463  1.00  0.00     0.274 HD
ENDBRANCH  34  41
BRANCH  35  45
HETATM   45  O4  UNL     1      37.686   3.642   7.706  1.00  0.00    -0.391 OA
ATOM     46  H4  UNL     1      37.511   3.645   6.772  1.00  0.00     0.210 HD
ENDBRANCH  35  45
BRANCH  36  47
HETATM   47  O5  UNL     1      39.491   2.527   6.394  1.00  0.00    -0.392 OA
ATOM     48  H5  UNL     1      39.019   2.904   5.662  1.00  0.00     0.210 HD
ENDBRANCH  36  47
ENDBRANCH  30  31
ENDBRANCH  27  30
ENDBRANCH  26  27
ENDBRANCH  25  26
ENDBRANCH   1  25
TORSDOF 17
ENDMDL
MODEL 5
REMARK VINA RESULT: -8.789804712      3.754      8.445
REMARK  17 active torsions:
REMARK  status: ('A' for Active; 'I' for Inactive)
REMARK    1  A    between atoms: C1_4  and  C2_5 
REMARK    2  A    between atoms: C1_4  and  C4_9 
REMARK    3  A    between atoms: C2_5  and  C3_6 
REMARK    4  A    between atoms: C4_9  and  N2_11 
REMARK    5  A    between atoms: N2_11  and  C5_13 
REMARK    6  A    between atoms: C6_16  and  O3_17 
REMARK    7  A    between atoms: O3_17  and  C7_18 
REMARK    8  A    between atoms: C7_18  and  C8_19 
REMARK    9  A    between atoms: C8_19  and  N4_20 
REMARK   10  A    between atoms: N4_20  and  C9_23 
REMARK   11  A    between atoms: C9_23  and  C10_24 
REMARK   12  A    between atoms: C11_25  and  N5_26 
REMARK   13  A    between atoms: C13_31  and  N6_32 
REMARK   14  A    between atoms: C14_36  and  O4_37 
REMARK   15  A    between atoms: C15_39  and  O5_40 
REMARK   16  A    between atoms: C16_43  and  C17_44 
REMARK   17  A    between atoms: C18_46  and  O7_47 
ROOT
HETATM    1  O3  UNL     1      43.474   2.516   3.474  1.00  0.00    -0.343 OA
ENDROOT
BRANCH   1   2
HETATM    2  C6  UNL     1      44.291   1.913   2.510  1.00  0.00     0.368 C 
HETATM    3  N3  UNL     1      44.060   0.536   2.497  1.00  0.00    -0.352 N 
HETATM    4  C5  UNL     1      45.027  -0.390   2.933  1.00  0.00     0.210 C 
ATOM      5  H3  UNL     1      43.161   0.190   2.161  1.00  0.00     0.160 HD
HETATM    6  C18 UNL     1      46.363   0.252   3.142  1.00  0.00     0.190 C 
HETATM    7  C16 UNL     1      46.446   1.398   2.120  1.00  0.00     0.172 C 
HETATM    8  O6  UNL     1      45.587   2.366   2.591  1.00  0.00    -0.335 OA
BRANCH   4   9
HETATM    9  N2  UNL     1      44.580  -1.008   4.166  1.00  0.00    -0.366 N 
ATOM     10  H2  UNL     1      45.142  -1.001   5.017  1.00  0.00     0.158 HD
BRANCH   9  11
HETATM   11  C4  UNL     1      43.305  -1.624   4.099  1.00  0.00     0.313 C 
HETATM   12  F1  UNL     1      43.419  -2.840   3.459  1.00  0.00    -0.221 F 
BRANCH  11  13
HETATM   13  C1  UNL     1      42.625  -1.855   5.399  1.00  0.00     0.043 C 
HETATM   14  N1  UNL     1      41.903  -2.867   5.644  1.00  0.00    -0.401 N 
ATOM     15  H12 UNL     1      41.436  -3.027   6.537  1.00  0.00     0.155 HD
ATOM     16  H11 UNL     1      41.779  -3.573   4.918  1.00  0.00     0.155 HD
BRANCH  13  17
HETATM   17  C2  UNL     1      42.805  -0.832   6.451  1.00  0.00     0.169 C 
BRANCH  17  18
HETATM   18  C3  UNL     1      41.604  -0.589   7.272  1.00  0.00     0.178 C 
HETATM   19  O1  UNL     1      40.493  -0.327   6.711  1.00  0.00    -0.648 OA
HETATM   20  O2  UNL     1      41.576  -0.622   8.654  1.00  0.00    -0.648 OA
ENDBRANCH  17  18
ENDBRANCH  13  17
ENDBRANCH  11  13
ENDBRANCH   9  11
ENDBRANCH   4   9
BRANCH   6  21
HETATM   21  O7  UNL     1      46.454   0.801   4.438  1.00  0.00    -0.389 OA
ATOM     22  H7  UNL     1      46.158   1.704   4.442  1.00  0.00     0.210 HD
ENDBRANCH   6  21
BRANCH   7  23
HETATM   23  C17 UNL     1      47.874   1.893   2.011  1.00  0.00     0.149 C 
HETATM   24 CL1  UNL     1      48.012   3.091   0.717  1.00  0.00    -0.128 Cl
ENDBRANCH   7  23
ENDBRANCH   1   2
BRANCH   1  25
HETATM   25  C7  UNL     1      44.125   2.709   4.693  1.00  0.00     0.200 C 
BRANCH  25  26
HETATM   26  C8  UNL     1      43.179   2.699   5.849  1.00  0.00     0.258 C 
BRANCH  26  27
HETATM   27  N4  UNL     1      43.227   3.966   6.593  1.00  0.00    -0.073 N 
ATOM     28  H42 UNL     1      44.181   4.299   6.733  1.00  0.00     0.277 HD
ATOM     29  H41 UNL     1      42.881   4.753   6.045  1.00  0.00     0.277 HD
BRANCH  27  30
HETATM   30  C9  UNL     1      42.507   3.801   7.842  1.00  0.00     0.241 C 
BRANCH  30  31
HETATM   31  C10 UNL     1      41.092   3.379   7.698  1.00  0.00     0.073 C 
HETATM   32  C11 UNL     1      40.194   4.328   6.986  1.00  0.00     0.193 C 
HETATM   33  C12 UNL     1      38.981   3.532   6.531  1.00  0.00     0.068 C 
HETATM   34  C13 UNL     1      38.694   2.347   7.397  1.00  0.00     0.216 C 
HETATM   35  C14 UNL     1      39.084   2.501   8.836  1.00  0.00     0.177 C 
HETATM   36  C15 UNL     1      40.464   3.033   9.031  1.00  0.00     0.156 C 
BRANCH  32  37
HETATM   37  N5  UNL     1      39.740   5.441   7.777  1.00  0.00    -0.074 N 
ATOM     38  H53 UNL     1      39.210   5.108   8.582  1.00  0.00     0.274 HD
ATOM     39  H52 UNL     1      40.528   5.880   8.253  1.00  0.00     0.274 HD
ATOM     40  H51 UNL     1      39.203   6.141   7.264  1.00  0.00     0.274 HD
ENDBRANCH  32  37
BRANCH  34  41
HETATM   41  N6  UNL     1      37.243   2.140   7.378  1.00  0.00    -0.072 N 
ATOM     42  H63 UNL     1      36.714   3.012   7.362  1.00  0.00     0.274 HD
ATOM     43  H62 UNL     1      36.903   1.765   6.492  1.00  0.00     0.274 HD
ATOM     44  H61 UNL     1      37.013   1.548   8.176  1.00  0.00     0.274 HD
ENDBRANCH  34  41
BRANCH  35  45
HETATM   45  O4  UNL     1      38.120   3.187   9.582  1.00  0.00    -0.391 OA
ATOM     46  H4  UNL     1      38.429   4.031   9.889  1.00  0.00     0.210 HD
ENDBRANCH  35  45
BRANCH  36  47
HETATM   47  O5  UNL     1      40.417   4.112   9.890  1.00  0.00    -0.392 OA
ATOM     48  H5  UNL     1      40.328   3.851  10.800  1.00  0.00     0.210 HD
ENDBRANCH  36  47
ENDBRANCH  30  31
ENDBRANCH  27  30
ENDBRANCH  26  27
ENDBRANCH  25  26
ENDBRANCH   1  25
TORSDOF 17
ENDMDL
