MODEL 1
REMARK VINA RESULT: -7.683553130      0.000      0.000
REMARK  16 active torsions:
REMARK  status: ('A' for Active; 'I' for Inactive)
REMARK    1  A    between atoms: N1_2  and  C2_5 
REMARK    2  A    between atoms: C2_5  and  C3_6 
REMARK    3  A    between atoms: N2_9  and  O1_11 
REMARK    4  A    between atoms: C6_13  and  O2_14 
REMARK    5  A    between atoms: C7_16  and  O3_17 
REMARK    6  A    between atoms: C8_19  and  O4_20 
REMARK    7  A    between atoms: O4_20  and  C9_21 
REMARK    8  A    between atoms: C10_23  and  C11_24 
REMARK    9  A    between atoms: C11_24  and  O6_25 
REMARK   10  A    between atoms: C12_27  and  O7_28 
REMARK   11  A    between atoms: C13_30  and  N3_31 
REMARK   12  A    between atoms: C14_33  and  C15_34 
REMARK   13  A    between atoms: C14_33  and  C18_40 
REMARK   14  A    between atoms: C15_34  and  C16_35 
REMARK   15  A    between atoms: C16_35  and  N4_36 
REMARK   16  A    between atoms: N4_36  and  C17_38 
ROOT
HETATM    1  C9  UNL     1      43.027   0.921   5.006  1.00  0.00     0.415 C 
HETATM    2  O5  UNL     1      43.014  -0.452   4.715  1.00  0.00    -0.329 OA
HETATM    3  C10 UNL     1      43.576  -0.643   3.448  1.00  0.00     0.183 C 
HETATM    4  C12 UNL     1      44.915   0.145   3.528  1.00  0.00     0.198 C 
HETATM    5  C13 UNL     1      44.636   1.605   3.573  1.00  0.00     0.258 C 
HETATM    6  O9  UNL     1      43.224   1.685   3.888  1.00  0.00    -0.311 OA
ENDROOT
BRANCH   1   7
HETATM    7  O4  UNL     1      41.778   1.169   5.602  1.00  0.00    -0.330 OA
BRANCH   7   8
HETATM    8  C8  UNL     1      41.952   2.141   6.572  1.00  0.00     0.164 C 
HETATM    9  C3  UNL     1      41.314   1.640   7.846  1.00  0.00     0.048 C 
HETATM   10  C4  UNL     1      41.242   2.667   8.925  1.00  0.00     0.066 C 
HETATM   11  C5  UNL     1      41.883   3.921   8.400  1.00  0.00     0.041 C 
HETATM   12  N2  UNL     1      42.878   4.452   9.007  1.00  0.00    -0.275 N 
HETATM   13  C6  UNL     1      41.297   4.487   7.157  1.00  0.00     0.196 C 
ATOM     14  H2  UNL     1      43.249   4.029   9.858  1.00  0.00     0.193 HD
HETATM   15  C7  UNL     1      41.348   3.423   6.085  1.00  0.00     0.182 C 
BRANCH   9  16
HETATM   16  C2  UNL     1      39.963   1.042   7.625  1.00  0.00     0.239 C 
BRANCH  16  17
HETATM   17  N1  UNL     1      38.986   1.851   8.350  1.00  0.00    -0.079 N 
HETATM   18  C1  UNL     1      37.705   1.868   7.673  1.00  0.00     0.267 C 
ATOM     19  H12 UNL     1      39.333   2.795   8.517  1.00  0.00     0.276 HD
ATOM     20  H11 UNL     1      38.892   1.545   9.318  1.00  0.00     0.276 HD
ENDBRANCH  16  17
ENDBRANCH   9  16
BRANCH  12  21
HETATM   21  O1  UNL     1      43.438   5.595   8.502  1.00  0.00    -0.290 OA
ATOM     22  H1  UNL     1      44.366   5.753   8.632  1.00  0.00     0.244 HD
ENDBRANCH  12  21
BRANCH  13  23
HETATM   23  O2  UNL     1      39.945   4.765   7.436  1.00  0.00    -0.387 OA
ATOM     24  H2  UNL     1      39.562   3.959   7.762  1.00  0.00     0.210 HD
ENDBRANCH  13  23
BRANCH  15  25
HETATM   25  O3  UNL     1      40.103   3.172   5.541  1.00  0.00    -0.390 OA
ATOM     26  H3  UNL     1      39.908   3.748   4.811  1.00  0.00     0.210 HD
ENDBRANCH  15  25
ENDBRANCH   7   8
ENDBRANCH   1   7
BRANCH   3  27
HETATM   27  C11 UNL     1      43.932  -2.096   3.316  1.00  0.00     0.199 C 
BRANCH  27  28
HETATM   28  O6  UNL     1      44.421  -2.418   2.064  1.00  0.00    -0.398 OA
ATOM     29  H6  UNL     1      45.305  -2.101   1.920  1.00  0.00     0.209 HD
ENDBRANCH  27  28
ENDBRANCH   3  27
BRANCH   5  30
HETATM   30  N3  UNL     1      44.956   2.447   2.550  1.00  0.00    -0.366 N 
HETATM   31  C14 UNL     1      44.900   2.397   1.196  1.00  0.00     0.019 C 
ATOM     32  H3  UNL     1      45.331   3.334   2.887  1.00  0.00     0.161 HD
BRANCH  31  33
HETATM   33  C15 UNL     1      45.491   3.630   0.497  1.00  0.00     0.075 C 
BRANCH  33  34
HETATM   34  C16 UNL     1      46.826   4.060   0.912  1.00  0.00     0.128 C 
BRANCH  34  35
HETATM   35  N4  UNL     1      47.953   3.215   0.704  1.00  0.00    -0.368 N 
ATOM     36  H4  UNL     1      48.354   3.141  -0.230  1.00  0.00     0.161 HD
BRANCH  35  37
HETATM   37  C17 UNL     1      48.544   2.458   1.786  1.00  0.00     0.348 C 
HETATM   38  O8  UNL     1      48.045   1.353   2.107  1.00  0.00    -0.284 OA
ENDBRANCH  35  37
ENDBRANCH  34  35
ENDBRANCH  33  34
ENDBRANCH  31  33
BRANCH  31  39
HETATM   39  C18 UNL     1      43.834   1.789   0.386  1.00  0.00     0.211 C 
HETATM   40  C19 UNL     1      43.769   2.313  -1.037  1.00  0.00     0.051 C 
HETATM   41  F1  UNL     1      43.856   0.412   0.280  1.00  0.00    -0.244 F 
ENDBRANCH  31  39
ENDBRANCH   5  30
BRANCH   4  42
HETATM   42  O7  UNL     1      45.503  -0.245   4.757  1.00  0.00    -0.389 OA
ATOM     43  H7  UNL     1      46.414  -0.419   4.553  1.00  0.00     0.210 HD
ENDBRANCH   4  42
TORSDOF 16
ENDMDL
MODEL 2
REMARK VINA RESULT: -7.328412858      1.210      1.992
REMARK  16 active torsions:
REMARK  status: ('A' for Active; 'I' for Inactive)
REMARK    1  A    between atoms: N1_2  and  C2_5 
REMARK    2  A    between atoms: C2_5  and  C3_6 
REMARK    3  A    between atoms: N2_9  and  O1_11 
REMARK    4  A    between atoms: C6_13  and  O2_14 
REMARK    5  A    between atoms: C7_16  and  O3_17 
REMARK    6  A    between atoms: C8_19  and  O4_20 
REMARK    7  A    between atoms: O4_20  and  C9_21 
REMARK    8  A    between atoms: C10_23  and  C11_24 
REMARK    9  A    between atoms: C11_24  and  O6_25 
REMARK   10  A    between atoms: C12_27  and  O7_28 
REMARK   11  A    between atoms: C13_30  and  N3_31 
REMARK   12  A    between atoms: C14_33  and  C15_34 
REMARK   13  A    between atoms: C14_33  and  C18_40 
REMARK   14  A    between atoms: C15_34  and  C16_35 
REMARK   15  A    between atoms: C16_35  and  N4_36 
REMARK   16  A    between atoms: N4_36  and  C17_38 
ROOT
HETATM    1  C9  UNL     1      42.991   1.044   4.856  1.00  0.00     0.415 C 
HETATM    2  O5  UNL     1      43.004  -0.330   4.569  1.00  0.00    -0.329 OA
HETATM    3  C10 UNL     1      43.516  -0.508   3.279  1.00  0.00     0.183 C 
HETATM    4  C12 UNL     1      44.834   0.316   3.299  1.00  0.00     0.198 C 
HETATM    5  C13 UNL     1      44.517   1.769   3.354  1.00  0.00     0.258 C 
HETATM    6  O9  UNL     1      43.118   1.810   3.730  1.00  0.00    -0.311 OA
ENDROOT
BRANCH   1   7
HETATM    7  O4  UNL     1      41.763   1.260   5.506  1.00  0.00    -0.330 OA
BRANCH   7   8
HETATM    8  C8  UNL     1      41.962   2.206   6.496  1.00  0.00     0.164 C 
HETATM    9  C3  UNL     1      41.390   1.657   7.781  1.00  0.00     0.048 C 
HETATM   10  C4  UNL     1      41.346   2.651   8.892  1.00  0.00     0.066 C 
HETATM   11  C5  UNL     1      41.941   3.932   8.376  1.00  0.00     0.041 C 
HETATM   12  N2  UNL     1      42.952   4.465   8.955  1.00  0.00    -0.275 N 
HETATM   13  C6  UNL     1      41.290   4.522   7.177  1.00  0.00     0.196 C 
ATOM     14  H2  UNL     1      43.367   4.025   9.776  1.00  0.00     0.193 HD
HETATM   15  C7  UNL     1      41.314   3.490   6.073  1.00  0.00     0.182 C 
BRANCH   9  16
HETATM   16  C2  UNL     1      40.042   1.040   7.601  1.00  0.00     0.239 C 
BRANCH  16  17
HETATM   17  N1  UNL     1      39.082   1.811   8.388  1.00  0.00    -0.079 N 
HETATM   18  C1  UNL     1      37.781   1.847   7.751  1.00  0.00     0.267 C 
ATOM     19  H12 UNL     1      39.428   2.749   8.584  1.00  0.00     0.276 HD
ATOM     20  H11 UNL     1      39.019   1.463   9.345  1.00  0.00     0.276 HD
ENDBRANCH  16  17
ENDBRANCH   9  16
BRANCH  12  21
HETATM   21  O1  UNL     1      43.468   5.632   8.459  1.00  0.00    -0.290 OA
ATOM     22  H1  UNL     1      43.723   6.320   9.063  1.00  0.00     0.244 HD
ENDBRANCH  12  21
BRANCH  13  23
HETATM   23  O2  UNL     1      39.948   4.765   7.522  1.00  0.00    -0.387 OA
ATOM     24  H2  UNL     1      39.417   4.432   6.808  1.00  0.00     0.210 HD
ENDBRANCH  13  23
BRANCH  15  25
HETATM   25  O3  UNL     1      40.051   3.230   5.576  1.00  0.00    -0.390 OA
ATOM     26  H3  UNL     1      39.491   2.815   6.221  1.00  0.00     0.210 HD
ENDBRANCH  15  25
ENDBRANCH   7   8
ENDBRANCH   1   7
BRANCH   3  27
HETATM   27  C11 UNL     1      43.907  -1.951   3.135  1.00  0.00     0.199 C 
BRANCH  27  28
HETATM   28  O6  UNL     1      44.677  -2.190   2.013  1.00  0.00    -0.398 OA
ATOM     29  H6  UNL     1      45.228  -2.960   2.099  1.00  0.00     0.209 HD
ENDBRANCH  27  28
ENDBRANCH   3  27
BRANCH   5  30
HETATM   30  N3  UNL     1      44.768   2.616   2.317  1.00  0.00    -0.366 N 
HETATM   31  C14 UNL     1      45.853   2.945   1.571  1.00  0.00     0.019 C 
ATOM     32  H3  UNL     1      43.935   3.130   2.031  1.00  0.00     0.161 HD
BRANCH  31  33
HETATM   33  C15 UNL     1      45.597   4.064   0.551  1.00  0.00     0.075 C 
BRANCH  33  34
HETATM   34  C16 UNL     1      45.331   3.663  -0.831  1.00  0.00     0.128 C 
BRANCH  34  35
HETATM   35  N4  UNL     1      44.041   3.196  -1.210  1.00  0.00    -0.368 N 
ATOM     36  H4  UNL     1      43.320   3.872  -1.462  1.00  0.00     0.161 HD
BRANCH  35  37
HETATM   37  C17 UNL     1      43.726   1.785  -1.248  1.00  0.00     0.348 C 
HETATM   38  O8  UNL     1      43.500   1.176  -0.175  1.00  0.00    -0.284 OA
ENDBRANCH  35  37
ENDBRANCH  34  35
ENDBRANCH  33  34
ENDBRANCH  31  33
BRANCH  31  39
HETATM   39  C18 UNL     1      46.903   2.029   1.101  1.00  0.00     0.211 C 
HETATM   40  C19 UNL     1      48.004   1.786   2.117  1.00  0.00     0.051 C 
HETATM   41  F1  UNL     1      46.485   0.778   0.690  1.00  0.00    -0.244 F 
ENDBRANCH  31  39
ENDBRANCH   5  30
BRANCH   4  42
HETATM   42  O7  UNL     1      45.486  -0.052   4.502  1.00  0.00    -0.389 OA
ATOM     43  H7  UNL     1      46.314   0.412   4.490  1.00  0.00     0.210 HD
ENDBRANCH   4  42
TORSDOF 16
ENDMDL
MODEL 3
REMARK VINA RESULT: -7.250666131      2.844      7.365
REMARK  16 active torsions:
REMARK  status: ('A' for Active; 'I' for Inactive)
REMARK    1  A    between atoms: N1_2  and  C2_5 
REMARK    2  A    between atoms: C2_5  and  C3_6 
REMARK    3  A    between atoms: N2_9  and  O1_11 
REMARK    4  A    between atoms: C6_13  and  O2_14 
REMARK    5  A    between atoms: C7_16  and  O3_17 
REMARK    6  A    between atoms: C8_19  and  O4_20 
REMARK    7  A    between atoms: O4_20  and  C9_21 
REMARK    8  A    between atoms: C10_23  and  C11_24 
REMARK    9  A    between atoms: C11_24  and  O6_25 
REMARK   10  A    between atoms: C12_27  and  O7_28 
REMARK   11  A    between atoms: C13_30  and  N3_31 
REMARK   12  A    between atoms: C14_33  and  C15_34 
REMARK   13  A    between atoms: C14_33  and  C18_40 
REMARK   14  A    between atoms: C15_34  and  C16_35 
REMARK   15  A    between atoms: C16_35  and  N4_36 
REMARK   16  A    between atoms: N4_36  and  C17_38 
ROOT
HETATM    1  C9  UNL     1      43.393   0.243   3.789  1.00  0.00     0.415 C 
HETATM    2  O5  UNL     1      43.296  -0.975   4.479  1.00  0.00    -0.329 OA
HETATM    3  C10 UNL     1      43.391  -0.717   5.851  1.00  0.00     0.183 C 
HETATM    4  C12 UNL     1      42.348   0.414   6.076  1.00  0.00     0.198 C 
HETATM    5  C13 UNL     1      42.829   1.673   5.446  1.00  0.00     0.258 C 
HETATM    6  O9  UNL     1      43.901   1.243   4.572  1.00  0.00    -0.311 OA
ENDROOT
BRANCH   1   7
HETATM    7  O4  UNL     1      44.219  -0.038   2.687  1.00  0.00    -0.330 OA
BRANCH   7   8
HETATM    8  C8  UNL     1      44.452   1.147   2.011  1.00  0.00     0.164 C 
HETATM    9  C3  UNL     1      44.171   0.905   0.548  1.00  0.00     0.048 C 
HETATM   10  C4  UNL     1      44.576   2.037  -0.336  1.00  0.00     0.066 C 
HETATM   11  C5  UNL     1      45.127   3.123   0.545  1.00  0.00     0.041 C 
HETATM   12  N2  UNL     1      44.614   4.297   0.536  1.00  0.00    -0.275 N 
HETATM   13  C6  UNL     1      46.280   2.749   1.405  1.00  0.00     0.196 C 
ATOM     14  H2  UNL     1      43.823   4.510  -0.070  1.00  0.00     0.193 HD
HETATM   15  C7  UNL     1      45.863   1.581   2.269  1.00  0.00     0.182 C 
BRANCH   9  16
HETATM   16  C2  UNL     1      44.766  -0.368   0.043  1.00  0.00     0.239 C 
BRANCH  16  17
HETATM   17  N1  UNL     1      45.949  -0.034  -0.747  1.00  0.00    -0.079 N 
HETATM   18  C1  UNL     1      46.188  -1.015  -1.786  1.00  0.00     0.267 C 
ATOM     19  H12 UNL     1      46.770   0.091  -0.156  1.00  0.00     0.276 HD
ATOM     20  H11 UNL     1      45.887   0.909  -1.131  1.00  0.00     0.276 HD
ENDBRANCH  16  17
ENDBRANCH   9  16
BRANCH  12  21
HETATM   21  O1  UNL     1      45.141   5.263   1.351  1.00  0.00    -0.290 OA
ATOM     22  H1  UNL     1      45.960   5.678   1.108  1.00  0.00     0.244 HD
ENDBRANCH  12  21
BRANCH  13  23
HETATM   23  O2  UNL     1      47.305   2.315   0.545  1.00  0.00    -0.387 OA
ATOM     24  H2  UNL     1      46.946   2.324  -0.335  1.00  0.00     0.210 HD
ENDBRANCH  13  23
BRANCH  15  25
HETATM   25  O3  UNL     1      46.713   0.501   2.129  1.00  0.00    -0.390 OA
ATOM     26  H3  UNL     1      47.376   0.476   2.810  1.00  0.00     0.210 HD
ENDBRANCH  15  25
ENDBRANCH   7   8
ENDBRANCH   1   7
BRANCH   3  27
HETATM   27  C11 UNL     1      42.887  -1.927   6.584  1.00  0.00     0.199 C 
BRANCH  27  28
HETATM   28  O6  UNL     1      42.305  -2.860   5.746  1.00  0.00    -0.398 OA
ATOM     29  H6  UNL     1      41.365  -2.928   5.866  1.00  0.00     0.209 HD
ENDBRANCH  27  28
ENDBRANCH   3  27
BRANCH   5  30
HETATM   30  N3  UNL     1      43.200   2.764   6.173  1.00  0.00    -0.366 N 
HETATM   31  C14 UNL     1      42.556   3.768   6.820  1.00  0.00     0.019 C 
ATOM     32  H3  UNL     1      44.214   2.847   6.251  1.00  0.00     0.161 HD
BRANCH  31  33
HETATM   33  C15 UNL     1      43.489   4.826   7.426  1.00  0.00     0.075 C 
BRANCH  33  34
HETATM   34  C16 UNL     1      43.953   4.605   8.795  1.00  0.00     0.128 C 
BRANCH  34  35
HETATM   35  N4  UNL     1      45.075   5.321   9.300  1.00  0.00    -0.368 N 
ATOM     36  H4  UNL     1      45.075   6.340   9.260  1.00  0.00     0.161 HD
BRANCH  35  37
HETATM   37  C17 UNL     1      46.216   4.639   9.870  1.00  0.00     0.348 C 
HETATM   38  O8  UNL     1      46.187   4.292  11.075  1.00  0.00    -0.284 OA
ENDBRANCH  35  37
ENDBRANCH  34  35
ENDBRANCH  33  34
ENDBRANCH  31  33
BRANCH  31  39
HETATM   39  C18 UNL     1      41.311   3.653   7.594  1.00  0.00     0.211 C 
HETATM   40  C19 UNL     1      40.057   3.628   6.739  1.00  0.00     0.051 C 
HETATM   41  F1  UNL     1      41.213   2.565   8.439  1.00  0.00    -0.244 F 
ENDBRANCH  31  39
ENDBRANCH   5  30
BRANCH   4  42
HETATM   42  O7  UNL     1      41.180  -0.016   5.398  1.00  0.00    -0.389 OA
ATOM     43  H7  UNL     1      41.423  -0.831   4.976  1.00  0.00     0.210 HD
ENDBRANCH   4  42
TORSDOF 16
ENDMDL
MODEL 4
REMARK VINA RESULT: -7.210226178      2.839      7.980
REMARK  16 active torsions:
REMARK  status: ('A' for Active; 'I' for Inactive)
REMARK    1  A    between atoms: N1_2  and  C2_5 
REMARK    2  A    between atoms: C2_5  and  C3_6 
REMARK    3  A    between atoms: N2_9  and  O1_11 
REMARK    4  A    between atoms: C6_13  and  O2_14 
REMARK    5  A    between atoms: C7_16  and  O3_17 
REMARK    6  A    between atoms: C8_19  and  O4_20 
REMARK    7  A    between atoms: O4_20  and  C9_21 
REMARK    8  A    between atoms: C10_23  and  C11_24 
REMARK    9  A    between atoms: C11_24  and  O6_25 
REMARK   10  A    between atoms: C12_27  and  O7_28 
REMARK   11  A    between atoms: C13_30  and  N3_31 
REMARK   12  A    between atoms: C14_33  and  C15_34 
REMARK   13  A    between atoms: C14_33  and  C18_40 
REMARK   14  A    between atoms: C15_34  and  C16_35 
REMARK   15  A    between atoms: C16_35  and  N4_36 
REMARK   16  A    between atoms: N4_36  and  C17_38 
ROOT
HETATM    1  C9  UNL     1      44.455   2.116   2.539  1.00  0.00     0.415 C 
HETATM    2  O5  UNL     1      45.551   1.311   2.888  1.00  0.00    -0.329 OA
HETATM    3  C10 UNL     1      45.477   1.029   4.256  1.00  0.00     0.183 C 
HETATM    4  C12 UNL     1      44.019   0.517   4.438  1.00  0.00     0.198 C 
HETATM    5  C13 UNL     1      43.065   1.644   4.259  1.00  0.00     0.258 C 
HETATM    6  O9  UNL     1      43.859   2.682   3.633  1.00  0.00    -0.311 OA
ENDROOT
BRANCH   1   7
HETATM    7  O4  UNL     1      44.987   3.082   1.667  1.00  0.00    -0.330 OA
BRANCH   7   8
HETATM    8  C8  UNL     1      44.984   2.554   0.388  1.00  0.00     0.164 C 
HETATM    9  C3  UNL     1      46.412   2.237   0.016  1.00  0.00     0.048 C 
HETATM   10  C4  UNL     1      46.589   1.852  -1.414  1.00  0.00     0.066 C 
HETATM   11  C5  UNL     1      45.230   1.866  -2.057  1.00  0.00     0.041 C 
HETATM   12  N2  UNL     1      44.762   0.816  -2.621  1.00  0.00    -0.275 N 
HETATM   13  C6  UNL     1      44.487   3.151  -1.993  1.00  0.00     0.196 C 
ATOM     14  H2  UNL     1      45.306  -0.046  -2.641  1.00  0.00     0.193 HD
HETATM   15  C7  UNL     1      44.347   3.543  -0.540  1.00  0.00     0.182 C 
BRANCH   9  16
HETATM   16  C2  UNL     1      47.363   3.335   0.365  1.00  0.00     0.239 C 
BRANCH  16  17
HETATM   17  N1  UNL     1      47.785   3.146   1.751  1.00  0.00    -0.079 N 
HETATM   18  C1  UNL     1      48.730   2.055   1.873  1.00  0.00     0.267 C 
ATOM     19  H12 UNL     1      46.986   3.018   2.371  1.00  0.00     0.276 HD
ATOM     20  H11 UNL     1      48.157   4.008   2.149  1.00  0.00     0.276 HD
ENDBRANCH  16  17
ENDBRANCH   9  16
BRANCH  12  21
HETATM   21  O1  UNL     1      43.521   0.863  -3.198  1.00  0.00    -0.290 OA
ATOM     22  H1  UNL     1      43.298   0.232  -3.871  1.00  0.00     0.244 HD
ENDBRANCH  12  21
BRANCH  13  23
HETATM   23  O2  UNL     1      45.289   4.116  -2.632  1.00  0.00    -0.387 OA
ATOM     24  H2  UNL     1      46.076   4.208  -2.108  1.00  0.00     0.210 HD
ENDBRANCH  13  23
BRANCH  15  25
HETATM   25  O3  UNL     1      44.850   4.805  -0.291  1.00  0.00    -0.390 OA
ATOM     26  H3  UNL     1      44.695   5.082   0.604  1.00  0.00     0.210 HD
ENDBRANCH  15  25
ENDBRANCH   7   8
ENDBRANCH   1   7
BRANCH   3  27
HETATM   27  C11 UNL     1      46.385  -0.134   4.537  1.00  0.00     0.199 C 
BRANCH  27  28
HETATM   28  O6  UNL     1      46.824  -0.763   3.388  1.00  0.00    -0.398 OA
ATOM     29  H6  UNL     1      47.283  -1.577   3.564  1.00  0.00     0.209 HD
ENDBRANCH  27  28
ENDBRANCH   3  27
BRANCH   5  30
HETATM   30  N3  UNL     1      42.322   2.149   5.283  1.00  0.00    -0.366 N 
HETATM   31  C14 UNL     1      41.445   1.647   6.188  1.00  0.00     0.019 C 
ATOM     32  H3  UNL     1      42.461   3.153   5.399  1.00  0.00     0.161 HD
BRANCH  31  33
HETATM   33  C15 UNL     1      40.804   2.706   7.096  1.00  0.00     0.075 C 
BRANCH  33  34
HETATM   34  C16 UNL     1      41.397   4.043   7.088  1.00  0.00     0.128 C 
BRANCH  34  35
HETATM   35  N4  UNL     1      42.355   4.414   8.074  1.00  0.00    -0.368 N 
ATOM     36  H4  UNL     1      42.043   4.590   9.029  1.00  0.00     0.161 HD
BRANCH  35  37
HETATM   37  C17 UNL     1      43.759   4.549   7.756  1.00  0.00     0.348 C 
HETATM   38  O8  UNL     1      44.175   4.167   6.636  1.00  0.00    -0.284 OA
ENDBRANCH  35  37
ENDBRANCH  34  35
ENDBRANCH  33  34
ENDBRANCH  31  33
BRANCH  31  39
HETATM   39  C18 UNL     1      41.539   0.349   6.871  1.00  0.00     0.211 C 
HETATM   40  C19 UNL     1      41.143   0.396   8.336  1.00  0.00     0.051 C 
HETATM   41  F1  UNL     1      40.814  -0.689   6.318  1.00  0.00    -0.244 F 
ENDBRANCH  31  39
ENDBRANCH   5  30
BRANCH   4  42
HETATM   42  O7  UNL     1      43.820  -0.419   3.392  1.00  0.00    -0.389 OA
ATOM     43  H7  UNL     1      43.287  -1.107   3.771  1.00  0.00     0.210 HD
ENDBRANCH   4  42
TORSDOF 16
ENDMDL
MODEL 5
REMARK VINA RESULT: -7.194799848      2.747      7.936
REMARK  16 active torsions:
REMARK  status: ('A' for Active; 'I' for Inactive)
REMARK    1  A    between atoms: N1_2  and  C2_5 
REMARK    2  A    between atoms: C2_5  and  C3_6 
REMARK    3  A    between atoms: N2_9  and  O1_11 
REMARK    4  A    between atoms: C6_13  and  O2_14 
REMARK    5  A    between atoms: C7_16  and  O3_17 
REMARK    6  A    between atoms: C8_19  and  O4_20 
REMARK    7  A    between atoms: O4_20  and  C9_21 
REMARK    8  A    between atoms: C10_23  and  C11_24 
REMARK    9  A    between atoms: C11_24  and  O6_25 
REMARK   10  A    between atoms: C12_27  and  O7_28 
REMARK   11  A    between atoms: C13_30  and  N3_31 
REMARK   12  A    between atoms: C14_33  and  C15_34 
REMARK   13  A    between atoms: C14_33  and  C18_40 
REMARK   14  A    between atoms: C15_34  and  C16_35 
REMARK   15  A    between atoms: C16_35  and  N4_36 
REMARK   16  A    between atoms: N4_36  and  C17_38 
ROOT
HETATM    1  C9  UNL     1      43.693   1.436   2.518  1.00  0.00     0.415 C 
HETATM    2  O5  UNL     1      44.967   0.926   2.812  1.00  0.00    -0.329 OA
HETATM    3  C10 UNL     1      45.189   1.052   4.187  1.00  0.00     0.183 C 
HETATM    4  C12 UNL     1      43.912   0.424   4.815  1.00  0.00     0.198 C 
HETATM    5  C13 UNL     1      42.742   1.307   4.565  1.00  0.00     0.258 C 
HETATM    6  O9  UNL     1      43.199   2.213   3.530  1.00  0.00    -0.311 OA
ENDROOT
BRANCH   1   7
HETATM    7  O4  UNL     1      43.867   2.165   1.328  1.00  0.00    -0.330 OA
BRANCH   7   8
HETATM    8  C8  UNL     1      44.557   1.366   0.433  1.00  0.00     0.164 C 
HETATM    9  C3  UNL     1      45.587   2.229  -0.255  1.00  0.00     0.048 C 
HETATM   10  C4  UNL     1      46.270   1.554  -1.397  1.00  0.00     0.066 C 
HETATM   11  C5  UNL     1      45.723   0.157  -1.488  1.00  0.00     0.041 C 
HETATM   12  N2  UNL     1      46.501  -0.858  -1.411  1.00  0.00    -0.275 N 
HETATM   13  C6  UNL     1      44.253   0.037  -1.669  1.00  0.00     0.196 C 
ATOM     14  H2  UNL     1      47.505  -0.730  -1.286  1.00  0.00     0.193 HD
HETATM   15  C7  UNL     1      43.577   0.755  -0.523  1.00  0.00     0.182 C 
BRANCH   9  16
HETATM   16  C2  UNL     1      45.040   3.546  -0.701  1.00  0.00     0.239 C 
BRANCH  16  17
HETATM   17  N1  UNL     1      45.147   4.482   0.416  1.00  0.00    -0.079 N 
HETATM   18  C1  UNL     1      46.458   4.428   1.029  1.00  0.00     0.267 C 
ATOM     19  H12 UNL     1      44.408   4.331   1.102  1.00  0.00     0.276 HD
ATOM     20  H11 UNL     1      44.907   5.431   0.132  1.00  0.00     0.276 HD
ENDBRANCH  16  17
ENDBRANCH   9  16
BRANCH  12  21
HETATM   21  O1  UNL     1      45.970  -2.117  -1.498  1.00  0.00    -0.290 OA
ATOM     22  H1  UNL     1      45.493  -2.471  -0.757  1.00  0.00     0.244 HD
ENDBRANCH  12  21
BRANCH  13  23
HETATM   23  O2  UNL     1      43.934   0.716  -2.860  1.00  0.00    -0.387 OA
ATOM     24  H2  UNL     1      43.269   0.200  -3.300  1.00  0.00     0.210 HD
ENDBRANCH  13  23
BRANCH  15  25
HETATM   25  O3  UNL     1      42.694   1.722  -0.963  1.00  0.00    -0.390 OA
ATOM     26  H3  UNL     1      42.962   2.103  -1.791  1.00  0.00     0.210 HD
ENDBRANCH  15  25
ENDBRANCH   7   8
ENDBRANCH   1   7
BRANCH   3  27
HETATM   27  C11 UNL     1      46.340   0.159   4.552  1.00  0.00     0.199 C 
BRANCH  27  28
HETATM   28  O6  UNL     1      46.751  -0.644   3.505  1.00  0.00    -0.398 OA
ATOM     29  H6  UNL     1      47.400  -1.287   3.765  1.00  0.00     0.209 HD
ENDBRANCH  27  28
ENDBRANCH   3  27
BRANCH   5  30
HETATM   30  N3  UNL     1      42.107   1.986   5.561  1.00  0.00    -0.366 N 
HETATM   31  C14 UNL     1      41.220   1.673   6.539  1.00  0.00     0.019 C 
ATOM     32  H3  UNL     1      42.360   2.974   5.574  1.00  0.00     0.161 HD
BRANCH  31  33
HETATM   33  C15 UNL     1      40.742   2.877   7.363  1.00  0.00     0.075 C 
BRANCH  33  34
HETATM   34  C16 UNL     1      41.417   4.155   7.135  1.00  0.00     0.128 C 
BRANCH  34  35
HETATM   35  N4  UNL     1      42.461   4.584   8.002  1.00  0.00    -0.368 N 
ATOM     36  H4  UNL     1      42.223   4.965   8.917  1.00  0.00     0.161 HD
BRANCH  35  37
HETATM   37  C17 UNL     1      43.852   4.494   7.617  1.00  0.00     0.348 C 
HETATM   38  O8  UNL     1      44.148   4.073   6.473  1.00  0.00    -0.284 OA
ENDBRANCH  35  37
ENDBRANCH  34  35
ENDBRANCH  33  34
ENDBRANCH  31  33
BRANCH  31  39
HETATM   39  C18 UNL     1      41.200   0.441   7.341  1.00  0.00     0.211 C 
HETATM   40  C19 UNL     1      40.589   0.615   8.719  1.00  0.00     0.051 C 
HETATM   41  F1  UNL     1      40.560  -0.646   6.778  1.00  0.00    -0.244 F 
ENDBRANCH  31  39
ENDBRANCH   5  30
BRANCH   4  42
HETATM   42  O7  UNL     1      43.718  -0.797   4.121  1.00  0.00    -0.389 OA
ATOM     43  H7  UNL     1      43.265  -0.559   3.321  1.00  0.00     0.210 HD
ENDBRANCH   4  42
TORSDOF 16
ENDMDL
