MODEL 1
REMARK VINA RESULT: -6.994236822      0.000      0.000
REMARK  8 active torsions:
REMARK  status: ('A' for Active; 'I' for Inactive)
REMARK    1  A    between atoms: C2_2  and  C3_3 
REMARK    2  A    between atoms: C3_3  and  N1_4 
REMARK    3  A    between atoms: N1_4  and  C4_7 
REMARK    4  A    between atoms: C4_7  and  C5_8 
REMARK    5  A    between atoms: C5_8  and  N2_9 
REMARK    6  A    between atoms: N2_9  and  C6_12 
REMARK    7  A    between atoms: C6_12  and  C7_13 
REMARK    8  A    between atoms: C7_13  and  C8_14 
ROOT
HETATM    1  C8  UNL     1       3.687   7.874  43.738  1.00  0.00     0.108 C 
HETATM    2  C9  UNL     1       5.132   8.101  43.625  1.00  0.00     0.228 C 
HETATM    3  O1  UNL     1       6.068   7.381  44.048  1.00  0.00    -0.273 OA
HETATM    4  N3  UNL     1       5.270   9.357  42.913  1.00  0.00    -0.326 N 
ATOM      5  H3  UNL     1       6.009   9.620  42.260  1.00  0.00     0.168 HD
HETATM    6  C10 UNL     1       4.137  10.163  43.326  1.00  0.00     0.065 C 
HETATM    7  C11 UNL     1       3.881  11.436  43.483  1.00  0.00     0.089 A 
HETATM    8  N4  UNL     1       4.729  12.481  43.252  1.00  0.00    -0.305 N 
ATOM      9  H4  UNL     1       5.687  12.436  42.907  1.00  0.00     0.171 HD
HETATM   10  C12 UNL     1       4.028  13.587  43.580  1.00  0.00     0.325 A 
HETATM   11  O2  UNL     1       4.504  14.752  43.488  1.00  0.00    -0.247 OA
HETATM   12  N5  UNL     1       2.797  13.273  44.001  1.00  0.00    -0.305 N 
ATOM     13  H5  UNL     1       2.074  13.926  44.304  1.00  0.00     0.171 HD
HETATM   14  C13 UNL     1       2.692  11.936  43.951  1.00  0.00     0.080 A 
HETATM   15  C14 UNL     1       1.771  11.077  44.360  1.00  0.00     0.116 C 
HETATM   16  N6  UNL     1       2.025   9.655  44.319  1.00  0.00    -0.386 N 
ATOM     17  H6  UNL     1       1.514   9.009  44.921  1.00  0.00     0.159 HD
HETATM   18  C15 UNL     1       3.001   9.196  43.422  1.00  0.00     0.146 C 
ENDROOT
BRANCH   1  19
HETATM   19  C7  UNL     1       3.129   6.883  42.778  1.00  0.00     0.044 C 
BRANCH  19  20
HETATM   20  C6  UNL     1       3.685   5.509  42.758  1.00  0.00     0.233 C 
BRANCH  20  21
HETATM   21  N2  UNL     1       3.935   5.009  41.461  1.00  0.00    -0.073 N 
ATOM     22  H22 UNL     1       3.076   4.984  40.911  1.00  0.00     0.277 HD
ATOM     23  H21 UNL     1       4.144   4.011  41.492  1.00  0.00     0.277 HD
BRANCH  21  24
HETATM   24  C5  UNL     1       4.977   5.733  40.759  1.00  0.00     0.259 C 
BRANCH  24  25
HETATM   25  C4  UNL     1       4.735   5.898  39.295  1.00  0.00     0.260 C 
BRANCH  25  26
HETATM   26  N1  UNL     1       3.810   6.964  39.050  1.00  0.00    -0.070 N 
ATOM     27  H12 UNL     1       4.253   7.739  38.557  1.00  0.00     0.277 HD
ATOM     28  H11 UNL     1       3.561   7.448  39.912  1.00  0.00     0.277 HD
BRANCH  26  29
HETATM   29  C3  UNL     1       2.631   6.486  38.344  1.00  0.00     0.259 C 
BRANCH  29  30
HETATM   30  C2  UNL     1       2.927   5.341  37.472  1.00  0.00    -0.010 C 
HETATM   31  C1  UNL     1       2.016   4.886  36.633  1.00  0.00     0.008 C 
ENDBRANCH  29  30
ENDBRANCH  26  29
ENDBRANCH  25  26
ENDBRANCH  24  25
ENDBRANCH  21  24
ENDBRANCH  20  21
ENDBRANCH  19  20
ENDBRANCH   1  19
TORSDOF 8
ENDMDL
MODEL 2
REMARK VINA RESULT: -6.926283877      1.018      1.249
REMARK  8 active torsions:
REMARK  status: ('A' for Active; 'I' for Inactive)
REMARK    1  A    between atoms: C2_2  and  C3_3 
REMARK    2  A    between atoms: C3_3  and  N1_4 
REMARK    3  A    between atoms: N1_4  and  C4_7 
REMARK    4  A    between atoms: C4_7  and  C5_8 
REMARK    5  A    between atoms: C5_8  and  N2_9 
REMARK    6  A    between atoms: N2_9  and  C6_12 
REMARK    7  A    between atoms: C6_12  and  C7_13 
REMARK    8  A    between atoms: C7_13  and  C8_14 
ROOT
HETATM    1  C8  UNL     1       3.603   7.871  43.837  1.00  0.00     0.108 C 
HETATM    2  C9  UNL     1       5.048   8.072  43.680  1.00  0.00     0.228 C 
HETATM    3  O1  UNL     1       5.984   7.350  44.097  1.00  0.00    -0.273 OA
HETATM    4  N3  UNL     1       5.186   9.307  42.932  1.00  0.00    -0.326 N 
ATOM      5  H3  UNL     1       5.911   9.541  42.253  1.00  0.00     0.168 HD
HETATM    6  C10 UNL     1       4.076  10.141  43.352  1.00  0.00     0.065 C 
HETATM    7  C11 UNL     1       3.843  11.422  43.483  1.00  0.00     0.089 A 
HETATM    8  N4  UNL     1       4.700  12.447  43.201  1.00  0.00    -0.305 N 
ATOM      9  H4  UNL     1       5.648  12.378  42.832  1.00  0.00     0.171 HD
HETATM   10  C12 UNL     1       4.025  13.572  43.517  1.00  0.00     0.325 A 
HETATM   11  O2  UNL     1       4.516  14.727  43.382  1.00  0.00    -0.247 OA
HETATM   12  N5  UNL     1       2.801  13.289  43.979  1.00  0.00    -0.305 N 
ATOM     13  H5  UNL     1       2.097  13.961  44.283  1.00  0.00     0.171 HD
HETATM   14  C13 UNL     1       2.675  11.952  43.968  1.00  0.00     0.080 A 
HETATM   15  C14 UNL     1       1.753  11.119  44.423  1.00  0.00     0.116 C 
HETATM   16  N6  UNL     1       1.985   9.693  44.414  1.00  0.00    -0.386 N 
ATOM     17  H6  UNL     1       1.480   9.071  45.046  1.00  0.00     0.159 HD
HETATM   18  C15 UNL     1       2.929   9.195  43.504  1.00  0.00     0.146 C 
ENDROOT
BRANCH   1  19
HETATM   19  C7  UNL     1       3.006   6.864  42.919  1.00  0.00     0.044 C 
BRANCH  19  20
HETATM   20  C6  UNL     1       3.851   5.753  42.422  1.00  0.00     0.233 C 
BRANCH  20  21
HETATM   21  N2  UNL     1       3.698   5.487  41.043  1.00  0.00    -0.073 N 
ATOM     22  H22 UNL     1       2.875   4.910  40.875  1.00  0.00     0.277 HD
ATOM     23  H21 UNL     1       4.422   4.847  40.714  1.00  0.00     0.277 HD
BRANCH  21  24
HETATM   24  C5  UNL     1       3.661   6.687  40.229  1.00  0.00     0.259 C 
BRANCH  24  25
HETATM   25  C4  UNL     1       2.879   6.553  38.965  1.00  0.00     0.260 C 
BRANCH  25  26
HETATM   26  N1  UNL     1       3.753   6.475  37.833  1.00  0.00    -0.070 N 
ATOM     27  H12 UNL     1       4.637   6.952  38.009  1.00  0.00     0.277 HD
ATOM     28  H11 UNL     1       3.417   7.050  37.060  1.00  0.00     0.277 HD
BRANCH  26  29
HETATM   29  C3  UNL     1       3.962   5.096  37.423  1.00  0.00     0.259 C 
BRANCH  29  30
HETATM   30  C2  UNL     1       5.387   4.748  37.335  1.00  0.00    -0.010 C 
HETATM   31  C1  UNL     1       5.789   3.768  36.549  1.00  0.00     0.008 C 
ENDBRANCH  29  30
ENDBRANCH  26  29
ENDBRANCH  25  26
ENDBRANCH  24  25
ENDBRANCH  21  24
ENDBRANCH  20  21
ENDBRANCH  19  20
ENDBRANCH   1  19
TORSDOF 8
ENDMDL
MODEL 3
REMARK VINA RESULT: -6.876952907      1.651      2.223
REMARK  8 active torsions:
REMARK  status: ('A' for Active; 'I' for Inactive)
REMARK    1  A    between atoms: C2_2  and  C3_3 
REMARK    2  A    between atoms: C3_3  and  N1_4 
REMARK    3  A    between atoms: N1_4  and  C4_7 
REMARK    4  A    between atoms: C4_7  and  C5_8 
REMARK    5  A    between atoms: C5_8  and  N2_9 
REMARK    6  A    between atoms: N2_9  and  C6_12 
REMARK    7  A    between atoms: C6_12  and  C7_13 
REMARK    8  A    between atoms: C7_13  and  C8_14 
ROOT
HETATM    1  C8  UNL     1       3.769   7.883  43.907  1.00  0.00     0.108 C 
HETATM    2  C9  UNL     1       5.202   8.131  43.722  1.00  0.00     0.228 C 
HETATM    3  O1  UNL     1       6.171   7.451  44.137  1.00  0.00    -0.273 OA
HETATM    4  N3  UNL     1       5.285   9.356  42.947  1.00  0.00    -0.326 N 
ATOM      5  H3  UNL     1       5.989   9.601  42.252  1.00  0.00     0.168 HD
HETATM    6  C10 UNL     1       4.153  10.158  43.370  1.00  0.00     0.065 C 
HETATM    7  C11 UNL     1       3.876  11.432  43.480  1.00  0.00     0.089 A 
HETATM    8  N4  UNL     1       4.692  12.481  43.164  1.00  0.00    -0.305 N 
ATOM      9  H4  UNL     1       5.635  12.438  42.780  1.00  0.00     0.171 HD
HETATM   10  C12 UNL     1       3.983  13.588  43.469  1.00  0.00     0.325 A 
HETATM   11  O2  UNL     1       4.430  14.756  43.303  1.00  0.00    -0.247 OA
HETATM   12  N5  UNL     1       2.777  13.271  43.958  1.00  0.00    -0.305 N 
ATOM     13  H5  UNL     1       2.054  13.924  44.261  1.00  0.00     0.171 HD
HETATM   14  C13 UNL     1       2.698  11.931  43.974  1.00  0.00     0.080 A 
HETATM   15  C14 UNL     1       1.814  11.075  44.461  1.00  0.00     0.116 C 
HETATM   16  N6  UNL     1       2.096   9.658  44.476  1.00  0.00    -0.386 N 
ATOM     17  H6  UNL     1       1.624   9.031  45.129  1.00  0.00     0.159 HD
HETATM   18  C15 UNL     1       3.042   9.175  43.560  1.00  0.00     0.146 C 
ENDROOT
BRANCH   1  19
HETATM   19  C7  UNL     1       3.192   6.837  43.019  1.00  0.00     0.044 C 
BRANCH  19  20
HETATM   20  C6  UNL     1       3.984   6.363  41.859  1.00  0.00     0.233 C 
BRANCH  20  21
HETATM   21  N2  UNL     1       3.371   6.603  40.609  1.00  0.00    -0.073 N 
ATOM     22  H22 UNL     1       2.712   7.378  40.671  1.00  0.00     0.277 HD
ATOM     23  H21 UNL     1       2.724   5.850  40.373  1.00  0.00     0.277 HD
BRANCH  21  24
HETATM   24  C5  UNL     1       4.323   6.820  39.537  1.00  0.00     0.259 C 
BRANCH  24  25
HETATM   25  C4  UNL     1       5.688   7.219  39.993  1.00  0.00     0.260 C 
BRANCH  25  26
HETATM   26  N1  UNL     1       6.177   8.323  39.223  1.00  0.00    -0.070 N 
ATOM     27  H12 UNL     1       6.199   9.183  39.772  1.00  0.00     0.277 HD
ATOM     28  H11 UNL     1       5.507   8.610  38.510  1.00  0.00     0.277 HD
BRANCH  26  29
HETATM   29  C3  UNL     1       7.479   8.026  38.645  1.00  0.00     0.259 C 
BRANCH  29  30
HETATM   30  C2  UNL     1       7.372   7.446  37.299  1.00  0.00    -0.010 C 
HETATM   31  C1  UNL     1       8.388   6.790  36.771  1.00  0.00     0.008 C 
ENDBRANCH  29  30
ENDBRANCH  26  29
ENDBRANCH  25  26
ENDBRANCH  24  25
ENDBRANCH  21  24
ENDBRANCH  20  21
ENDBRANCH  19  20
ENDBRANCH   1  19
TORSDOF 8
ENDMDL
MODEL 4
REMARK VINA RESULT: -6.787702284      1.870      3.481
REMARK  8 active torsions:
REMARK  status: ('A' for Active; 'I' for Inactive)
REMARK    1  A    between atoms: C2_2  and  C3_3 
REMARK    2  A    between atoms: C3_3  and  N1_4 
REMARK    3  A    between atoms: N1_4  and  C4_7 
REMARK    4  A    between atoms: C4_7  and  C5_8 
REMARK    5  A    between atoms: C5_8  and  N2_9 
REMARK    6  A    between atoms: N2_9  and  C6_12 
REMARK    7  A    between atoms: C6_12  and  C7_13 
REMARK    8  A    between atoms: C7_13  and  C8_14 
ROOT
HETATM    1  C8  UNL     1       3.563   7.919  43.847  1.00  0.00     0.108 C 
HETATM    2  C9  UNL     1       5.012   8.092  43.696  1.00  0.00     0.228 C 
HETATM    3  O1  UNL     1       5.933   7.347  44.110  1.00  0.00    -0.273 OA
HETATM    4  N3  UNL     1       5.178   9.330  42.957  1.00  0.00    -0.326 N 
ATOM      5  H3  UNL     1       5.909   9.553  42.282  1.00  0.00     0.168 HD
HETATM    6  C10 UNL     1       4.084  10.182  43.381  1.00  0.00     0.065 C 
HETATM    7  C11 UNL     1       3.876  11.467  43.520  1.00  0.00     0.089 A 
HETATM    8  N4  UNL     1       4.755  12.476  43.250  1.00  0.00    -0.305 N 
ATOM      9  H4  UNL     1       5.702  12.390  42.882  1.00  0.00     0.171 HD
HETATM   10  C12 UNL     1       4.102  13.612  43.572  1.00  0.00     0.325 A 
HETATM   11  O2  UNL     1       4.617  14.758  43.447  1.00  0.00    -0.247 OA
HETATM   12  N5  UNL     1       2.871  13.350  44.029  1.00  0.00    -0.305 N 
ATOM     13  H5  UNL     1       2.180  14.035  44.336  1.00  0.00     0.171 HD
HETATM   14  C13 UNL     1       2.718  12.017  44.007  1.00  0.00     0.080 A 
HETATM   15  C14 UNL     1       1.778  11.200  44.453  1.00  0.00     0.116 C 
HETATM   16  N6  UNL     1       1.980   9.769  44.434  1.00  0.00    -0.386 N 
ATOM     17  H6  UNL     1       1.461   9.153  45.060  1.00  0.00     0.159 HD
HETATM   18  C15 UNL     1       2.917   9.259  43.523  1.00  0.00     0.146 C 
ENDROOT
BRANCH   1  19
HETATM   19  C7  UNL     1       2.948   6.931  42.919  1.00  0.00     0.044 C 
BRANCH  19  20
HETATM   20  C6  UNL     1       3.513   6.774  41.558  1.00  0.00     0.233 C 
BRANCH  20  21
HETATM   21  N2  UNL     1       3.976   5.470  41.276  1.00  0.00    -0.073 N 
ATOM     22  H22 UNL     1       4.955   5.486  40.993  1.00  0.00     0.277 HD
ATOM     23  H21 UNL     1       3.558   5.116  40.415  1.00  0.00     0.277 HD
BRANCH  21  24
HETATM   24  C5  UNL     1       3.770   4.540  42.370  1.00  0.00     0.259 C 
BRANCH  24  25
HETATM   25  C4  UNL     1       5.021   4.125  43.071  1.00  0.00     0.260 C 
BRANCH  25  26
HETATM   26  N1  UNL     1       4.926   4.387  44.476  1.00  0.00    -0.070 N 
ATOM     27  H12 UNL     1       5.054   5.377  44.682  1.00  0.00     0.277 HD
ATOM     28  H11 UNL     1       5.731   4.017  44.981  1.00  0.00     0.277 HD
BRANCH  26  29
HETATM   29  C3  UNL     1       3.675   3.884  45.021  1.00  0.00     0.259 C 
BRANCH  29  30
HETATM   30  C2  UNL     1       3.125   4.765  46.062  1.00  0.00    -0.010 C 
HETATM   31  C1  UNL     1       1.859   5.133  46.025  1.00  0.00     0.008 C 
ENDBRANCH  29  30
ENDBRANCH  26  29
ENDBRANCH  25  26
ENDBRANCH  24  25
ENDBRANCH  21  24
ENDBRANCH  20  21
ENDBRANCH  19  20
ENDBRANCH   1  19
TORSDOF 8
ENDMDL
MODEL 5
REMARK VINA RESULT: -6.772705677      1.518      2.431
REMARK  8 active torsions:
REMARK  status: ('A' for Active; 'I' for Inactive)
REMARK    1  A    between atoms: C2_2  and  C3_3 
REMARK    2  A    between atoms: C3_3  and  N1_4 
REMARK    3  A    between atoms: N1_4  and  C4_7 
REMARK    4  A    between atoms: C4_7  and  C5_8 
REMARK    5  A    between atoms: C5_8  and  N2_9 
REMARK    6  A    between atoms: N2_9  and  C6_12 
REMARK    7  A    between atoms: C6_12  and  C7_13 
REMARK    8  A    between atoms: C7_13  and  C8_14 
ROOT
HETATM    1  C8  UNL     1       3.653   7.906  43.833  1.00  0.00     0.108 C 
HETATM    2  C9  UNL     1       5.089   8.125  43.624  1.00  0.00     0.228 C 
HETATM    3  O1  UNL     1       6.048   7.414  44.009  1.00  0.00    -0.273 OA
HETATM    4  N3  UNL     1       5.185   9.360  42.870  1.00  0.00    -0.326 N 
ATOM      5  H3  UNL     1       5.882   9.602  42.166  1.00  0.00     0.168 HD
HETATM    6  C10 UNL     1       4.081  10.181  43.329  1.00  0.00     0.065 C 
HETATM    7  C11 UNL     1       3.837  11.459  43.466  1.00  0.00     0.089 A 
HETATM    8  N4  UNL     1       4.672  12.495  43.154  1.00  0.00    -0.305 N 
ATOM      9  H4  UNL     1       5.606  12.436  42.751  1.00  0.00     0.171 HD
HETATM   10  C12 UNL     1       3.995  13.612  43.492  1.00  0.00     0.325 A 
HETATM   11  O2  UNL     1       4.467  14.772  43.338  1.00  0.00    -0.247 OA
HETATM   12  N5  UNL     1       2.791  13.314  43.998  1.00  0.00    -0.305 N 
ATOM     13  H5  UNL     1       2.090  13.978  44.326  1.00  0.00     0.171 HD
HETATM   14  C13 UNL     1       2.681  11.976  43.992  1.00  0.00     0.080 A 
HETATM   15  C14 UNL     1       1.786  11.133  44.481  1.00  0.00     0.116 C 
HETATM   16  N6  UNL     1       2.034   9.710  44.465  1.00  0.00    -0.386 N 
ATOM     17  H6  UNL     1       1.560   9.082  45.115  1.00  0.00     0.159 HD
HETATM   18  C15 UNL     1       2.952   9.221  43.523  1.00  0.00     0.146 C 
ENDROOT
BRANCH   1  19
HETATM   19  C7  UNL     1       3.036   6.891  42.937  1.00  0.00     0.044 C 
BRANCH  19  20
HETATM   20  C6  UNL     1       3.782   5.646  42.639  1.00  0.00     0.233 C 
BRANCH  20  21
HETATM   21  N2  UNL     1       3.687   5.228  41.294  1.00  0.00    -0.073 N 
ATOM     22  H22 UNL     1       2.995   4.486  41.192  1.00  0.00     0.277 HD
ATOM     23  H21 UNL     1       4.524   4.715  41.013  1.00  0.00     0.277 HD
BRANCH  21  24
HETATM   24  C5  UNL     1       3.416   6.316  40.373  1.00  0.00     0.259 C 
BRANCH  24  25
HETATM   25  C4  UNL     1       4.531   6.616  39.426  1.00  0.00     0.260 C 
BRANCH  25  26
HETATM   26  N1  UNL     1       5.029   7.943  39.633  1.00  0.00    -0.070 N 
ATOM     27  H12 UNL     1       4.567   8.398  40.420  1.00  0.00     0.277 HD
ATOM     28  H11 UNL     1       4.732   8.575  38.890  1.00  0.00     0.277 HD
BRANCH  26  29
HETATM   29  C3  UNL     1       6.475   7.943  39.789  1.00  0.00     0.259 C 
BRANCH  29  30
HETATM   30  C2  UNL     1       7.060   9.275  39.578  1.00  0.00    -0.010 C 
HETATM   31  C1  UNL     1       8.063   9.691  40.327  1.00  0.00     0.008 C 
ENDBRANCH  29  30
ENDBRANCH  26  29
ENDBRANCH  25  26
ENDBRANCH  24  25
ENDBRANCH  21  24
ENDBRANCH  20  21
ENDBRANCH  19  20
ENDBRANCH   1  19
TORSDOF 8
ENDMDL
