MODEL 1
REMARK VINA RESULT: -8.177049383      0.000      0.000
REMARK  1 active torsions:
REMARK  status: ('A' for Active; 'I' for Inactive)
REMARK       I    between atoms: N1_1  and  C1_4 
REMARK       I    between atoms: C1_4  and  N3_6 
REMARK    1  A    between atoms: N3_6  and  C2_8 
ROOT
HETATM    1  C2  UNL     1      -1.451   9.627  10.842  1.00  0.00     0.192 C 
HETATM    2  N4  UNL     1      -0.808  10.799  11.105  1.00  0.00    -0.278 N 
ATOM      3  H4  UNL     1      -0.720  11.052  12.089  1.00  0.00     0.189 HD
HETATM    4  N5  UNL     1      -0.286  11.647  10.236  1.00  0.00    -0.260 N 
ATOM      5  H5  UNL     1       0.313  12.371  10.632  1.00  0.00     0.190 HD
HETATM    6  C3  UNL     1      -0.438  11.687   8.892  1.00  0.00     0.328 C 
HETATM    7  O1  UNL     1      -0.112  12.779   8.364  1.00  0.00    -0.261 OA
HETATM    8  C4  UNL     1      -0.902  10.675   8.048  1.00  0.00     0.318 C 
HETATM    9  O2  UNL     1      -0.974  10.945   6.842  1.00  0.00    -0.262 OA
HETATM   10  N6  UNL     1      -1.282   9.428   8.419  1.00  0.00    -0.283 N 
ATOM     11  H6  UNL     1      -1.545   8.801   7.659  1.00  0.00     0.172 HD
HETATM   12  C5  UNL     1      -1.362   8.896   9.681  1.00  0.00     0.294 C 
HETATM   13  O3  UNL     1      -1.349   7.649   9.769  1.00  0.00    -0.264 OA
ENDROOT
BRANCH   1  14
HETATM   14  N3  UNL     1      -2.206   9.153  11.747  1.00  0.00    -0.311 N 
HETATM   15  C1  UNL     1      -1.791   8.703  13.002  1.00  0.00     0.187 C 
HETATM   16  N1  UNL     1      -2.038   9.350  14.119  1.00  0.00    -0.373 N 
HETATM   17  N2  UNL     1      -1.063   7.463  13.146  1.00  0.00    -0.064 NA
ATOM     18  H12 UNL     1      -1.736   9.021  15.036  1.00  0.00     0.158 HD
ATOM     19  H11 UNL     1      -2.552  10.225  14.018  1.00  0.00     0.158 HD
ATOM     20  H3  UNL     1      -3.203   9.096  11.539  1.00  0.00     0.170 HD
ENDBRANCH   1  14
TORSDOF 1
ENDMDL
MODEL 2
REMARK VINA RESULT: -7.910231203      1.905      2.870
REMARK  1 active torsions:
REMARK  status: ('A' for Active; 'I' for Inactive)
REMARK       I    between atoms: N1_1  and  C1_4 
REMARK       I    between atoms: C1_4  and  N3_6 
REMARK    1  A    between atoms: N3_6  and  C2_8 
ROOT
HETATM    1  C2  UNL     1      -1.615   9.136   9.473  1.00  0.00     0.192 C 
HETATM    2  N4  UNL     1      -1.577   9.640   8.207  1.00  0.00    -0.278 N 
ATOM      3  H4  UNL     1      -2.044   9.086   7.489  1.00  0.00     0.189 HD
HETATM    4  N5  UNL     1      -1.008  10.761   7.800  1.00  0.00    -0.260 N 
ATOM      5  H5  UNL     1      -1.246  11.058   6.854  1.00  0.00     0.190 HD
HETATM    6  C3  UNL     1      -0.151  11.570   8.467  1.00  0.00     0.328 C 
HETATM    7  O1  UNL     1       0.487  12.367   7.736  1.00  0.00    -0.261 OA
HETATM    8  C4  UNL     1       0.094  11.617   9.841  1.00  0.00     0.318 C 
HETATM    9  O2  UNL     1       0.941  12.433  10.228  1.00  0.00    -0.262 OA
HETATM   10  N6  UNL     1      -0.503  10.857  10.792  1.00  0.00    -0.283 N 
ATOM     11  H6  UNL     1      -0.237  11.065  11.755  1.00  0.00     0.172 HD
HETATM   12  C5  UNL     1      -1.416   9.846  10.634  1.00  0.00     0.294 C 
HETATM   13  O3  UNL     1      -2.116   9.557  11.628  1.00  0.00    -0.264 OA
ENDROOT
BRANCH   1  14
HETATM   14  N3  UNL     1      -1.857   7.897   9.607  1.00  0.00    -0.311 N 
HETATM   15  C1  UNL     1      -0.958   6.937  10.076  1.00  0.00     0.187 C 
HETATM   16  N1  UNL     1      -1.062   6.367  11.256  1.00  0.00    -0.373 N 
HETATM   17  N2  UNL     1       0.152   6.496   9.263  1.00  0.00    -0.064 NA
ATOM     18  H12 UNL     1      -0.405   5.665  11.598  1.00  0.00     0.158 HD
ATOM     19  H11 UNL     1      -1.846   6.678  11.829  1.00  0.00     0.158 HD
ATOM     20  H3  UNL     1      -2.790   7.575   9.350  1.00  0.00     0.170 HD
ENDBRANCH   1  14
TORSDOF 1
ENDMDL
MODEL 3
REMARK VINA RESULT: -7.605130011      2.047      4.447
REMARK  1 active torsions:
REMARK  status: ('A' for Active; 'I' for Inactive)
REMARK       I    between atoms: N1_1  and  C1_4 
REMARK       I    between atoms: C1_4  and  N3_6 
REMARK    1  A    between atoms: N3_6  and  C2_8 
ROOT
HETATM    1  C2  UNL     1      -1.578  10.227  10.084  1.00  0.00     0.192 C 
HETATM    2  N4  UNL     1      -1.106  10.064  11.352  1.00  0.00    -0.278 N 
ATOM      3  H4  UNL     1      -0.942  10.919  11.884  1.00  0.00     0.189 HD
HETATM    4  N5  UNL     1      -0.836   8.930  11.974  1.00  0.00    -0.260 N 
ATOM      5  H5  UNL     1      -0.670   9.007  12.977  1.00  0.00     0.190 HD
HETATM    6  C3  UNL     1      -0.750   7.680  11.463  1.00  0.00     0.328 C 
HETATM    7  O1  UNL     1      -0.156   6.855  12.201  1.00  0.00    -0.261 OA
HETATM    8  C4  UNL     1      -1.237   7.216  10.238  1.00  0.00     0.318 C 
HETATM    9  O2  UNL     1      -1.024   6.026   9.969  1.00  0.00    -0.262 OA
HETATM   10  N6  UNL     1      -1.916   7.939   9.315  1.00  0.00    -0.283 N 
ATOM     11  H6  UNL     1      -2.242   7.421   8.499  1.00  0.00     0.172 HD
HETATM   12  C5  UNL     1      -2.226   9.276   9.331  1.00  0.00     0.294 C 
HETATM   13  O3  UNL     1      -3.172   9.645   8.602  1.00  0.00    -0.264 OA
ENDROOT
BRANCH   1  14
HETATM   14  N3  UNL     1      -1.412  11.360   9.534  1.00  0.00    -0.311 N 
HETATM   15  C1  UNL     1      -0.210  11.845   9.014  1.00  0.00     0.187 C 
HETATM   16  N1  UNL     1       0.020  11.972   7.726  1.00  0.00    -0.373 N 
HETATM   17  N2  UNL     1       0.867  12.259   9.885  1.00  0.00    -0.064 NA
ATOM     18  H12 UNL     1       0.898  12.327   7.347  1.00  0.00     0.158 HD
ATOM     19  H11 UNL     1      -0.740  11.681   7.112  1.00  0.00     0.158 HD
ATOM     20  H3  UNL     1      -2.227  11.968   9.467  1.00  0.00     0.170 HD
ENDBRANCH   1  14
TORSDOF 1
ENDMDL
MODEL 4
REMARK VINA RESULT: -7.296542458      1.929      2.950
REMARK  1 active torsions:
REMARK  status: ('A' for Active; 'I' for Inactive)
REMARK       I    between atoms: N1_1  and  C1_4 
REMARK       I    between atoms: C1_4  and  N3_6 
REMARK    1  A    between atoms: N3_6  and  C2_8 
ROOT
HETATM    1  C2  UNL     1      -1.508   8.584  10.389  1.00  0.00     0.192 C 
HETATM    2  N4  UNL     1      -1.733   8.559   9.045  1.00  0.00    -0.278 N 
ATOM      3  H4  UNL     1      -2.138   7.700   8.674  1.00  0.00     0.189 HD
HETATM    4  N5  UNL     1      -1.487   9.515   8.167  1.00  0.00    -0.260 N 
ATOM      5  H5  UNL     1      -1.894   9.378   7.242  1.00  0.00     0.190 HD
HETATM    6  C3  UNL     1      -0.769  10.651   8.326  1.00  0.00     0.328 C 
HETATM    7  O1  UNL     1      -0.420  11.201   7.252  1.00  0.00    -0.261 OA
HETATM    8  C4  UNL     1      -0.385  11.266   9.521  1.00  0.00     0.318 C 
HETATM    9  O2  UNL     1       0.290  12.299   9.423  1.00  0.00    -0.262 OA
HETATM   10  N6  UNL     1      -0.678  10.842  10.775  1.00  0.00    -0.283 N 
ATOM     11  H6  UNL     1      -0.358  11.448  11.531  1.00  0.00     0.172 HD
HETATM   12  C5  UNL     1      -1.345   9.709  11.163  1.00  0.00     0.294 C 
HETATM   13  O3  UNL     1      -1.841   9.711  12.311  1.00  0.00    -0.264 OA
ENDROOT
BRANCH   1  14
HETATM   14  N3  UNL     1      -1.442   7.470  10.997  1.00  0.00    -0.311 N 
HETATM   15  C1  UNL     1      -0.729   6.349  10.567  1.00  0.00     0.187 C 
HETATM   16  N1  UNL     1       0.375   5.930  11.145  1.00  0.00    -0.373 N 
HETATM   17  N2  UNL     1      -1.186   5.559   9.447  1.00  0.00    -0.064 NA
ATOM     18  H12 UNL     1       0.895   5.111  10.832  1.00  0.00     0.158 HD
ATOM     19  H11 UNL     1       0.698   6.487  11.936  1.00  0.00     0.158 HD
ATOM     20  H3  UNL     1      -1.953   7.389  11.875  1.00  0.00     0.170 HD
ENDBRANCH   1  14
TORSDOF 1
ENDMDL
MODEL 5
REMARK VINA RESULT: -7.293109122      2.049      4.833
REMARK  1 active torsions:
REMARK  status: ('A' for Active; 'I' for Inactive)
REMARK       I    between atoms: N1_1  and  C1_4 
REMARK       I    between atoms: C1_4  and  N3_6 
REMARK    1  A    between atoms: N3_6  and  C2_8 
ROOT
HETATM    1  C2  UNL     1      -0.482   9.875  10.358  1.00  0.00     0.192 C 
HETATM    2  N4  UNL     1      -1.438  10.387  11.183  1.00  0.00    -0.278 N 
ATOM      3  H4  UNL     1      -1.790  11.314  10.943  1.00  0.00     0.189 HD
HETATM    4  N5  UNL     1      -1.964   9.824  12.257  1.00  0.00    -0.260 N 
ATOM      5  H5  UNL     1      -2.794  10.282  12.632  1.00  0.00     0.190 HD
HETATM    6  C3  UNL     1      -1.552   8.723  12.928  1.00  0.00     0.328 C 
HETATM    7  O1  UNL     1      -2.024   8.613  14.086  1.00  0.00    -0.261 OA
HETATM    8  C4  UNL     1      -0.684   7.722  12.486  1.00  0.00     0.318 C 
HETATM    9  O2  UNL     1      -0.434   6.810  13.285  1.00  0.00    -0.262 OA
HETATM   10  N6  UNL     1      -0.089   7.650  11.270  1.00  0.00    -0.283 N 
ATOM     11  H6  UNL     1       0.474   6.816  11.102  1.00  0.00     0.172 HD
HETATM   12  C5  UNL     1      -0.142   8.548  10.235  1.00  0.00     0.294 C 
HETATM   13  O3  UNL     1       0.140   8.115   9.097  1.00  0.00    -0.264 OA
ENDROOT
BRANCH   1  14
HETATM   14  N3  UNL     1       0.163  10.690   9.627  1.00  0.00    -0.311 N 
HETATM   15  C1  UNL     1      -0.383  11.493   8.624  1.00  0.00     0.187 C 
HETATM   16  N1  UNL     1      -0.519  12.796   8.737  1.00  0.00    -0.373 N 
HETATM   17  N2  UNL     1      -0.824  10.925   7.371  1.00  0.00    -0.064 NA
ATOM     18  H12 UNL     1      -0.917  13.383   8.004  1.00  0.00     0.158 HD
ATOM     19  H11 UNL     1      -0.207  13.197   9.621  1.00  0.00     0.158 HD
ATOM     20  H3  UNL     1       1.167  10.763   9.787  1.00  0.00     0.170 HD
ENDBRANCH   1  14
TORSDOF 1
ENDMDL
