MODEL 1
REMARK VINA RESULT: -6.388114613      0.000      0.000
REMARK  2 active torsions:
REMARK  status: ('A' for Active; 'I' for Inactive)
REMARK    1  A    between atoms: C4_11  and  S1_12 
REMARK    2  A    between atoms: S1_12  and  N3_13 
ROOT
HETATM    1  N1  UNL     1       0.523   7.896  11.629  1.00  0.00    -0.234 N 
ATOM      2  H11 UNL     1       1.410   8.264  11.976  1.00  0.00     0.174 HD
ATOM      3  H12 UNL     1       0.203   6.970  11.910  1.00  0.00     0.174 HD
HETATM    4  C1  UNL     1      -0.190   8.602  10.831  1.00  0.00     0.679 A 
HETATM    5  N2  UNL     1      -1.441   8.083  10.341  1.00  0.00    -0.153 N 
ATOM      6  H2  UNL     1      -1.736   7.153  10.639  1.00  0.00     0.187 HD
HETATM    7  C2  UNL     1      -2.298   8.830   9.442  1.00  0.00     0.312 A 
HETATM    8  O1  UNL     1      -3.387   8.384   9.013  1.00  0.00    -0.263 OA
HETATM    9  C3  UNL     1      -1.855  10.161   9.025  1.00  0.00     0.277 A 
HETATM   10  O2  UNL     1      -2.489  10.952   8.253  1.00  0.00    -0.279 OA
HETATM   11  C4  UNL     1      -0.594  10.576   9.569  1.00  0.00     0.192 A 
HETATM   12  N4  UNL     1       0.259   9.897  10.437  1.00  0.00    -0.178 N 
ATOM     13  H4  UNL     1       1.138  10.296  10.765  1.00  0.00     0.185 HD
ENDROOT
BRANCH  11  14
HETATM   14  S1  UNL     1      -0.106  12.034   9.116  1.00  0.00     0.166 S 
HETATM   15  O3  UNL     1       1.014  11.986  10.156  1.00  0.00    -0.229 OA
BRANCH  14  16
HETATM   16  N3  UNL     1       0.482  12.073   7.533  1.00  0.00    -0.344 NA
ATOM     17  H32 UNL     1      -0.041  12.715   6.938  1.00  0.00     0.166 HD
ATOM     18  H31 UNL     1       1.315  12.652   7.431  1.00  0.00     0.166 HD
ENDBRANCH  14  16
ENDBRANCH  11  14
TORSDOF 2
ENDMDL
MODEL 2
REMARK VINA RESULT: -5.914118214      1.132      1.132
REMARK  2 active torsions:
REMARK  status: ('A' for Active; 'I' for Inactive)
REMARK    1  A    between atoms: C4_11  and  S1_12 
REMARK    2  A    between atoms: S1_12  and  N3_13 
ROOT
HETATM    1  N1  UNL     1       0.728   8.060  11.619  1.00  0.00    -0.234 N 
ATOM      2  H11 UNL     1       1.707   8.269  11.423  1.00  0.00     0.174 HD
ATOM      3  H12 UNL     1       0.479   7.330  12.286  1.00  0.00     0.174 HD
HETATM    4  C1  UNL     1      -0.196   8.718  11.021  1.00  0.00     0.679 A 
HETATM    5  N2  UNL     1      -1.578   8.423  11.298  1.00  0.00    -0.153 N 
ATOM      6  H2  UNL     1      -1.797   7.687  11.970  1.00  0.00     0.187 HD
HETATM    7  C2  UNL     1      -2.671   9.132  10.662  1.00  0.00     0.312 A 
HETATM    8  O1  UNL     1      -3.874   8.880  10.900  1.00  0.00    -0.263 OA
HETATM    9  C3  UNL     1      -2.335  10.183   9.702  1.00  0.00     0.277 A 
HETATM   10  O2  UNL     1      -3.168  10.909   9.065  1.00  0.00    -0.279 OA
HETATM   11  C4  UNL     1      -0.930  10.390   9.499  1.00  0.00     0.192 A 
HETATM   12  N4  UNL     1       0.152   9.739  10.089  1.00  0.00    -0.178 N 
ATOM     13  H4  UNL     1       1.119   9.975   9.870  1.00  0.00     0.185 HD
ENDROOT
BRANCH  11  14
HETATM   14  S1  UNL     1      -0.558  11.542   8.448  1.00  0.00     0.166 S 
HETATM   15  O3  UNL     1       0.922  11.398   8.809  1.00  0.00    -0.229 OA
BRANCH  14  16
HETATM   16  N3  UNL     1      -0.878  11.107   6.848  1.00  0.00    -0.344 NA
ATOM     17  H32 UNL     1      -1.064  11.915   6.253  1.00  0.00     0.166 HD
ATOM     18  H31 UNL     1      -0.034  10.904   6.313  1.00  0.00     0.166 HD
ENDBRANCH  14  16
ENDBRANCH  11  14
TORSDOF 2
ENDMDL
MODEL 3
REMARK VINA RESULT: -5.721782076      2.137      2.357
REMARK  2 active torsions:
REMARK  status: ('A' for Active; 'I' for Inactive)
REMARK    1  A    between atoms: C4_11  and  S1_12 
REMARK    2  A    between atoms: S1_12  and  N3_13 
ROOT
HETATM    1  N1  UNL     1      -2.089   9.410  13.251  1.00  0.00    -0.234 N 
ATOM      2  H11 UNL     1      -2.156  10.348  13.648  1.00  0.00     0.174 HD
ATOM      3  H12 UNL     1      -2.426   8.603  13.774  1.00  0.00     0.174 HD
HETATM    4  C1  UNL     1      -1.575   9.247  12.088  1.00  0.00     0.679 A 
HETATM    5  N2  UNL     1      -1.480   7.924  11.528  1.00  0.00    -0.153 N 
ATOM      6  H2  UNL     1      -1.824   7.134  12.075  1.00  0.00     0.187 HD
HETATM    7  C2  UNL     1      -0.916   7.668  10.217  1.00  0.00     0.312 A 
HETATM    8  O1  UNL     1      -0.831   6.520   9.725  1.00  0.00    -0.263 OA
HETATM    9  C3  UNL     1      -0.426   8.814   9.450  1.00  0.00     0.277 A 
HETATM   10  O2  UNL     1       0.085   8.770   8.284  1.00  0.00    -0.279 OA
HETATM   11  C4  UNL     1      -0.566  10.083  10.105  1.00  0.00     0.192 A 
HETATM   12  N4  UNL     1      -1.104  10.376  11.356  1.00  0.00    -0.178 N 
ATOM     13  H4  UNL     1      -1.157  11.327  11.721  1.00  0.00     0.185 HD
ENDROOT
BRANCH  11  14
HETATM   14  S1  UNL     1      -0.032  11.341   9.267  1.00  0.00     0.166 S 
HETATM   15  O3  UNL     1      -1.451  11.614   8.765  1.00  0.00    -0.229 OA
BRANCH  14  16
HETATM   16  N3  UNL     1       0.558  12.586  10.246  1.00  0.00    -0.344 NA
ATOM     17  H32 UNL     1       1.566  12.711  10.152  1.00  0.00     0.166 HD
ATOM     18  H31 UNL     1       0.403  13.513   9.849  1.00  0.00     0.166 HD
ENDBRANCH  14  16
ENDBRANCH  11  14
TORSDOF 2
ENDMDL
MODEL 4
REMARK VINA RESULT: -5.689646276      2.283      3.556
REMARK  2 active torsions:
REMARK  status: ('A' for Active; 'I' for Inactive)
REMARK    1  A    between atoms: C4_11  and  S1_12 
REMARK    2  A    between atoms: S1_12  and  N3_13 
ROOT
HETATM    1  N1  UNL     1       0.322  12.308  10.038  1.00  0.00    -0.234 N 
ATOM      2  H11 UNL     1       1.192  12.252  10.570  1.00  0.00     0.174 HD
ATOM      3  H12 UNL     1       0.020  13.195   9.635  1.00  0.00     0.174 HD
HETATM    4  C1  UNL     1      -0.396  11.259   9.880  1.00  0.00     0.679 A 
HETATM    5  N2  UNL     1      -1.623  11.338   9.130  1.00  0.00    -0.153 N 
ATOM      6  H2  UNL     1      -1.901  12.238   8.739  1.00  0.00     0.187 HD
HETATM    7  C2  UNL     1      -2.479  10.189   8.909  1.00  0.00     0.312 A 
HETATM    8  O1  UNL     1      -3.547  10.252   8.257  1.00  0.00    -0.263 OA
HETATM    9  C3  UNL     1      -2.063   8.908   9.480  1.00  0.00     0.277 A 
HETATM   10  O2  UNL     1      -2.688   7.802   9.371  1.00  0.00    -0.279 OA
HETATM   11  C4  UNL     1      -0.829   8.944  10.210  1.00  0.00     0.192 A 
HETATM   12  N4  UNL     1       0.026  10.019  10.444  1.00  0.00    -0.178 N 
ATOM     13  H4  UNL     1       0.890   9.926  10.979  1.00  0.00     0.185 HD
ENDROOT
BRANCH  11  14
HETATM   14  S1  UNL     1      -0.369   7.543  10.836  1.00  0.00     0.166 S 
HETATM   15  O3  UNL     1       0.611   7.342   9.679  1.00  0.00    -0.229 OA
BRANCH  14  16
HETATM   16  N3  UNL     1       0.414   7.707  12.325  1.00  0.00    -0.344 NA
ATOM     17  H32 UNL     1       1.371   8.048  12.227  1.00  0.00     0.166 HD
ATOM     18  H31 UNL     1       0.157   8.562  12.818  1.00  0.00     0.166 HD
ENDBRANCH  14  16
ENDBRANCH  11  14
TORSDOF 2
ENDMDL
MODEL 5
REMARK VINA RESULT: -5.641074920      2.547      2.911
REMARK  2 active torsions:
REMARK  status: ('A' for Active; 'I' for Inactive)
REMARK    1  A    between atoms: C4_11  and  S1_12 
REMARK    2  A    between atoms: S1_12  and  N3_13 
ROOT
HETATM    1  N1  UNL     1       0.546   6.290   8.497  1.00  0.00    -0.234 N 
ATOM      2  H11 UNL     1       0.767   6.522   7.528  1.00  0.00     0.174 HD
ATOM      3  H12 UNL     1       0.765   5.366   8.870  1.00  0.00     0.174 HD
HETATM    4  C1  UNL     1      -0.014   7.164   9.250  1.00  0.00     0.679 A 
HETATM    5  N2  UNL     1      -0.326   6.836  10.617  1.00  0.00    -0.153 N 
ATOM      6  H2  UNL     1      -0.095   5.904  10.962  1.00  0.00     0.187 HD
HETATM    7  C2  UNL     1      -0.953   7.778  11.523  1.00  0.00     0.312 A 
HETATM    8  O1  UNL     1      -1.226   7.499  12.713  1.00  0.00    -0.263 OA
HETATM    9  C3  UNL     1      -1.276   9.108  11.007  1.00  0.00     0.277 A 
HETATM   10  O2  UNL     1      -1.815  10.056  11.668  1.00  0.00    -0.279 OA
HETATM   11  C4  UNL     1      -0.927   9.325   9.633  1.00  0.00     0.192 A 
HETATM   12  N4  UNL     1      -0.321   8.455   8.729  1.00  0.00    -0.178 N 
ATOM     13  H4  UNL     1      -0.113   8.722   7.767  1.00  0.00     0.185 HD
ENDROOT
BRANCH  11  14
HETATM   14  S1  UNL     1      -1.278  10.782   9.065  1.00  0.00     0.166 S 
HETATM   15  O3  UNL     1      -0.811  10.355   7.672  1.00  0.00    -0.229 OA
BRANCH  14  16
HETATM   16  N3  UNL     1      -2.930  11.131   9.113  1.00  0.00    -0.344 NA
ATOM     17  H32 UNL     1      -3.493  10.425   8.637  1.00  0.00     0.166 HD
ATOM     18  H31 UNL     1      -3.365  10.882  10.002  1.00  0.00     0.166 HD
ENDBRANCH  14  16
ENDBRANCH  11  14
TORSDOF 2
ENDMDL
