MODEL 1
REMARK VINA RESULT: -7.306319977      0.000      0.000
REMARK  2 active torsions:
REMARK  status: ('A' for Active; 'I' for Inactive)
REMARK    1  A    between atoms: O1_1  and  C1_3 
REMARK    2  A    between atoms: C13_17  and  O4_18 
ROOT
HETATM    1  C1  UNL     1       2.424  20.302   2.983  1.00  0.00     0.178 C 
HETATM    2  C2  UNL     1       1.440  19.819   1.969  1.00  0.00     0.154 C 
HETATM    3  C3  UNL     1       0.041  19.628   2.436  1.00  0.00     0.035 C 
HETATM    4  C4  UNL     1      -0.554  18.324   1.887  1.00  0.00     0.006 C 
HETATM    5  C5  UNL     1       0.303  17.119   2.223  1.00  0.00     0.041 C 
HETATM    6  C6  UNL     1       1.694  17.526   2.314  1.00  0.00     0.093 C 
HETATM    7  O2  UNL     1       1.910  18.620   1.473  1.00  0.00    -0.369 OA
HETATM    8  C7  UNL     1       2.758  16.568   1.818  1.00  0.00     0.157 C 
HETATM    9  C8  UNL     1       2.724  15.236   2.453  1.00  0.00     0.035 C 
HETATM   10  C9  UNL     1       3.067  15.363   3.932  1.00  0.00     0.003 C 
HETATM   11  C10 UNL     1       2.224  16.461   4.482  1.00  0.00     0.010 C 
HETATM   12  C11 UNL     1       2.244  17.735   3.704  1.00  0.00     0.054 C 
HETATM   13  C12 UNL     1       3.662  18.093   3.233  1.00  0.00     0.160 C 
HETATM   14  O3  UNL     1       3.919  17.288   2.155  1.00  0.00    -0.374 OA
HETATM   15  C13 UNL     1       3.713  19.543   3.014  1.00  0.00     0.178 C 
ENDROOT
BRANCH   1  16
HETATM   16  O1  UNL     1       2.816  21.603   2.558  1.00  0.00    -0.390 OA
ATOM     17  H1  UNL     1       3.492  21.883   3.165  1.00  0.00     0.210 HD
ENDBRANCH   1  16
BRANCH  15  18
HETATM   18  O4  UNL     1       4.468  20.101   4.076  1.00  0.00    -0.390 OA
ATOM     19  H4  UNL     1       5.165  19.482   4.254  1.00  0.00     0.210 HD
ENDBRANCH  15  18
TORSDOF 2
ENDMDL
MODEL 2
REMARK VINA RESULT: -7.280416215      5.847      7.873
REMARK  2 active torsions:
REMARK  status: ('A' for Active; 'I' for Inactive)
REMARK    1  A    between atoms: O1_1  and  C1_3 
REMARK    2  A    between atoms: C13_17  and  O4_18 
ROOT
HETATM    1  C1  UNL     1      -2.505  20.281  -2.842  1.00  0.00     0.178 C 
HETATM    2  C2  UNL     1      -1.512  19.739  -1.867  1.00  0.00     0.154 C 
HETATM    3  C3  UNL     1      -0.108  19.618  -2.343  1.00  0.00     0.035 C 
HETATM    4  C4  UNL     1       0.515  18.286  -1.899  1.00  0.00     0.006 C 
HETATM    5  C5  UNL     1      -0.314  17.094  -2.335  1.00  0.00     0.041 C 
HETATM    6  C6  UNL     1      -1.713  17.476  -2.397  1.00  0.00     0.093 C 
HETATM    7  O2  UNL     1      -1.955  18.494  -1.472  1.00  0.00    -0.369 OA
HETATM    8  C7  UNL     1      -2.756  16.458  -1.984  1.00  0.00     0.157 C 
HETATM    9  C8  UNL     1      -2.692  15.183  -2.725  1.00  0.00     0.035 C 
HETATM   10  C9  UNL     1      -3.035  15.422  -4.190  1.00  0.00     0.003 C 
HETATM   11  C10 UNL     1      -2.215  16.580  -4.647  1.00  0.00     0.010 C 
HETATM   12  C11 UNL     1      -2.266  17.785  -3.768  1.00  0.00     0.054 C 
HETATM   13  C12 UNL     1      -3.692  18.072  -3.275  1.00  0.00     0.160 C 
HETATM   14  O3  UNL     1      -3.933  17.177  -2.266  1.00  0.00    -0.374 OA
HETATM   15  C13 UNL     1      -3.775  19.498  -2.939  1.00  0.00     0.178 C 
ENDROOT
BRANCH   1  16
HETATM   16  O1  UNL     1      -2.926  21.534  -2.315  1.00  0.00    -0.390 OA
ATOM     17  H1  UNL     1      -3.232  22.040  -3.058  1.00  0.00     0.210 HD
ENDBRANCH   1  16
BRANCH  15  18
HETATM   18  O4  UNL     1      -4.541  20.124  -3.955  1.00  0.00    -0.390 OA
ATOM     19  H4  UNL     1      -5.235  20.593  -3.507  1.00  0.00     0.210 HD
ENDBRANCH  15  18
TORSDOF 2
ENDMDL
MODEL 3
REMARK VINA RESULT: -7.116278719      5.015      7.013
REMARK  2 active torsions:
REMARK  status: ('A' for Active; 'I' for Inactive)
REMARK    1  A    between atoms: O1_1  and  C1_3 
REMARK    2  A    between atoms: C13_17  and  O4_18 
ROOT
HETATM    1  C1  UNL     1      -3.723  19.219  -3.018  1.00  0.00     0.178 C 
HETATM    2  C2  UNL     1      -3.119  17.889  -3.329  1.00  0.00     0.154 C 
HETATM    3  C3  UNL     1      -3.622  16.729  -2.546  1.00  0.00     0.035 C 
HETATM    4  C4  UNL     1      -2.469  15.816  -2.104  1.00  0.00     0.006 C 
HETATM    5  C5  UNL     1      -1.404  16.574  -1.335  1.00  0.00     0.041 C 
HETATM    6  C6  UNL     1      -1.359  17.949  -1.799  1.00  0.00     0.093 C 
HETATM    7  O2  UNL     1      -1.757  17.997  -3.137  1.00  0.00    -0.369 OA
HETATM    8  C7  UNL     1      -0.012  18.639  -1.875  1.00  0.00     0.157 C 
HETATM    9  C8  UNL     1       0.736  18.658  -0.603  1.00  0.00     0.035 C 
HETATM   10  C9  UNL     1      -0.007  19.508   0.419  1.00  0.00     0.003 C 
HETATM   11  C10 UNL     1      -1.428  19.059   0.409  1.00  0.00     0.010 C 
HETATM   12  C11 UNL     1      -2.062  18.972  -0.940  1.00  0.00     0.054 C 
HETATM   13  C12 UNL     1      -1.686  20.170  -1.825  1.00  0.00     0.160 C 
HETATM   14  O3  UNL     1      -0.415  19.928  -2.273  1.00  0.00    -0.374 OA
HETATM   15  C13 UNL     1      -2.735  20.327  -2.839  1.00  0.00     0.178 C 
ENDROOT
BRANCH   1  16
HETATM   16  O1  UNL     1      -4.445  19.603  -4.184  1.00  0.00    -0.390 OA
ATOM     17  H1  UNL     1      -4.947  18.839  -4.443  1.00  0.00     0.210 HD
ENDBRANCH   1  16
BRANCH  15  18
HETATM   18  O4  UNL     1      -3.494  21.471  -2.483  1.00  0.00    -0.390 OA
ATOM     19  H4  UNL     1      -3.093  22.202  -2.939  1.00  0.00     0.210 HD
ENDBRANCH  15  18
TORSDOF 2
ENDMDL
MODEL 4
REMARK VINA RESULT: -7.108553401      4.706      7.477
REMARK  2 active torsions:
REMARK  status: ('A' for Active; 'I' for Inactive)
REMARK    1  A    between atoms: O1_1  and  C1_3 
REMARK    2  A    between atoms: C13_17  and  O4_18 
ROOT
HETATM    1  C1  UNL     1      -1.430  16.318  -1.245  1.00  0.00     0.178 C 
HETATM    2  C2  UNL     1      -0.652  17.364  -0.517  1.00  0.00     0.154 C 
HETATM    3  C3  UNL     1      -1.186  17.793   0.803  1.00  0.00     0.035 C 
HETATM    4  C4  UNL     1      -1.109  19.318   0.964  1.00  0.00     0.006 C 
HETATM    5  C5  UNL     1      -1.805  20.047  -0.169  1.00  0.00     0.041 C 
HETATM    6  C6  UNL     1      -1.727  19.247  -1.378  1.00  0.00     0.093 C 
HETATM    7  O2  UNL     1      -0.569  18.468  -1.341  1.00  0.00    -0.369 OA
HETATM    8  C7  UNL     1      -1.552  19.961  -2.703  1.00  0.00     0.157 C 
HETATM    9  C8  UNL     1      -2.591  20.967  -2.997  1.00  0.00     0.035 C 
HETATM   10  C9  UNL     1      -3.938  20.279  -3.175  1.00  0.00     0.003 C 
HETATM   11  C10 UNL     1      -4.114  19.357  -2.018  1.00  0.00     0.010 C 
HETATM   12  C11 UNL     1      -2.959  18.453  -1.739  1.00  0.00     0.054 C 
HETATM   13  C12 UNL     1      -2.367  17.869  -3.031  1.00  0.00     0.160 C 
HETATM   14  O3  UNL     1      -1.609  18.866  -3.586  1.00  0.00    -0.374 OA
HETATM   15  C13 UNL     1      -1.682  16.618  -2.689  1.00  0.00     0.178 C 
ENDROOT
BRANCH   1  16
HETATM   16  O1  UNL     1      -0.592  15.167  -1.287  1.00  0.00    -0.390 OA
ATOM     17  H1  UNL     1      -1.126  14.469  -1.649  1.00  0.00     0.210 HD
ENDBRANCH   1  16
BRANCH  15  18
HETATM   18  O4  UNL     1      -2.485  15.554  -3.172  1.00  0.00    -0.390 OA
ATOM     19  H4  UNL     1      -2.376  15.554  -4.116  1.00  0.00     0.210 HD
ENDBRANCH  15  18
TORSDOF 2
ENDMDL
MODEL 5
REMARK VINA RESULT: -7.098324484      1.325      3.606
REMARK  2 active torsions:
REMARK  status: ('A' for Active; 'I' for Inactive)
REMARK    1  A    between atoms: O1_1  and  C1_3 
REMARK    2  A    between atoms: C13_17  and  O4_18 
ROOT
HETATM    1  C1  UNL     1       3.679  19.148   3.135  1.00  0.00     0.178 C 
HETATM    2  C2  UNL     1       3.110  17.798   3.420  1.00  0.00     0.154 C 
HETATM    3  C3  UNL     1       3.643  16.666   2.616  1.00  0.00     0.035 C 
HETATM    4  C4  UNL     1       2.514  15.732   2.156  1.00  0.00     0.006 C 
HETATM    5  C5  UNL     1       1.430  16.476   1.400  1.00  0.00     0.041 C 
HETATM    6  C6  UNL     1       1.349  17.841   1.890  1.00  0.00     0.093 C 
HETATM    7  O2  UNL     1       1.745  17.874   3.229  1.00  0.00    -0.369 OA
HETATM    8  C7  UNL     1      -0.015  18.494   1.977  1.00  0.00     0.157 C 
HETATM    9  C8  UNL     1      -0.763  18.518   0.705  1.00  0.00     0.035 C 
HETATM   10  C9  UNL     1      -0.041  19.407  -0.300  1.00  0.00     0.003 C 
HETATM   11  C10 UNL     1       1.391  18.995  -0.297  1.00  0.00     0.010 C 
HETATM   12  C11 UNL     1       2.026  18.898   1.050  1.00  0.00     0.054 C 
HETATM   13  C12 UNL     1       1.619  20.069   1.958  1.00  0.00     0.160 C 
HETATM   14  O3  UNL     1       0.354  19.786   2.400  1.00  0.00    -0.374 OA
HETATM   15  C13 UNL     1       2.663  20.234   2.976  1.00  0.00     0.178 C 
ENDROOT
BRANCH   1  16
HETATM   16  O1  UNL     1       4.391  19.528   4.308  1.00  0.00    -0.390 OA
ATOM     17  H1  UNL     1       3.751  19.533   5.011  1.00  0.00     0.210 HD
ENDBRANCH   1  16
BRANCH  15  18
HETATM   18  O4  UNL     1       3.392  21.403   2.642  1.00  0.00    -0.390 OA
ATOM     19  H4  UNL     1       2.979  22.113   3.120  1.00  0.00     0.210 HD
ENDBRANCH  15  18
TORSDOF 2
ENDMDL
