MODEL 1
REMARK VINA RESULT: -7.149452718      0.000      0.000
REMARK  14 active torsions:
REMARK  status: ('A' for Active; 'I' for Inactive)
REMARK    1  A    between atoms: C5_5  and  C6_6 
REMARK    2  A    between atoms: C6_6  and  C7_7 
REMARK    3  A    between atoms: C9_12  and  C10_13 
REMARK    4  A    between atoms: C10_13  and  C11_14 
REMARK    5  A    between atoms: C15_21  and  C16_22 
REMARK    6  A    between atoms: C16_22  and  C17_23 
REMARK    7  A    between atoms: C17_23  and  C18_24 
REMARK    8  A    between atoms: C18_24  and  N3_25 
REMARK    9  A    between atoms: C21_32  and  O3_33 
REMARK   10  A    between atoms: C22_35  and  C23_36 
REMARK   11  A    between atoms: C23_36  and  C24_37 
REMARK   12  A    between atoms: N8_45  and  C30_46 
REMARK   13  A    between atoms: C30_46  and  C31_47 
REMARK   14  A    between atoms: C34_51  and  O4_52 
ROOT
HETATM    1  C7  UNL     1       4.493  24.180   3.087  1.00  0.00     0.195 C 
HETATM    2  N1  UNL     1       4.901  24.758   1.819  1.00  0.00    -0.337 N 
ATOM      3  H1  UNL     1       4.309  24.555   1.013  1.00  0.00     0.164 HD
HETATM    4  C8  UNL     1       6.030  25.571   1.585  1.00  0.00     0.242 C 
HETATM    5  O1  UNL     1       5.982  26.435   0.669  1.00  0.00    -0.271 OA
HETATM    6  C9  UNL     1       7.297  25.501   2.339  1.00  0.00     0.177 C 
HETATM    7  N2  UNL     1       7.438  26.638   3.226  1.00  0.00    -0.346 N 
ATOM      8  H2  UNL     1       6.719  27.352   3.102  1.00  0.00     0.163 HD
HETATM    9  C14 UNL     1       8.352  26.934   4.197  1.00  0.00     0.241 C 
HETATM   10  O2  UNL     1       8.956  28.072   4.090  1.00  0.00    -0.271 OA
HETATM   11  C15 UNL     1       8.829  26.200   5.410  1.00  0.00     0.177 C 
HETATM   12  N6  UNL     1       8.407  26.950   6.611  1.00  0.00    -0.355 N 
HETATM   13  C20 UNL     1       9.376  26.986   7.712  1.00  0.00     0.152 C 
HETATM   14  C21 UNL     1       7.230  27.660   6.818  1.00  0.00     0.137 C 
HETATM   15  C22 UNL     1       5.817  27.469   6.604  1.00  0.00     0.152 C 
HETATM   16  N7  UNL     1       5.238  26.333   6.107  1.00  0.00    -0.405 N 
ATOM     17  H7  UNL     1       5.607  25.407   6.324  1.00  0.00     0.154 HD
HETATM   18  C27 UNL     1       4.074  26.509   5.254  1.00  0.00     0.167 C 
HETATM   19  C28 UNL     1       3.468  25.203   4.936  1.00  0.00     0.004 C 
HETATM   20  C29 UNL     1       2.300  24.981   5.907  1.00  0.00     0.065 C 
HETATM   21  N8  UNL     1       3.267  24.791   3.620  1.00  0.00    -0.343 N 
ENDROOT
BRANCH   1  22
HETATM   22  C6  UNL     1       4.474  22.705   2.909  1.00  0.00     0.088 C 
BRANCH  22  23
HETATM   23  C5  UNL     1       3.240  22.037   2.602  1.00  0.00    -0.021 A 
HETATM   24  C4  UNL     1       2.596  21.318   3.580  1.00  0.00     0.010 A 
HETATM   25  C3  UNL     1       1.388  20.704   3.367  1.00  0.00     0.007 A 
HETATM   26  C2  UNL     1       0.769  20.787   2.149  1.00  0.00    -0.059 A 
HETATM   27  C1  UNL     1      -0.540  20.118   1.930  1.00  0.00     0.048 C 
HETATM   28  C35 UNL     1       1.400  21.501   1.160  1.00  0.00     0.043 A 
HETATM   29  C34 UNL     1       2.641  22.130   1.378  1.00  0.00     0.072 A 
BRANCH  29  30
HETATM   30  O4  UNL     1       3.140  22.796   0.280  1.00  0.00    -0.360 OA
ATOM     31  H4  UNL     1       3.500  22.394  -0.501  1.00  0.00     0.217 HD
ENDBRANCH  29  30
ENDBRANCH  22  23
ENDBRANCH   1  22
BRANCH  21  32
HETATM   32  C30 UNL     1       2.628  25.454   2.606  1.00  0.00     0.091 C 
BRANCH  32  33
HETATM   33  C31 UNL     1       1.194  25.428   2.290  1.00  0.00     0.062 C 
HETATM   34  C32 UNL     1       0.517  26.743   2.825  1.00  0.00     0.038 C 
HETATM   35  C33 UNL     1       0.767  25.355   0.875  1.00  0.00     0.038 C 
HETATM   36 CL1  UNL     1       0.253  24.207   3.230  1.00  0.00    -0.114 Cl
ENDBRANCH  32  33
ENDBRANCH  21  32
BRANCH   6  37
HETATM   37  C10 UNL     1       8.450  25.361   1.400  1.00  0.00     0.038 C 
BRANCH  37  38
HETATM   38  C11 UNL     1       9.561  24.487   1.776  1.00  0.00    -0.020 C 
HETATM   39  C12 UNL     1       9.211  23.030   1.928  1.00  0.00     0.009 C 
HETATM   40  C13 UNL     1      10.843  24.706   1.054  1.00  0.00     0.009 C 
ENDBRANCH  37  38
ENDBRANCH   6  37
BRANCH  15  41
HETATM   41  C23 UNL     1       5.092  27.785   7.937  1.00  0.00     0.037 C 
BRANCH  41  42
HETATM   42  C24 UNL     1       3.595  27.743   7.715  1.00  0.00    -0.012 A 
HETATM   43  C25 UNL     1       2.839  29.029   7.741  1.00  0.00     0.005 A 
HETATM   44  C26 UNL     1       2.681  28.100   8.864  1.00  0.00     0.005 A 
ENDBRANCH  41  42
ENDBRANCH  15  41
BRANCH  11  45
HETATM   45  C16 UNL     1       8.463  24.770   5.416  1.00  0.00     0.037 C 
BRANCH  45  46
HETATM   46  C17 UNL     1       9.570  23.768   5.510  1.00  0.00     0.022 C 
BRANCH  46  47
HETATM   47  C18 UNL     1      10.010  23.402   6.883  1.00  0.00     0.122 C 
BRANCH  47  48
HETATM   48  N3  UNL     1      11.455  23.260   6.909  1.00  0.00    -0.367 N 
HETATM   49  C19 UNL     1      12.049  22.141   6.679  1.00  0.00     0.196 C 
HETATM   50  N4  UNL     1      13.471  22.131   6.734  1.00  0.00    -0.067 NA
HETATM   51  N5  UNL     1      11.392  20.939   6.382  1.00  0.00    -0.067 NA
ATOM     52  H3  UNL     1      12.023  24.082   7.119  1.00  0.00     0.161 HD
ENDBRANCH  47  48
ENDBRANCH  46  47
ENDBRANCH  45  46
ENDBRANCH  11  45
BRANCH  14  53
HETATM   53  O3  UNL     1       7.437  28.843   7.366  1.00  0.00    -0.348 OA
ATOM     54  H3  UNL     1       6.640  29.353   7.451  1.00  0.00     0.219 HD
ENDBRANCH  14  53
TORSDOF 14
ENDMDL
MODEL 2
REMARK VINA RESULT: -6.834252618      0.769      1.019
REMARK  14 active torsions:
REMARK  status: ('A' for Active; 'I' for Inactive)
REMARK    1  A    between atoms: C5_5  and  C6_6 
REMARK    2  A    between atoms: C6_6  and  C7_7 
REMARK    3  A    between atoms: C9_12  and  C10_13 
REMARK    4  A    between atoms: C10_13  and  C11_14 
REMARK    5  A    between atoms: C15_21  and  C16_22 
REMARK    6  A    between atoms: C16_22  and  C17_23 
REMARK    7  A    between atoms: C17_23  and  C18_24 
REMARK    8  A    between atoms: C18_24  and  N3_25 
REMARK    9  A    between atoms: C21_32  and  O3_33 
REMARK   10  A    between atoms: C22_35  and  C23_36 
REMARK   11  A    between atoms: C23_36  and  C24_37 
REMARK   12  A    between atoms: N8_45  and  C30_46 
REMARK   13  A    between atoms: C30_46  and  C31_47 
REMARK   14  A    between atoms: C34_51  and  O4_52 
ROOT
HETATM    1  C7  UNL     1       4.546  24.252   2.788  1.00  0.00     0.195 C 
HETATM    2  N1  UNL     1       4.982  24.881   1.554  1.00  0.00    -0.337 N 
ATOM      3  H1  UNL     1       4.407  24.713   0.729  1.00  0.00     0.164 HD
HETATM    4  C8  UNL     1       6.117  25.700   1.378  1.00  0.00     0.242 C 
HETATM    5  O1  UNL     1       6.091  26.601   0.497  1.00  0.00    -0.271 OA
HETATM    6  C9  UNL     1       7.368  25.595   2.155  1.00  0.00     0.177 C 
HETATM    7  N2  UNL     1       7.492  26.694   3.091  1.00  0.00    -0.346 N 
ATOM      8  H2  UNL     1       6.778  27.414   2.982  1.00  0.00     0.163 HD
HETATM    9  C14 UNL     1       8.386  26.947   4.092  1.00  0.00     0.241 C 
HETATM   10  O2  UNL     1       8.995  28.086   4.045  1.00  0.00    -0.271 OA
HETATM   11  C15 UNL     1       8.835  26.162   5.284  1.00  0.00     0.177 C 
HETATM   12  N6  UNL     1       8.390  26.864   6.505  1.00  0.00    -0.355 N 
HETATM   13  C20 UNL     1       9.335  26.852   7.628  1.00  0.00     0.152 C 
HETATM   14  C21 UNL     1       7.210  27.568   6.717  1.00  0.00     0.137 C 
HETATM   15  C22 UNL     1       5.802  27.390   6.466  1.00  0.00     0.152 C 
HETATM   16  N7  UNL     1       5.231  26.277   5.910  1.00  0.00    -0.405 N 
ATOM     17  H7  UNL     1       5.593  25.341   6.096  1.00  0.00     0.154 HD
HETATM   18  C27 UNL     1       4.086  26.491   5.040  1.00  0.00     0.167 C 
HETATM   19  C28 UNL     1       3.484  25.201   4.656  1.00  0.00     0.004 C 
HETATM   20  C29 UNL     1       2.295  24.943   5.593  1.00  0.00     0.065 C 
HETATM   21  N8  UNL     1       3.310  24.845   3.321  1.00  0.00    -0.343 N 
ENDROOT
BRANCH   1  22
HETATM   22  C6  UNL     1       4.528  22.786   2.550  1.00  0.00     0.088 C 
BRANCH  22  23
HETATM   23  C5  UNL     1       3.291  22.061   2.642  1.00  0.00    -0.021 A 
HETATM   24  C4  UNL     1       2.434  22.042   1.568  1.00  0.00     0.010 A 
HETATM   25  C3  UNL     1       1.266  21.323   1.571  1.00  0.00     0.007 A 
HETATM   26  C2  UNL     1       0.905  20.585   2.665  1.00  0.00    -0.059 A 
HETATM   27  C1  UNL     1      -0.363  19.810   2.658  1.00  0.00     0.048 C 
HETATM   28  C35 UNL     1       1.750  20.593   3.749  1.00  0.00     0.043 A 
HETATM   29  C34 UNL     1       2.948  21.333   3.746  1.00  0.00     0.072 A 
BRANCH  29  30
HETATM   30  O4  UNL     1       3.674  21.241   4.913  1.00  0.00    -0.360 OA
ATOM     31  H4  UNL     1       3.321  21.274   5.795  1.00  0.00     0.217 HD
ENDBRANCH  29  30
ENDBRANCH  22  23
ENDBRANCH   1  22
BRANCH  21  32
HETATM   32  C30 UNL     1       2.694  25.550   2.322  1.00  0.00     0.091 C 
BRANCH  32  33
HETATM   33  C31 UNL     1       1.268  25.536   1.969  1.00  0.00     0.062 C 
HETATM   34  C32 UNL     1       0.622  26.917   2.353  1.00  0.00     0.038 C 
HETATM   35  C33 UNL     1       0.874  25.335   0.557  1.00  0.00     0.038 C 
HETATM   36 CL1  UNL     1       0.265  24.443   2.999  1.00  0.00    -0.114 Cl
ENDBRANCH  32  33
ENDBRANCH  21  32
BRANCH   6  37
HETATM   37  C10 UNL     1       8.541  25.491   1.235  1.00  0.00     0.038 C 
BRANCH  37  38
HETATM   38  C11 UNL     1       9.636  24.590   1.593  1.00  0.00    -0.020 C 
HETATM   39  C12 UNL     1       9.266  23.132   1.690  1.00  0.00     0.009 C 
HETATM   40  C13 UNL     1      10.929  24.818   0.893  1.00  0.00     0.009 C 
ENDBRANCH  37  38
ENDBRANCH   6  37
BRANCH  15  41
HETATM   41  C23 UNL     1       5.049  27.653   7.794  1.00  0.00     0.037 C 
BRANCH  41  42
HETATM   42  C24 UNL     1       3.579  27.866   7.504  1.00  0.00    -0.012 A 
HETATM   43  C25 UNL     1       2.980  29.195   7.820  1.00  0.00     0.005 A 
HETATM   44  C26 UNL     1       2.629  28.048   8.665  1.00  0.00     0.005 A 
ENDBRANCH  41  42
ENDBRANCH  15  41
BRANCH  11  45
HETATM   45  C16 UNL     1       8.467  24.735   5.223  1.00  0.00     0.037 C 
BRANCH  45  46
HETATM   46  C17 UNL     1       9.568  23.726   5.322  1.00  0.00     0.022 C 
BRANCH  46  47
HETATM   47  C18 UNL     1       9.984  23.340   6.696  1.00  0.00     0.122 C 
BRANCH  47  48
HETATM   48  N3  UNL     1      11.421  23.126   6.727  1.00  0.00    -0.367 N 
HETATM   49  C19 UNL     1      11.955  21.966   6.554  1.00  0.00     0.196 C 
HETATM   50  N4  UNL     1      13.375  21.885   6.606  1.00  0.00    -0.067 NA
HETATM   51  N5  UNL     1      11.236  20.786   6.321  1.00  0.00    -0.067 NA
ATOM     52  H3  UNL     1      12.031  23.926   6.892  1.00  0.00     0.161 HD
ENDBRANCH  47  48
ENDBRANCH  46  47
ENDBRANCH  45  46
ENDBRANCH  11  45
BRANCH  14  53
HETATM   53  O3  UNL     1       7.408  28.727   7.317  1.00  0.00    -0.348 OA
ATOM     54  H3  UNL     1       7.725  28.630   8.208  1.00  0.00     0.219 HD
ENDBRANCH  14  53
TORSDOF 14
ENDMDL
MODEL 3
REMARK VINA RESULT: -6.701095996      3.132      7.161
REMARK  14 active torsions:
REMARK  status: ('A' for Active; 'I' for Inactive)
REMARK    1  A    between atoms: C5_5  and  C6_6 
REMARK    2  A    between atoms: C6_6  and  C7_7 
REMARK    3  A    between atoms: C9_12  and  C10_13 
REMARK    4  A    between atoms: C10_13  and  C11_14 
REMARK    5  A    between atoms: C15_21  and  C16_22 
REMARK    6  A    between atoms: C16_22  and  C17_23 
REMARK    7  A    between atoms: C17_23  and  C18_24 
REMARK    8  A    between atoms: C18_24  and  N3_25 
REMARK    9  A    between atoms: C21_32  and  O3_33 
REMARK   10  A    between atoms: C22_35  and  C23_36 
REMARK   11  A    between atoms: C23_36  and  C24_37 
REMARK   12  A    between atoms: N8_45  and  C30_46 
REMARK   13  A    between atoms: C30_46  and  C31_47 
REMARK   14  A    between atoms: C34_51  and  O4_52 
ROOT
HETATM    1  C7  UNL     1       5.463  24.973   2.275  1.00  0.00     0.195 C 
HETATM    2  N1  UNL     1       5.081  23.612   2.606  1.00  0.00    -0.337 N 
ATOM      3  H1  UNL     1       5.464  22.874   2.015  1.00  0.00     0.164 HD
HETATM    4  C8  UNL     1       4.235  23.203   3.659  1.00  0.00     0.242 C 
HETATM    5  O1  UNL     1       4.418  22.074   4.188  1.00  0.00    -0.271 OA
HETATM    6  C9  UNL     1       3.125  24.003   4.215  1.00  0.00     0.177 C 
HETATM    7  N2  UNL     1       3.465  24.526   5.523  1.00  0.00    -0.346 N 
ATOM      8  H2  UNL     1       4.343  24.167   5.897  1.00  0.00     0.163 HD
HETATM    9  C14 UNL     1       2.830  25.409   6.348  1.00  0.00     0.241 C 
HETATM   10  O2  UNL     1       2.595  25.004   7.553  1.00  0.00    -0.271 OA
HETATM   11  C15 UNL     1       2.323  26.804   6.157  1.00  0.00     0.177 C 
HETATM   12  N6  UNL     1       3.117  27.714   7.008  1.00  0.00    -0.355 N 
HETATM   13  C20 UNL     1       2.369  28.800   7.651  1.00  0.00     0.152 C 
HETATM   14  C21 UNL     1       4.473  27.652   7.312  1.00  0.00     0.137 C 
HETATM   15  C22 UNL     1       5.714  27.438   6.612  1.00  0.00     0.152 C 
HETATM   16  N7  UNL     1       5.841  27.267   5.260  1.00  0.00    -0.405 N 
ATOM     17  H7  UNL     1       5.240  27.761   4.600  1.00  0.00     0.154 HD
HETATM   18  C27 UNL     1       6.873  26.347   4.809  1.00  0.00     0.167 C 
HETATM   19  C28 UNL     1       6.998  26.396   3.341  1.00  0.00     0.004 C 
HETATM   20  C29 UNL     1       8.165  27.335   3.002  1.00  0.00     0.065 C 
HETATM   21  N8  UNL     1       6.879  25.249   2.559  1.00  0.00    -0.343 N 
ENDROOT
BRANCH   1  22
HETATM   22  C6  UNL     1       5.003  25.232   0.887  1.00  0.00     0.088 C 
BRANCH  22  23
HETATM   23  C5  UNL     1       3.610  25.107   0.558  1.00  0.00    -0.021 A 
HETATM   24  C4  UNL     1       3.170  23.999  -0.124  1.00  0.00     0.010 A 
HETATM   25  C3  UNL     1       1.846  23.793  -0.418  1.00  0.00     0.007 A 
HETATM   26  C2  UNL     1       0.898  24.702  -0.035  1.00  0.00    -0.059 A 
HETATM   27  C1  UNL     1      -0.534  24.469  -0.360  1.00  0.00     0.048 C 
HETATM   28  C35 UNL     1       1.321  25.817   0.648  1.00  0.00     0.043 A 
HETATM   29  C34 UNL     1       2.680  26.029   0.948  1.00  0.00     0.072 A 
BRANCH  29  30
HETATM   30  O4  UNL     1       2.934  27.199   1.628  1.00  0.00    -0.360 OA
ATOM     31  H4  UNL     1       2.302  27.880   1.826  1.00  0.00     0.217 HD
ENDBRANCH  29  30
ENDBRANCH  22  23
ENDBRANCH   1  22
BRANCH  21  32
HETATM   32  C30 UNL     1       7.544  24.058   2.682  1.00  0.00     0.091 C 
BRANCH  32  33
HETATM   33  C31 UNL     1       8.997  23.850   2.737  1.00  0.00     0.062 C 
HETATM   34  C32 UNL     1       9.304  22.308   2.715  1.00  0.00     0.038 C 
HETATM   35  C33 UNL     1       9.848  24.401   1.660  1.00  0.00     0.038 C 
HETATM   36 CL1  UNL     1       9.743  24.278   4.325  1.00  0.00    -0.114 Cl
ENDBRANCH  32  33
ENDBRANCH  21  32
BRANCH   6  37
HETATM   37  C10 UNL     1       1.866  23.198   4.229  1.00  0.00     0.038 C 
BRANCH  37  38
HETATM   38  C11 UNL     1       0.983  23.255   3.064  1.00  0.00    -0.020 C 
HETATM   39  C12 UNL     1       0.857  21.969   2.288  1.00  0.00     0.009 C 
HETATM   40  C13 UNL     1      -0.318  23.949   3.258  1.00  0.00     0.009 C 
ENDBRANCH  37  38
ENDBRANCH   6  37
BRANCH  15  41
HETATM   41  C23 UNL     1       6.679  28.586   7.003  1.00  0.00     0.037 C 
BRANCH  41  42
HETATM   42  C24 UNL     1       7.996  27.999   7.464  1.00  0.00    -0.012 A 
HETATM   43  C25 UNL     1       7.983  26.660   8.120  1.00  0.00     0.005 A 
HETATM   44  C26 UNL     1       8.242  27.844   8.947  1.00  0.00     0.005 A 
ENDBRANCH  41  42
ENDBRANCH  15  41
BRANCH  11  45
HETATM   45  C16 UNL     1       2.229  27.209   4.741  1.00  0.00     0.037 C 
BRANCH  45  46
HETATM   46  C17 UNL     1       0.866  27.299   4.131  1.00  0.00     0.022 C 
BRANCH  46  47
HETATM   47  C18 UNL     1       0.405  28.660   3.751  1.00  0.00     0.122 C 
BRANCH  47  48
HETATM   48  N3  UNL     1       0.725  28.911   2.356  1.00  0.00    -0.367 N 
HETATM   49  C19 UNL     1       1.349  29.968   1.965  1.00  0.00     0.196 C 
HETATM   50  N4  UNL     1       1.605  30.099   0.571  1.00  0.00    -0.067 NA
HETATM   51  N5  UNL     1       1.789  30.992   2.815  1.00  0.00    -0.067 NA
ATOM     52  H3  UNL     1       0.444  28.222   1.659  1.00  0.00     0.161 HD
ENDBRANCH  47  48
ENDBRANCH  46  47
ENDBRANCH  45  46
ENDBRANCH  11  45
BRANCH  14  53
HETATM   53  O3  UNL     1       4.716  27.840   8.596  1.00  0.00    -0.348 OA
ATOM     54  H3  UNL     1       4.239  28.579   8.956  1.00  0.00     0.219 HD
ENDBRANCH  14  53
TORSDOF 14
ENDMDL
MODEL 4
REMARK VINA RESULT: -5.687361751      1.342      1.582
REMARK  14 active torsions:
REMARK  status: ('A' for Active; 'I' for Inactive)
REMARK    1  A    between atoms: C5_5  and  C6_6 
REMARK    2  A    between atoms: C6_6  and  C7_7 
REMARK    3  A    between atoms: C9_12  and  C10_13 
REMARK    4  A    between atoms: C10_13  and  C11_14 
REMARK    5  A    between atoms: C15_21  and  C16_22 
REMARK    6  A    between atoms: C16_22  and  C17_23 
REMARK    7  A    between atoms: C17_23  and  C18_24 
REMARK    8  A    between atoms: C18_24  and  N3_25 
REMARK    9  A    between atoms: C21_32  and  O3_33 
REMARK   10  A    between atoms: C22_35  and  C23_36 
REMARK   11  A    between atoms: C23_36  and  C24_37 
REMARK   12  A    between atoms: N8_45  and  C30_46 
REMARK   13  A    between atoms: C30_46  and  C31_47 
REMARK   14  A    between atoms: C34_51  and  O4_52 
ROOT
HETATM    1  C7  UNL     1       4.441  24.766   1.969  1.00  0.00     0.195 C 
HETATM    2  N1  UNL     1       5.116  25.384   0.841  1.00  0.00    -0.337 N 
ATOM      3  H1  UNL     1       4.649  25.318  -0.063  1.00  0.00     0.164 HD
HETATM    4  C8  UNL     1       6.350  26.067   0.866  1.00  0.00     0.242 C 
HETATM    5  O1  UNL     1       6.551  26.998   0.040  1.00  0.00    -0.271 OA
HETATM    6  C9  UNL     1       7.458  25.785   1.800  1.00  0.00     0.177 C 
HETATM    7  N2  UNL     1       7.572  26.825   2.802  1.00  0.00    -0.346 N 
ATOM      8  H2  UNL     1       6.967  27.629   2.635  1.00  0.00     0.163 HD
HETATM    9  C14 UNL     1       8.337  26.932   3.928  1.00  0.00     0.241 C 
HETATM   10  O2  UNL     1       9.072  27.991   4.026  1.00  0.00    -0.271 OA
HETATM   11  C15 UNL     1       8.521  26.054   5.126  1.00  0.00     0.177 C 
HETATM   12  N6  UNL     1       7.989  26.758   6.311  1.00  0.00    -0.355 N 
HETATM   13  C20 UNL     1       8.758  26.591   7.550  1.00  0.00     0.152 C 
HETATM   14  C21 UNL     1       6.878  27.590   6.397  1.00  0.00     0.137 C 
HETATM   15  C22 UNL     1       5.509  27.591   5.946  1.00  0.00     0.152 C 
HETATM   16  N7  UNL     1       4.901  26.576   5.259  1.00  0.00    -0.405 N 
ATOM     17  H7  UNL     1       5.125  25.598   5.442  1.00  0.00     0.154 HD
HETATM   18  C27 UNL     1       3.922  26.959   4.253  1.00  0.00     0.167 C 
HETATM   19  C28 UNL     1       3.239  25.765   3.722  1.00  0.00     0.004 C 
HETATM   20  C29 UNL     1       1.907  25.616   4.472  1.00  0.00     0.065 C 
HETATM   21  N8  UNL     1       3.217  25.482   2.358  1.00  0.00    -0.343 N 
ENDROOT
BRANCH   1  22
HETATM   22  C6  UNL     1       4.291  23.323   1.651  1.00  0.00     0.088 C 
BRANCH  22  23
HETATM   23  C5  UNL     1       3.075  22.637   1.992  1.00  0.00    -0.021 A 
HETATM   24  C4  UNL     1       2.128  22.414   1.023  1.00  0.00     0.010 A 
HETATM   25  C3  UNL     1       0.972  21.716   1.269  1.00  0.00     0.007 A 
HETATM   26  C2  UNL     1       0.718  21.209   2.514  1.00  0.00    -0.059 A 
HETATM   27  C1  UNL     1      -0.538  20.456   2.771  1.00  0.00     0.048 C 
HETATM   28  C35 UNL     1       1.654  21.424   3.496  1.00  0.00     0.043 A 
HETATM   29  C34 UNL     1       2.840  22.141   3.243  1.00  0.00     0.072 A 
BRANCH  29  30
HETATM   30  O4  UNL     1       3.666  22.275   4.337  1.00  0.00    -0.360 OA
ATOM     31  H4  UNL     1       3.605  21.783   5.147  1.00  0.00     0.217 HD
ENDBRANCH  29  30
ENDBRANCH  22  23
ENDBRANCH   1  22
BRANCH  21  32
HETATM   32  C30 UNL     1       2.833  26.293   1.324  1.00  0.00     0.091 C 
BRANCH  32  33
HETATM   33  C31 UNL     1       1.464  26.662   0.941  1.00  0.00     0.062 C 
HETATM   34  C32 UNL     1       1.422  26.991  -0.595  1.00  0.00     0.038 C 
HETATM   35  C33 UNL     1       0.372  25.680   1.128  1.00  0.00     0.038 C 
HETATM   36 CL1  UNL     1       0.917  28.252   1.600  1.00  0.00    -0.114 Cl
ENDBRANCH  32  33
ENDBRANCH  21  32
BRANCH   6  37
HETATM   37  C10 UNL     1       8.730  25.575   1.045  1.00  0.00     0.038 C 
BRANCH  37  38
HETATM   38  C11 UNL     1       9.674  24.566   1.523  1.00  0.00    -0.020 C 
HETATM   39  C12 UNL     1       9.178  23.144   1.471  1.00  0.00     0.009 C 
HETATM   40  C13 UNL     1      11.081  24.710   1.062  1.00  0.00     0.009 C 
ENDBRANCH  37  38
ENDBRANCH   6  37
BRANCH  15  41
HETATM   41  C23 UNL     1       4.610  27.893   7.172  1.00  0.00     0.037 C 
BRANCH  41  42
HETATM   42  C24 UNL     1       3.368  27.030   7.107  1.00  0.00    -0.012 A 
HETATM   43  C25 UNL     1       2.043  27.680   7.326  1.00  0.00     0.005 A 
HETATM   44  C26 UNL     1       2.576  26.803   8.373  1.00  0.00     0.005 A 
ENDBRANCH  41  42
ENDBRANCH  15  41
BRANCH  11  45
HETATM   45  C16 UNL     1       8.006  24.684   4.938  1.00  0.00     0.037 C 
BRANCH  45  46
HETATM   46  C17 UNL     1       9.000  23.568   4.874  1.00  0.00     0.022 C 
BRANCH  46  47
HETATM   47  C18 UNL     1      10.406  23.921   5.205  1.00  0.00     0.122 C 
BRANCH  47  48
HETATM   48  N3  UNL     1      10.974  22.900   6.069  1.00  0.00    -0.367 N 
HETATM   49  C19 UNL     1      11.767  21.983   5.633  1.00  0.00     0.196 C 
HETATM   50  N4  UNL     1      12.258  21.039   6.579  1.00  0.00    -0.067 NA
HETATM   51  N5  UNL     1      12.175  21.852   4.299  1.00  0.00    -0.067 NA
ATOM     52  H3  UNL     1      10.734  22.909   7.060  1.00  0.00     0.161 HD
ENDBRANCH  47  48
ENDBRANCH  46  47
ENDBRANCH  45  46
ENDBRANCH  11  45
BRANCH  14  53
HETATM   53  O3  UNL     1       7.120  28.694   7.080  1.00  0.00    -0.348 OA
ATOM     54  H3  UNL     1       7.288  28.527   8.000  1.00  0.00     0.219 HD
ENDBRANCH  14  53
TORSDOF 14
ENDMDL
MODEL 5
REMARK VINA RESULT: -5.668948114      3.138      7.088
REMARK  14 active torsions:
REMARK  status: ('A' for Active; 'I' for Inactive)
REMARK    1  A    between atoms: C5_5  and  C6_6 
REMARK    2  A    between atoms: C6_6  and  C7_7 
REMARK    3  A    between atoms: C9_12  and  C10_13 
REMARK    4  A    between atoms: C10_13  and  C11_14 
REMARK    5  A    between atoms: C15_21  and  C16_22 
REMARK    6  A    between atoms: C16_22  and  C17_23 
REMARK    7  A    between atoms: C17_23  and  C18_24 
REMARK    8  A    between atoms: C18_24  and  N3_25 
REMARK    9  A    between atoms: C21_32  and  O3_33 
REMARK   10  A    between atoms: C22_35  and  C23_36 
REMARK   11  A    between atoms: C23_36  and  C24_37 
REMARK   12  A    between atoms: N8_45  and  C30_46 
REMARK   13  A    between atoms: C30_46  and  C31_47 
REMARK   14  A    between atoms: C34_51  and  O4_52 
ROOT
HETATM    1  C7  UNL     1       5.543  25.157   2.217  1.00  0.00     0.195 C 
HETATM    2  N1  UNL     1       5.083  23.810   2.503  1.00  0.00    -0.337 N 
ATOM      3  H1  UNL     1       5.402  23.075   1.873  1.00  0.00     0.164 HD
HETATM    4  C8  UNL     1       4.241  23.412   3.563  1.00  0.00     0.242 C 
HETATM    5  O1  UNL     1       4.365  22.253   4.041  1.00  0.00    -0.271 OA
HETATM    6  C9  UNL     1       3.199  24.257   4.182  1.00  0.00     0.177 C 
HETATM    7  N2  UNL     1       3.606  24.702   5.500  1.00  0.00    -0.346 N 
ATOM      8  H2  UNL     1       4.469  24.273   5.834  1.00  0.00     0.163 HD
HETATM    9  C14 UNL     1       3.051  25.588   6.378  1.00  0.00     0.241 C 
HETATM   10  O2  UNL     1       2.823  25.149   7.571  1.00  0.00    -0.271 OA
HETATM   11  C15 UNL     1       2.631  27.020   6.257  1.00  0.00     0.177 C 
HETATM   12  N6  UNL     1       3.504  27.840   7.121  1.00  0.00    -0.355 N 
HETATM   13  C20 UNL     1       2.844  28.944   7.828  1.00  0.00     0.152 C 
HETATM   14  C21 UNL     1       4.860  27.680   7.383  1.00  0.00     0.137 C 
HETATM   15  C22 UNL     1       6.066  27.418   6.639  1.00  0.00     0.152 C 
HETATM   16  N7  UNL     1       6.146  27.295   5.278  1.00  0.00    -0.405 N 
ATOM     17  H7  UNL     1       5.561  27.854   4.657  1.00  0.00     0.154 HD
HETATM   18  C27 UNL     1       7.105  26.332   4.761  1.00  0.00     0.167 C 
HETATM   19  C28 UNL     1       7.194  26.434   3.293  1.00  0.00     0.004 C 
HETATM   20  C29 UNL     1       8.410  27.311   2.959  1.00  0.00     0.065 C 
HETATM   21  N8  UNL     1       6.981  25.331   2.470  1.00  0.00    -0.343 N 
ENDROOT
BRANCH   1  22
HETATM   22  C6  UNL     1       5.065  25.502   0.853  1.00  0.00     0.088 C 
BRANCH  22  23
HETATM   23  C5  UNL     1       3.655  25.609   0.594  1.00  0.00    -0.021 A 
HETATM   24  C4  UNL     1       2.901  26.510   1.307  1.00  0.00     0.010 A 
HETATM   25  C3  UNL     1       1.564  26.702   1.070  1.00  0.00     0.007 A 
HETATM   26  C2  UNL     1       0.921  25.988   0.095  1.00  0.00    -0.059 A 
HETATM   27  C1  UNL     1      -0.529  26.203  -0.154  1.00  0.00     0.048 C 
HETATM   28  C35 UNL     1       1.659  25.082  -0.627  1.00  0.00     0.043 A 
HETATM   29  C34 UNL     1       3.032  24.885  -0.382  1.00  0.00     0.072 A 
BRANCH  29  30
HETATM   30  O4  UNL     1       3.621  23.935  -1.187  1.00  0.00    -0.360 OA
ATOM     31  H4  UNL     1       3.969  24.079  -2.059  1.00  0.00     0.217 HD
ENDBRANCH  29  30
ENDBRANCH  22  23
ENDBRANCH   1  22
BRANCH  21  32
HETATM   32  C30 UNL     1       7.570  24.096   2.526  1.00  0.00     0.091 C 
BRANCH  32  33
HETATM   33  C31 UNL     1       9.008  23.795   2.555  1.00  0.00     0.062 C 
HETATM   34  C32 UNL     1       9.220  22.244   2.413  1.00  0.00     0.038 C 
HETATM   35  C33 UNL     1       9.889  24.374   1.516  1.00  0.00     0.038 C 
HETATM   36 CL1  UNL     1       9.783  24.054   4.165  1.00  0.00    -0.114 Cl
ENDBRANCH  32  33
ENDBRANCH  21  32
BRANCH   6  37
HETATM   37  C10 UNL     1       1.892  23.533   4.200  1.00  0.00     0.038 C 
BRANCH  37  38
HETATM   38  C11 UNL     1       0.875  23.894   3.213  1.00  0.00    -0.020 C 
HETATM   39  C12 UNL     1       0.402  22.766   2.333  1.00  0.00     0.009 C 
HETATM   40  C13 UNL     1      -0.233  24.761   3.697  1.00  0.00     0.009 C 
ENDBRANCH  37  38
ENDBRANCH   6  37
BRANCH  15  41
HETATM   41  C23 UNL     1       7.113  28.485   7.048  1.00  0.00     0.037 C 
BRANCH  41  42
HETATM   42  C24 UNL     1       8.388  27.796   7.483  1.00  0.00    -0.012 A 
HETATM   43  C25 UNL     1       8.285  26.654   8.438  1.00  0.00     0.005 A 
HETATM   44  C26 UNL     1       8.829  27.927   8.923  1.00  0.00     0.005 A 
ENDBRANCH  41  42
ENDBRANCH  15  41
BRANCH  11  45
HETATM   45  C16 UNL     1       2.526  27.488   4.862  1.00  0.00     0.037 C 
BRANCH  45  46
HETATM   46  C17 UNL     1       1.240  28.122   4.435  1.00  0.00     0.022 C 
BRANCH  46  47
HETATM   47  C18 UNL     1       0.246  28.383   5.510  1.00  0.00     0.122 C 
BRANCH  47  48
HETATM   48  N3  UNL     1       0.016  27.164   6.266  1.00  0.00    -0.367 N 
HETATM   49  C19 UNL     1      -0.339  27.170   7.504  1.00  0.00     0.196 C 
HETATM   50  N4  UNL     1      -0.534  25.909   8.135  1.00  0.00    -0.067 NA
HETATM   51  N5  UNL     1      -0.542  28.328   8.268  1.00  0.00    -0.067 NA
ATOM     52  H3  UNL     1       0.140  26.267   5.797  1.00  0.00     0.161 HD
ENDBRANCH  47  48
ENDBRANCH  46  47
ENDBRANCH  45  46
ENDBRANCH  11  45
BRANCH  14  53
HETATM   53  O3  UNL     1       5.149  27.799   8.666  1.00  0.00    -0.348 OA
ATOM     54  H3  UNL     1       6.046  28.074   8.816  1.00  0.00     0.219 HD
ENDBRANCH  14  53
TORSDOF 14
ENDMDL
