MODEL 1
REMARK VINA RESULT: -10.003569478      0.000      0.000
REMARK  14 active torsions:
REMARK  status: ('A' for Active; 'I' for Inactive)
REMARK    1  A    between atoms: C2_2  and  C4_4 
REMARK    2  A    between atoms: C4_4  and  N1_5 
REMARK    3  A    between atoms: C10_12  and  C11_13 
REMARK    4  A    between atoms: C11_13  and  C12_14 
REMARK    5  A    between atoms: C12_14  and  C13_15 
REMARK    6  A    between atoms: C13_15  and  C14_16 
REMARK    7  A    between atoms: C14_16  and  N2_17 
REMARK       I    between atoms: N2_17  and  C15_19 
REMARK       I    between atoms: C15_19  and  N5_32 
REMARK       I    between atoms: N3_20  and  C16_22 
REMARK    8  A    between atoms: C16_22  and  C17_24 
REMARK    9  A    between atoms: C17_24  and  N4_25 
REMARK   10  A    between atoms: C17_24  and  C18_29 
REMARK   11  A    between atoms: C18_29  and  O2_30 
REMARK   12  A    between atoms: N5_32  and  C19_34 
REMARK   13  A    between atoms: C19_34  and  C20_35 
REMARK   14  A    between atoms: C27_47  and  C28_48 
ROOT
HETATM    1  C13 UNL     1      11.046  23.302   3.007  1.00  0.00     0.020 C 
ENDROOT
BRANCH   1   2
HETATM    2  C12 UNL     1      11.536  22.846   4.359  1.00  0.00     0.003 C 
BRANCH   2   3
HETATM    3  C11 UNL     1      12.712  23.655   4.797  1.00  0.00     0.018 C 
BRANCH   3   4
HETATM    4  C10 UNL     1      13.720  22.786   5.572  1.00  0.00     0.100 C 
HETATM    5  C9  UNL     1      12.946  21.699   6.166  1.00  0.00    -0.017 C 
HETATM    6  C8  UNL     1      12.835  21.398   7.428  1.00  0.00    -0.028 C 
HETATM    7  C7  UNL     1      13.479  22.106   8.561  1.00  0.00     0.048 C 
HETATM    8  C6  UNL     1      14.831  21.523   8.900  1.00  0.00     0.103 C 
HETATM    9  C5  UNL     1      15.059  20.178   8.302  1.00  0.00     0.146 C 
HETATM   10 CL1  UNL     1      16.150  22.669   8.571  1.00  0.00    -0.123 Cl
HETATM   11  N1  UNL     1      16.473  20.070   7.874  1.00  0.00    -0.349 N 
HETATM   12  C34 UNL     1      16.847  20.108   6.530  1.00  0.00     0.243 C 
HETATM   13  C27 UNL     1      15.939  20.175   5.356  1.00  0.00     0.180 C 
HETATM   14  O5  UNL     1      18.086  20.085   6.236  1.00  0.00    -0.271 OA
HETATM   15  N7  UNL     1      15.904  21.567   4.934  1.00  0.00    -0.347 N 
HETATM   16  C26 UNL     1      14.812  22.391   4.665  1.00  0.00     0.226 C 
ATOM     17  H7  UNL     1      16.817  22.007   4.817  1.00  0.00     0.163 HD
HETATM   18  O4  UNL     1      14.768  22.862   3.464  1.00  0.00    -0.273 OA
BRANCH  11  19
HETATM   19  C4  UNL     1      17.432  19.918   8.929  1.00  0.00     0.129 C 
BRANCH  19  20
HETATM   20  C2  UNL     1      17.077  18.859   9.914  1.00  0.00    -0.005 C 
HETATM   21  C1  UNL     1      17.788  19.135  11.249  1.00  0.00     0.011 C 
HETATM   22  C3  UNL     1      17.455  17.483   9.443  1.00  0.00     0.011 C 
ENDBRANCH  19  20
ENDBRANCH  11  19
BRANCH  13  23
HETATM   23  C28 UNL     1      16.498  19.416   4.147  1.00  0.00     0.018 C 
HETATM   24  C29 UNL     1      16.810  17.986   4.416  1.00  0.00     0.007 C 
HETATM   25  C30 UNL     1      17.465  17.454   3.125  1.00  0.00     0.000 C 
HETATM   26  C31 UNL     1      16.435  17.395   2.042  1.00  0.00     0.000 C 
HETATM   27  C32 UNL     1      15.183  18.107   2.442  1.00  0.00     0.000 C 
HETATM   28  C33 UNL     1      15.470  19.461   3.012  1.00  0.00     0.007 C 
ENDBRANCH  13  23
ENDBRANCH   3   4
ENDBRANCH   2   3
ENDBRANCH   1   2
BRANCH   1  29
HETATM   29  C14 UNL     1       9.956  24.321   3.106  1.00  0.00     0.138 C 
BRANCH  29  30
HETATM   30  N2  UNL     1       9.153  24.232   4.302  1.00  0.00    -0.226 N 
HETATM   31  C15 UNL     1       8.582  25.347   4.974  1.00  0.00     0.677 C 
HETATM   32  N3  UNL     1       7.339  25.596   4.692  1.00  0.00    -0.158 N 
HETATM   33  N5  UNL     1       9.332  26.120   5.868  1.00  0.00    -0.208 N 
HETATM   34  C16 UNL     1       6.579  24.836   3.786  1.00  0.00     0.268 C 
ATOM     35  H3  UNL     1       6.889  26.387   5.153  1.00  0.00     0.187 HD
HETATM   36  O1  UNL     1       6.855  23.618   3.619  1.00  0.00    -0.270 OA
ATOM     37  H5  UNL     1       9.901  26.862   5.461  1.00  0.00     0.179 HD
ATOM     38  H2  UNL     1       8.982  23.305   4.692  1.00  0.00     0.177 HD
BRANCH  34  39
HETATM   39  C17 UNL     1       5.462  25.456   3.032  1.00  0.00     0.298 C 
BRANCH  39  40
HETATM   40  N4  UNL     1       6.006  26.263   1.982  1.00  0.00    -0.064 N 
ATOM     41  H43 UNL     1       6.762  26.866   2.307  1.00  0.00     0.275 HD
ATOM     42  H42 UNL     1       6.541  25.716   1.308  1.00  0.00     0.275 HD
ATOM     43  H41 UNL     1       5.249  26.787   1.545  1.00  0.00     0.275 HD
ENDBRANCH  39  40
BRANCH  39  44
HETATM   44  C18 UNL     1       4.676  26.304   4.005  1.00  0.00     0.206 C 
BRANCH  44  45
HETATM   45  O2  UNL     1       5.282  27.539   4.222  1.00  0.00    -0.398 OA
ATOM     46  H2  UNL     1       5.950  27.491   4.896  1.00  0.00     0.209 HD
ENDBRANCH  44  45
ENDBRANCH  39  44
ENDBRANCH  34  39
BRANCH  33  47
HETATM   47  C19 UNL     1       9.387  25.980   7.308  1.00  0.00     0.125 C 
HETATM   48  C21 UNL     1      10.027  27.211   7.851  1.00  0.00     0.041 C 
HETATM   49  C22 UNL     1      10.415  27.155   9.289  1.00  0.00     0.003 C 
HETATM   50  C23 UNL     1      11.117  25.894   9.680  1.00  0.00     0.000 C 
HETATM   51  C24 UNL     1      11.393  25.000   8.489  1.00  0.00     0.003 C 
HETATM   52  C25 UNL     1      10.154  24.746   7.674  1.00  0.00     0.041 C 
BRANCH  47  53
HETATM   53  C20 UNL     1       7.965  25.842   7.789  1.00  0.00     0.260 C 
HETATM   54  N6  UNL     1       7.704  24.804   8.722  1.00  0.00    -0.060 NA
HETATM   55  O3  UNL     1       7.073  26.608   7.377  1.00  0.00    -0.274 OA
ENDBRANCH  47  53
ENDBRANCH  33  47
ENDBRANCH  29  30
ENDBRANCH   1  29
TORSDOF 14
ENDMDL
MODEL 2
REMARK VINA RESULT: -9.955885236      2.498     10.337
REMARK  14 active torsions:
REMARK  status: ('A' for Active; 'I' for Inactive)
REMARK    1  A    between atoms: C2_2  and  C4_4 
REMARK    2  A    between atoms: C4_4  and  N1_5 
REMARK    3  A    between atoms: C10_12  and  C11_13 
REMARK    4  A    between atoms: C11_13  and  C12_14 
REMARK    5  A    between atoms: C12_14  and  C13_15 
REMARK    6  A    between atoms: C13_15  and  C14_16 
REMARK    7  A    between atoms: C14_16  and  N2_17 
REMARK       I    between atoms: N2_17  and  C15_19 
REMARK       I    between atoms: C15_19  and  N5_32 
REMARK       I    between atoms: N3_20  and  C16_22 
REMARK    8  A    between atoms: C16_22  and  C17_24 
REMARK    9  A    between atoms: C17_24  and  N4_25 
REMARK   10  A    between atoms: C17_24  and  C18_29 
REMARK   11  A    between atoms: C18_29  and  O2_30 
REMARK   12  A    between atoms: N5_32  and  C19_34 
REMARK   13  A    between atoms: C19_34  and  C20_35 
REMARK   14  A    between atoms: C27_47  and  C28_48 
ROOT
HETATM    1  C13 UNL     1      13.935  20.658   3.897  1.00  0.00     0.020 C 
ENDROOT
BRANCH   1   2
HETATM    2  C12 UNL     1      12.663  21.380   4.267  1.00  0.00     0.003 C 
BRANCH   2   3
HETATM    3  C11 UNL     1      12.840  22.858   4.149  1.00  0.00     0.018 C 
BRANCH   3   4
HETATM    4  C10 UNL     1      11.477  23.569   4.047  1.00  0.00     0.100 C 
HETATM    5  C9  UNL     1      10.466  22.516   4.088  1.00  0.00    -0.017 C 
HETATM    6  C8  UNL     1       9.563  22.243   3.190  1.00  0.00    -0.028 C 
HETATM    7  C7  UNL     1       9.361  22.954   1.904  1.00  0.00     0.048 C 
HETATM    8  C6  UNL     1       8.382  24.098   2.035  1.00  0.00     0.103 C 
HETATM    9  C5  UNL     1       7.573  24.041   3.284  1.00  0.00     0.146 C 
HETATM   10 CL1  UNL     1       9.166  25.674   1.780  1.00  0.00    -0.123 Cl
HETATM   11  N1  UNL     1       7.380  25.415   3.802  1.00  0.00    -0.349 N 
HETATM   12  C34 UNL     1       8.053  25.885   4.931  1.00  0.00     0.243 C 
HETATM   13  C27 UNL     1       8.965  25.108   5.810  1.00  0.00     0.180 C 
HETATM   14  O5  UNL     1       7.898  27.100   5.277  1.00  0.00    -0.271 OA
HETATM   15  N7  UNL     1      10.321  25.437   5.401  1.00  0.00    -0.347 N 
HETATM   16  C26 UNL     1      11.392  24.598   5.098  1.00  0.00     0.226 C 
ATOM     17  H7  UNL     1      10.519  26.435   5.324  1.00  0.00     0.163 HD
HETATM   18  O4  UNL     1      12.435  24.756   5.842  1.00  0.00    -0.273 OA
BRANCH  11  19
HETATM   19  C4  UNL     1       6.453  26.230   3.072  1.00  0.00     0.129 C 
BRANCH  19  20
HETATM   20  C2  UNL     1       5.059  25.706   3.080  1.00  0.00    -0.005 C 
HETATM   21  C1  UNL     1       4.493  25.717   1.651  1.00  0.00     0.011 C 
HETATM   22  C3  UNL     1       4.147  26.509   3.965  1.00  0.00     0.011 C 
ENDBRANCH  19  20
ENDBRANCH  11  19
BRANCH  13  23
HETATM   23  C28 UNL     1       8.879  25.556   7.274  1.00  0.00     0.018 C 
HETATM   24  C29 UNL     1       9.015  24.449   8.259  1.00  0.00     0.007 C 
HETATM   25  C30 UNL     1       8.778  25.093   9.640  1.00  0.00     0.000 C 
HETATM   26  C31 UNL     1       9.924  25.998   9.963  1.00  0.00     0.000 C 
HETATM   27  C32 UNL     1      10.797  26.217   8.769  1.00  0.00     0.000 C 
HETATM   28  C33 UNL     1       9.998  26.565   7.552  1.00  0.00     0.007 C 
ENDBRANCH  13  23
ENDBRANCH   3   4
ENDBRANCH   2   3
ENDBRANCH   1   2
BRANCH   1  29
HETATM   29  C14 UNL     1      15.149  21.515   4.058  1.00  0.00     0.138 C 
BRANCH  29  30
HETATM   30  N2  UNL     1      16.047  21.098   5.110  1.00  0.00    -0.226 N 
HETATM   31  C15 UNL     1      15.809  20.002   5.983  1.00  0.00     0.677 C 
HETATM   32  N3  UNL     1      16.389  18.887   5.655  1.00  0.00    -0.158 N 
HETATM   33  N5  UNL     1      14.991  20.133   7.112  1.00  0.00    -0.208 N 
HETATM   34  C16 UNL     1      17.202  18.738   4.518  1.00  0.00     0.268 C 
ATOM     35  H3  UNL     1      16.247  18.074   6.256  1.00  0.00     0.187 HD
HETATM   36  O1  UNL     1      17.834  19.735   4.077  1.00  0.00    -0.270 OA
ATOM     37  H5  UNL     1      13.988  20.022   6.962  1.00  0.00     0.179 HD
ATOM     38  H2  UNL     1      16.910  21.626   5.235  1.00  0.00     0.177 HD
BRANCH  34  39
HETATM   39  C17 UNL     1      17.318  17.423   3.841  1.00  0.00     0.298 C 
BRANCH  39  40
HETATM   40  N4  UNL     1      18.701  17.064   3.767  1.00  0.00    -0.064 N 
ATOM     41  H43 UNL     1      18.852  16.203   3.240  1.00  0.00     0.275 HD
ATOM     42  H42 UNL     1      19.236  17.692   3.166  1.00  0.00     0.275 HD
ATOM     43  H41 UNL     1      19.079  17.015   4.712  1.00  0.00     0.275 HD
ENDBRANCH  39  40
BRANCH  39  44
HETATM   44  C18 UNL     1      16.729  17.573   2.459  1.00  0.00     0.206 C 
BRANCH  44  45
HETATM   45  O2  UNL     1      17.425  18.511   1.699  1.00  0.00    -0.398 OA
ATOM     46  H2  UNL     1      16.853  18.967   1.091  1.00  0.00     0.209 HD
ENDBRANCH  44  45
ENDBRANCH  39  44
ENDBRANCH  34  39
BRANCH  33  47
HETATM   47  C19 UNL     1      15.414  20.411   8.468  1.00  0.00     0.125 C 
HETATM   48  C21 UNL     1      16.752  21.061   8.392  1.00  0.00     0.041 C 
HETATM   49  C22 UNL     1      17.481  21.191   9.686  1.00  0.00     0.003 C 
HETATM   50  C23 UNL     1      17.466  19.949  10.519  1.00  0.00     0.000 C 
HETATM   51  C24 UNL     1      16.817  18.786   9.799  1.00  0.00     0.003 C 
HETATM   52  C25 UNL     1      15.457  19.141   9.263  1.00  0.00     0.041 C 
BRANCH  47  53
HETATM   53  C20 UNL     1      14.387  21.337   9.067  1.00  0.00     0.260 C 
HETATM   54  N6  UNL     1      13.670  22.166   8.163  1.00  0.00    -0.060 NA
HETATM   55  O3  UNL     1      14.188  21.363  10.296  1.00  0.00    -0.274 OA
ENDBRANCH  47  53
ENDBRANCH  33  47
ENDBRANCH  29  30
ENDBRANCH   1  29
TORSDOF 14
ENDMDL
MODEL 3
REMARK VINA RESULT: -9.954525736      1.489      1.896
REMARK  14 active torsions:
REMARK  status: ('A' for Active; 'I' for Inactive)
REMARK    1  A    between atoms: C2_2  and  C4_4 
REMARK    2  A    between atoms: C4_4  and  N1_5 
REMARK    3  A    between atoms: C10_12  and  C11_13 
REMARK    4  A    between atoms: C11_13  and  C12_14 
REMARK    5  A    between atoms: C12_14  and  C13_15 
REMARK    6  A    between atoms: C13_15  and  C14_16 
REMARK    7  A    between atoms: C14_16  and  N2_17 
REMARK       I    between atoms: N2_17  and  C15_19 
REMARK       I    between atoms: C15_19  and  N5_32 
REMARK       I    between atoms: N3_20  and  C16_22 
REMARK    8  A    between atoms: C16_22  and  C17_24 
REMARK    9  A    between atoms: C17_24  and  N4_25 
REMARK   10  A    between atoms: C17_24  and  C18_29 
REMARK   11  A    between atoms: C18_29  and  O2_30 
REMARK   12  A    between atoms: N5_32  and  C19_34 
REMARK   13  A    between atoms: C19_34  and  C20_35 
REMARK   14  A    between atoms: C27_47  and  C28_48 
ROOT
HETATM    1  C13 UNL     1      10.513  23.270   3.198  1.00  0.00     0.020 C 
ENDROOT
BRANCH   1   2
HETATM    2  C12 UNL     1      11.587  22.478   3.904  1.00  0.00     0.003 C 
BRANCH   2   3
HETATM    3  C11 UNL     1      12.686  23.374   4.368  1.00  0.00     0.018 C 
BRANCH   3   4
HETATM    4  C10 UNL     1      13.690  22.604   5.248  1.00  0.00     0.100 C 
HETATM    5  C9  UNL     1      12.934  21.521   5.871  1.00  0.00    -0.017 C 
HETATM    6  C8  UNL     1      12.770  21.294   7.143  1.00  0.00    -0.028 C 
HETATM    7  C7  UNL     1      13.322  22.102   8.258  1.00  0.00     0.048 C 
HETATM    8  C6  UNL     1      14.679  21.605   8.701  1.00  0.00     0.103 C 
HETATM    9  C5  UNL     1      14.998  20.238   8.203  1.00  0.00     0.146 C 
HETATM   10 CL1  UNL     1      15.962  22.790   8.364  1.00  0.00    -0.123 Cl
HETATM   11  N1  UNL     1      16.435  20.171   7.854  1.00  0.00    -0.349 N 
HETATM   12  C34 UNL     1      16.878  20.142   6.530  1.00  0.00     0.243 C 
HETATM   13  C27 UNL     1      16.031  20.094   5.311  1.00  0.00     0.180 C 
HETATM   14  O5  UNL     1      18.130  20.161   6.300  1.00  0.00    -0.271 OA
HETATM   15  N7  UNL     1      15.955  21.453   4.799  1.00  0.00    -0.347 N 
HETATM   16  C26 UNL     1      14.844  22.205   4.423  1.00  0.00     0.226 C 
ATOM     17  H7  UNL     1      16.853  21.928   4.699  1.00  0.00     0.163 HD
HETATM   18  O4  UNL     1      14.843  22.598   3.194  1.00  0.00    -0.273 OA
BRANCH  11  19
HETATM   19  C4  UNL     1      17.344  20.130   8.963  1.00  0.00     0.129 C 
BRANCH  19  20
HETATM   20  C2  UNL     1      17.058  19.036   9.932  1.00  0.00    -0.005 C 
HETATM   21  C1  UNL     1      17.804  19.304  11.250  1.00  0.00     0.011 C 
HETATM   22  C3  UNL     1      17.468  17.686   9.413  1.00  0.00     0.011 C 
ENDBRANCH  19  20
ENDBRANCH  11  19
BRANCH  13  23
HETATM   23  C28 UNL     1      16.686  19.287   4.183  1.00  0.00     0.018 C 
HETATM   24  C29 UNL     1      16.941  17.862   4.521  1.00  0.00     0.007 C 
HETATM   25  C30 UNL     1      17.703  17.279   3.314  1.00  0.00     0.000 C 
HETATM   26  C31 UNL     1      16.779  17.205   2.140  1.00  0.00     0.000 C 
HETATM   27  C32 UNL     1      15.510  17.951   2.399  1.00  0.00     0.000 C 
HETATM   28  C33 UNL     1      15.770  19.316   2.954  1.00  0.00     0.007 C 
ENDBRANCH  13  23
ENDBRANCH   3   4
ENDBRANCH   2   3
ENDBRANCH   1   2
BRANCH   1  29
HETATM   29  C14 UNL     1       9.138  22.910   3.661  1.00  0.00     0.138 C 
BRANCH  29  30
HETATM   30  N2  UNL     1       8.538  23.860   4.567  1.00  0.00    -0.226 N 
HETATM   31  C15 UNL     1       9.057  25.156   4.836  1.00  0.00     0.677 C 
HETATM   32  N3  UNL     1       8.516  26.127   4.165  1.00  0.00    -0.158 N 
HETATM   33  N5  UNL     1      10.093  25.349   5.758  1.00  0.00    -0.208 N 
HETATM   34  C16 UNL     1       7.485  25.946   3.227  1.00  0.00     0.268 C 
ATOM     35  H3  UNL     1       8.858  27.075   4.328  1.00  0.00     0.187 HD
HETATM   36  O1  UNL     1       6.688  24.980   3.366  1.00  0.00    -0.270 OA
ATOM     37  H5  UNL     1      11.043  25.217   5.409  1.00  0.00     0.179 HD
ATOM     38  H2  UNL     1       7.682  23.583   5.049  1.00  0.00     0.177 HD
BRANCH  34  39
HETATM   39  C17 UNL     1       7.333  26.878   2.083  1.00  0.00     0.298 C 
BRANCH  39  40
HETATM   40  N4  UNL     1       6.643  26.204   1.027  1.00  0.00    -0.064 N 
ATOM     41  H43 UNL     1       7.221  26.092   0.193  1.00  0.00     0.275 HD
ATOM     42  H42 UNL     1       6.493  25.215   1.228  1.00  0.00     0.275 HD
ATOM     43  H41 UNL     1       5.773  26.698   0.835  1.00  0.00     0.275 HD
ENDBRANCH  39  40
BRANCH  39  44
HETATM   44  C18 UNL     1       8.720  27.284   1.643  1.00  0.00     0.206 C 
BRANCH  44  45
HETATM   45  O2  UNL     1       9.134  28.464   2.258  1.00  0.00    -0.398 OA
ATOM     46  H2  UNL     1       9.322  29.145   1.623  1.00  0.00     0.209 HD
ENDBRANCH  44  45
ENDBRANCH  39  44
ENDBRANCH  34  39
BRANCH  33  47
HETATM   47  C19 UNL     1       9.962  25.714   7.152  1.00  0.00     0.125 C 
HETATM   48  C21 UNL     1       9.089  24.695   7.799  1.00  0.00     0.041 C 
HETATM   49  C22 UNL     1       8.615  25.030   9.172  1.00  0.00     0.003 C 
HETATM   50  C23 UNL     1       8.109  26.429   9.315  1.00  0.00     0.000 C 
HETATM   51  C24 UNL     1       8.071  27.162   7.991  1.00  0.00     0.003 C 
HETATM   52  C25 UNL     1       9.389  27.094   7.269  1.00  0.00     0.041 C 
BRANCH  47  53
HETATM   53  C20 UNL     1      11.350  25.702   7.740  1.00  0.00     0.260 C 
HETATM   54  N6  UNL     1      11.505  26.292   9.023  1.00  0.00    -0.060 NA
HETATM   55  O3  UNL     1      12.303  25.196   7.119  1.00  0.00    -0.274 OA
ENDBRANCH  47  53
ENDBRANCH  33  47
ENDBRANCH  29  30
ENDBRANCH   1  29
TORSDOF 14
ENDMDL
MODEL 4
REMARK VINA RESULT: -9.947504219      2.535     10.294
REMARK  14 active torsions:
REMARK  status: ('A' for Active; 'I' for Inactive)
REMARK    1  A    between atoms: C2_2  and  C4_4 
REMARK    2  A    between atoms: C4_4  and  N1_5 
REMARK    3  A    between atoms: C10_12  and  C11_13 
REMARK    4  A    between atoms: C11_13  and  C12_14 
REMARK    5  A    between atoms: C12_14  and  C13_15 
REMARK    6  A    between atoms: C13_15  and  C14_16 
REMARK    7  A    between atoms: C14_16  and  N2_17 
REMARK       I    between atoms: N2_17  and  C15_19 
REMARK       I    between atoms: C15_19  and  N5_32 
REMARK       I    between atoms: N3_20  and  C16_22 
REMARK    8  A    between atoms: C16_22  and  C17_24 
REMARK    9  A    between atoms: C17_24  and  N4_25 
REMARK   10  A    between atoms: C17_24  and  C18_29 
REMARK   11  A    between atoms: C18_29  and  O2_30 
REMARK   12  A    between atoms: N5_32  and  C19_34 
REMARK   13  A    between atoms: C19_34  and  C20_35 
REMARK   14  A    between atoms: C27_47  and  C28_48 
ROOT
HETATM    1  C13 UNL     1      13.848  21.066   2.708  1.00  0.00     0.020 C 
ENDROOT
BRANCH   1   2
HETATM    2  C12 UNL     1      12.864  21.378   3.808  1.00  0.00     0.003 C 
BRANCH   2   3
HETATM    3  C11 UNL     1      12.966  22.809   4.220  1.00  0.00     0.018 C 
BRANCH   3   4
HETATM    4  C10 UNL     1      11.605  23.519   4.083  1.00  0.00     0.100 C 
HETATM    5  C9  UNL     1      10.593  22.467   4.115  1.00  0.00    -0.017 C 
HETATM    6  C8  UNL     1       9.709  22.185   3.201  1.00  0.00    -0.028 C 
HETATM    7  C7  UNL     1       9.533  22.881   1.904  1.00  0.00     0.048 C 
HETATM    8  C6  UNL     1       8.553  24.027   2.002  1.00  0.00     0.103 C 
HETATM    9  C5  UNL     1       7.718  23.984   3.235  1.00  0.00     0.146 C 
HETATM   10 CL1  UNL     1       9.343  25.600   1.746  1.00  0.00    -0.123 Cl
HETATM   11  N1  UNL     1       7.516  25.364   3.733  1.00  0.00    -0.349 N 
HETATM   12  C34 UNL     1       8.166  25.846   4.870  1.00  0.00     0.243 C 
HETATM   13  C27 UNL     1       9.059  25.079   5.776  1.00  0.00     0.180 C 
HETATM   14  O5  UNL     1       8.004  27.065   5.200  1.00  0.00    -0.271 OA
HETATM   15  N7  UNL     1      10.423  25.403   5.392  1.00  0.00    -0.347 N 
HETATM   16  C26 UNL     1      11.499  24.560   5.120  1.00  0.00     0.226 C 
ATOM     17  H7  UNL     1      10.624  26.400   5.308  1.00  0.00     0.163 HD
HETATM   18  O4  UNL     1      12.527  24.727   5.883  1.00  0.00    -0.273 OA
BRANCH  11  19
HETATM   19  C4  UNL     1       6.604  26.171   2.976  1.00  0.00     0.129 C 
BRANCH  19  20
HETATM   20  C2  UNL     1       5.330  25.479   2.636  1.00  0.00    -0.005 C 
HETATM   21  C1  UNL     1       5.131  25.477   1.112  1.00  0.00     0.011 C 
HETATM   22  C3  UNL     1       4.134  26.128   3.276  1.00  0.00     0.011 C 
ENDBRANCH  19  20
ENDBRANCH  11  19
BRANCH  13  23
HETATM   23  C28 UNL     1       8.943  25.543   7.233  1.00  0.00     0.018 C 
HETATM   24  C29 UNL     1       8.962  24.438   8.228  1.00  0.00     0.007 C 
HETATM   25  C30 UNL     1       8.712  25.107   9.596  1.00  0.00     0.000 C 
HETATM   26  C31 UNL     1       9.904  25.934   9.961  1.00  0.00     0.000 C 
HETATM   27  C32 UNL     1      10.838  26.084   8.804  1.00  0.00     0.000 C 
HETATM   28  C33 UNL     1      10.116  26.476   7.553  1.00  0.00     0.007 C 
ENDBRANCH  13  23
ENDBRANCH   3   4
ENDBRANCH   2   3
ENDBRANCH   1   2
BRANCH   1  29
HETATM   29  C14 UNL     1      14.803  19.980   3.083  1.00  0.00     0.138 C 
BRANCH  29  30
HETATM   30  N2  UNL     1      15.711  20.317   4.154  1.00  0.00    -0.226 N 
HETATM   31  C15 UNL     1      15.688  19.725   5.446  1.00  0.00     0.677 C 
HETATM   32  N3  UNL     1      16.531  18.755   5.634  1.00  0.00    -0.158 N 
HETATM   33  N5  UNL     1      14.797  20.165   6.433  1.00  0.00    -0.208 N 
HETATM   34  C16 UNL     1      17.420  18.295   4.648  1.00  0.00     0.268 C 
ATOM     35  H3  UNL     1      16.549  18.302   6.548  1.00  0.00     0.187 HD
HETATM   36  O1  UNL     1      17.825  19.094   3.761  1.00  0.00    -0.270 OA
ATOM     37  H5  UNL     1      13.859  19.765   6.410  1.00  0.00     0.179 HD
ATOM     38  H2  UNL     1      16.417  21.030   3.971  1.00  0.00     0.177 HD
BRANCH  34  39
HETATM   39  C17 UNL     1      17.881  16.885   4.646  1.00  0.00     0.298 C 
BRANCH  39  40
HETATM   40  N4  UNL     1      18.726  16.675   5.782  1.00  0.00    -0.064 N 
ATOM     41  H43 UNL     1      19.183  17.533   6.091  1.00  0.00     0.275 HD
ATOM     42  H42 UNL     1      18.196  16.482   6.632  1.00  0.00     0.275 HD
ATOM     43  H41 UNL     1      19.393  15.935   5.563  1.00  0.00     0.275 HD
ENDBRANCH  39  40
BRANCH  39  44
HETATM   44  C18 UNL     1      18.644  16.660   3.362  1.00  0.00     0.206 C 
BRANCH  44  45
HETATM   45  O2  UNL     1      17.845  16.873   2.241  1.00  0.00    -0.398 OA
ATOM     46  H2  UNL     1      17.748  16.083   1.722  1.00  0.00     0.209 HD
ENDBRANCH  44  45
ENDBRANCH  39  44
ENDBRANCH  34  39
BRANCH  33  47
HETATM   47  C19 UNL     1      15.064  21.125   7.482  1.00  0.00     0.125 C 
HETATM   48  C21 UNL     1      15.586  22.360   6.832  1.00  0.00     0.041 C 
HETATM   49  C22 UNL     1      16.167  23.378   7.753  1.00  0.00     0.003 C 
HETATM   50  C23 UNL     1      17.091  22.808   8.781  1.00  0.00     0.000 C 
HETATM   51  C24 UNL     1      17.332  21.327   8.576  1.00  0.00     0.003 C 
HETATM   52  C25 UNL     1      16.045  20.556   8.462  1.00  0.00     0.041 C 
BRANCH  47  53
HETATM   53  C20 UNL     1      13.755  21.384   8.182  1.00  0.00     0.260 C 
HETATM   54  N6  UNL     1      13.772  21.343   9.602  1.00  0.00    -0.060 NA
HETATM   55  O3  UNL     1      12.718  21.620   7.534  1.00  0.00    -0.274 OA
ENDBRANCH  47  53
ENDBRANCH  33  47
ENDBRANCH  29  30
ENDBRANCH   1  29
TORSDOF 14
ENDMDL
MODEL 5
REMARK VINA RESULT: -9.864063192      1.080      1.192
REMARK  14 active torsions:
REMARK  status: ('A' for Active; 'I' for Inactive)
REMARK    1  A    between atoms: C2_2  and  C4_4 
REMARK    2  A    between atoms: C4_4  and  N1_5 
REMARK    3  A    between atoms: C10_12  and  C11_13 
REMARK    4  A    between atoms: C11_13  and  C12_14 
REMARK    5  A    between atoms: C12_14  and  C13_15 
REMARK    6  A    between atoms: C13_15  and  C14_16 
REMARK    7  A    between atoms: C14_16  and  N2_17 
REMARK       I    between atoms: N2_17  and  C15_19 
REMARK       I    between atoms: C15_19  and  N5_32 
REMARK       I    between atoms: N3_20  and  C16_22 
REMARK    8  A    between atoms: C16_22  and  C17_24 
REMARK    9  A    between atoms: C17_24  and  N4_25 
REMARK   10  A    between atoms: C17_24  and  C18_29 
REMARK   11  A    between atoms: C18_29  and  O2_30 
REMARK   12  A    between atoms: N5_32  and  C19_34 
REMARK   13  A    between atoms: C19_34  and  C20_35 
REMARK   14  A    between atoms: C27_47  and  C28_48 
ROOT
HETATM    1  C13 UNL     1      10.288  22.773   3.626  1.00  0.00     0.020 C 
ENDROOT
BRANCH   1   2
HETATM    2  C12 UNL     1      11.724  22.309   3.658  1.00  0.00     0.003 C 
BRANCH   2   3
HETATM    3  C11 UNL     1      12.577  23.277   4.409  1.00  0.00     0.018 C 
BRANCH   3   4
HETATM    4  C10 UNL     1      13.608  22.538   5.283  1.00  0.00     0.100 C 
HETATM    5  C9  UNL     1      12.888  21.436   5.916  1.00  0.00    -0.017 C 
HETATM    6  C8  UNL     1      12.740  21.208   7.190  1.00  0.00    -0.028 C 
HETATM    7  C7  UNL     1      13.277  22.035   8.298  1.00  0.00     0.048 C 
HETATM    8  C6  UNL     1      14.651  21.578   8.732  1.00  0.00     0.103 C 
HETATM    9  C5  UNL     1      15.004  20.219   8.236  1.00  0.00     0.146 C 
HETATM   10 CL1  UNL     1      15.897  22.798   8.382  1.00  0.00    -0.123 Cl
HETATM   11  N1  UNL     1      16.441  20.192   7.876  1.00  0.00    -0.349 N 
HETATM   12  C34 UNL     1      16.873  20.171   6.549  1.00  0.00     0.243 C 
HETATM   13  C27 UNL     1      16.019  20.094   5.336  1.00  0.00     0.180 C 
HETATM   14  O5  UNL     1      18.123  20.224   6.310  1.00  0.00    -0.271 OA
HETATM   15  N7  UNL     1      15.902  21.449   4.821  1.00  0.00    -0.347 N 
HETATM   16  C26 UNL     1      14.767  22.169   4.451  1.00  0.00     0.226 C 
ATOM     17  H7  UNL     1      16.785  21.949   4.713  1.00  0.00     0.163 HD
HETATM   18  O4  UNL     1      14.746  22.558   3.221  1.00  0.00    -0.273 OA
BRANCH  11  19
HETATM   19  C4  UNL     1      17.358  20.180   8.978  1.00  0.00     0.129 C 
BRANCH  19  20
HETATM   20  C2  UNL     1      17.102  19.090   9.960  1.00  0.00    -0.005 C 
HETATM   21  C1  UNL     1      17.847  19.389  11.272  1.00  0.00     0.011 C 
HETATM   22  C3  UNL     1      17.541  17.744   9.453  1.00  0.00     0.011 C 
ENDBRANCH  19  20
ENDBRANCH  11  19
BRANCH  13  23
HETATM   23  C28 UNL     1      16.688  19.303   4.206  1.00  0.00     0.018 C 
HETATM   24  C29 UNL     1      16.961  17.879   4.537  1.00  0.00     0.007 C 
HETATM   25  C30 UNL     1      17.735  17.313   3.329  1.00  0.00     0.000 C 
HETATM   26  C31 UNL     1      16.816  17.234   2.152  1.00  0.00     0.000 C 
HETATM   27  C32 UNL     1      15.536  17.961   2.411  1.00  0.00     0.000 C 
HETATM   28  C33 UNL     1      15.776  19.327   2.975  1.00  0.00     0.007 C 
ENDBRANCH  13  23
ENDBRANCH   3   4
ENDBRANCH   2   3
ENDBRANCH   1   2
BRANCH   1  29
HETATM   29  C14 UNL     1      10.139  24.205   4.027  1.00  0.00     0.138 C 
BRANCH  29  30
HETATM   30  N2  UNL     1       8.966  24.492   4.819  1.00  0.00    -0.226 N 
HETATM   31  C15 UNL     1       8.485  25.799   5.103  1.00  0.00     0.677 C 
HETATM   32  N3  UNL     1       7.526  26.222   4.336  1.00  0.00    -0.158 N 
HETATM   33  N5  UNL     1       9.032  26.568   6.137  1.00  0.00    -0.208 N 
HETATM   34  C16 UNL     1       6.978  25.466   3.286  1.00  0.00     0.268 C 
ATOM     35  H3  UNL     1       7.150  27.156   4.506  1.00  0.00     0.187 HD
HETATM   36  O1  UNL     1       6.988  24.209   3.361  1.00  0.00    -0.270 OA
ATOM     37  H5  UNL     1       9.872  27.101   5.913  1.00  0.00     0.179 HD
ATOM     38  H2  UNL     1       8.447  23.702   5.201  1.00  0.00     0.177 HD
BRANCH  34  39
HETATM   39  C17 UNL     1       6.392  26.137   2.100  1.00  0.00     0.298 C 
BRANCH  39  40
HETATM   40  N4  UNL     1       5.740  25.154   1.290  1.00  0.00    -0.064 N 
ATOM     41  H43 UNL     1       5.704  25.422   0.306  1.00  0.00     0.275 HD
ATOM     42  H42 UNL     1       6.294  24.305   1.185  1.00  0.00     0.275 HD
ATOM     43  H41 UNL     1       4.815  24.970   1.678  1.00  0.00     0.275 HD
ENDBRANCH  39  40
BRANCH  39  44
HETATM   44  C18 UNL     1       7.525  26.788   1.343  1.00  0.00     0.206 C 
BRANCH  44  45
HETATM   45  O2  UNL     1       7.987  27.934   1.988  1.00  0.00    -0.398 OA
ATOM     46  H2  UNL     1       8.933  28.012   1.933  1.00  0.00     0.209 HD
ENDBRANCH  44  45
ENDBRANCH  39  44
ENDBRANCH  34  39
BRANCH  33  47
HETATM   47  C19 UNL     1       8.534  26.687   7.491  1.00  0.00     0.125 C 
HETATM   48  C21 UNL     1       9.360  27.718   8.180  1.00  0.00     0.041 C 
HETATM   49  C22 UNL     1       9.182  27.806   9.657  1.00  0.00     0.003 C 
HETATM   50  C23 UNL     1       9.182  26.480  10.349  1.00  0.00     0.000 C 
HETATM   51  C24 UNL     1       9.492  25.341   9.401  1.00  0.00     0.003 C 
HETATM   52  C25 UNL     1       8.608  25.360   8.184  1.00  0.00     0.041 C 
BRANCH  47  53
HETATM   53  C20 UNL     1       7.093  27.115   7.391  1.00  0.00     0.260 C 
HETATM   54  N6  UNL     1       6.124  26.230   7.934  1.00  0.00    -0.060 NA
HETATM   55  O3  UNL     1       6.782  28.195   6.854  1.00  0.00    -0.274 OA
ENDBRANCH  47  53
ENDBRANCH  33  47
ENDBRANCH  29  30
ENDBRANCH   1  29
TORSDOF 14
ENDMDL
