MODEL 1
REMARK VINA RESULT: -6.191079481      0.000      0.000
REMARK  3 active torsions:
REMARK  status: ('A' for Active; 'I' for Inactive)
REMARK    1  A    between atoms: N1_2  and  C2_4 
REMARK    2  A    between atoms: C3_6  and  C4_7 
REMARK    3  A    between atoms: C6_14  and  N5_15 
ROOT
HETATM    1  C2  UNL     1      -1.128   4.438  18.192  1.00  0.00     0.114 A 
HETATM    2  S1  UNL     1      -2.703   4.631  17.498  1.00  0.00    -0.060 SA
HETATM    3  C3  UNL     1      -2.961   6.164  16.839  1.00  0.00     0.113 A 
HETATM    4  C5  UNL     1      -1.893   7.023  16.950  1.00  0.00     0.140 A 
HETATM    5  N3  UNL     1      -2.121   8.342  16.381  1.00  0.00    -0.081 NA
HETATM    6  N4  UNL     1      -0.743   6.733  17.511  1.00  0.00    -0.328 N 
ATOM      7  H4  UNL     1      -0.054   7.486  17.509  1.00  0.00     0.168 HD
HETATM    8  C6  UNL     1      -0.335   5.575  18.093  1.00  0.00     0.134 A 
ENDROOT
BRANCH   1   9
HETATM    9  N1  UNL     1      -0.782   3.335  18.729  1.00  0.00    -0.386 N 
HETATM   10  C1  UNL     1      -1.218   2.055  18.360  1.00  0.00     0.147 C 
ATOM     11  H1  UNL     1      -0.122   3.389  19.505  1.00  0.00     0.159 HD
ENDBRANCH   1   9
BRANCH   8  12
HETATM   12  N5  UNL     1       0.825   5.561  18.556  1.00  0.00    -0.383 N 
ATOM     13  H52 UNL     1       0.913   5.391  19.558  1.00  0.00     0.157 HD
ATOM     14  H51 UNL     1       1.619   5.718  17.935  1.00  0.00     0.157 HD
ENDBRANCH   8  12
BRANCH   3  15
HETATM   15  C4  UNL     1      -4.221   6.590  16.185  1.00  0.00     0.275 C 
HETATM   16  N2  UNL     1      -4.434   6.332  14.807  1.00  0.00    -0.057 NA
HETATM   17  O1  UNL     1      -5.087   7.174  16.861  1.00  0.00    -0.270 OA
ENDBRANCH   3  15
TORSDOF 3
ENDMDL
MODEL 2
REMARK VINA RESULT: -6.020110300      7.512      8.627
REMARK  3 active torsions:
REMARK  status: ('A' for Active; 'I' for Inactive)
REMARK    1  A    between atoms: N1_2  and  C2_4 
REMARK    2  A    between atoms: C3_6  and  C4_7 
REMARK    3  A    between atoms: C6_14  and  N5_15 
ROOT
HETATM    1  C2  UNL     1      -0.544   8.724  11.661  1.00  0.00     0.114 A 
HETATM    2  S1  UNL     1       0.177   9.627  10.370  1.00  0.00    -0.060 SA
HETATM    3  C3  UNL     1      -0.952  10.402   9.383  1.00  0.00     0.113 A 
HETATM    4  C5  UNL     1      -2.263  10.205   9.747  1.00  0.00     0.140 A 
HETATM    5  N3  UNL     1      -3.232  10.875   8.894  1.00  0.00    -0.081 NA
HETATM    6  N4  UNL     1      -2.666   9.484  10.767  1.00  0.00    -0.328 N 
ATOM      7  H4  UNL     1      -3.677   9.440  10.898  1.00  0.00     0.168 HD
HETATM    8  C6  UNL     1      -1.932   8.787  11.673  1.00  0.00     0.134 A 
ENDROOT
BRANCH   1   9
HETATM    9  N1  UNL     1       0.179   8.083  12.492  1.00  0.00    -0.386 N 
HETATM   10  C1  UNL     1       0.968   6.957  12.217  1.00  0.00     0.147 C 
ATOM     11  H1  UNL     1       0.183   8.423  13.454  1.00  0.00     0.159 HD
ENDBRANCH   1   9
BRANCH   8  12
HETATM   12  N5  UNL     1      -2.570   8.177  12.557  1.00  0.00    -0.383 N 
ATOM     13  H52 UNL     1      -2.932   8.740  13.328  1.00  0.00     0.157 HD
ATOM     14  H51 UNL     1      -2.702   7.168  12.480  1.00  0.00     0.157 HD
ENDBRANCH   8  12
BRANCH   3  15
HETATM   15  C4  UNL     1      -0.600  11.238   8.210  1.00  0.00     0.275 C 
HETATM   16  N2  UNL     1      -0.077  12.543   8.394  1.00  0.00    -0.057 NA
HETATM   17  O1  UNL     1      -0.770  10.779   7.067  1.00  0.00    -0.270 OA
ENDBRANCH   3  15
TORSDOF 3
ENDMDL
MODEL 3
REMARK VINA RESULT: -5.943668605      3.320      4.806
REMARK  3 active torsions:
REMARK  status: ('A' for Active; 'I' for Inactive)
REMARK    1  A    between atoms: N1_2  and  C2_4 
REMARK    2  A    between atoms: C3_6  and  C4_7 
REMARK    3  A    between atoms: C6_14  and  N5_15 
ROOT
HETATM    1  C2  UNL     1      -2.027   8.147  14.650  1.00  0.00     0.114 A 
HETATM    2  S1  UNL     1      -2.096   6.436  14.386  1.00  0.00    -0.060 SA
HETATM    3  C3  UNL     1      -2.996   5.615  15.554  1.00  0.00     0.113 A 
HETATM    4  C5  UNL     1      -3.537   6.417  16.531  1.00  0.00     0.140 A 
HETATM    5  N3  UNL     1      -4.311   5.705  17.535  1.00  0.00    -0.081 NA
HETATM    6  N4  UNL     1      -3.398   7.721  16.603  1.00  0.00    -0.328 N 
ATOM      7  H4  UNL     1      -3.865   8.166  17.394  1.00  0.00     0.168 HD
HETATM    8  C6  UNL     1      -2.724   8.563  15.777  1.00  0.00     0.134 A 
ENDROOT
BRANCH   1   9
HETATM    9  N1  UNL     1      -1.384   8.905  13.851  1.00  0.00    -0.386 N 
HETATM   10  C1  UNL     1      -1.647   9.094  12.487  1.00  0.00     0.147 C 
ATOM     11  H1  UNL     1      -0.600   9.426  14.244  1.00  0.00     0.159 HD
ENDBRANCH   1   9
BRANCH   8  12
HETATM   12  N5  UNL     1      -2.750   9.775  16.075  1.00  0.00    -0.383 N 
ATOM     13  H52 UNL     1      -3.226  10.395  15.419  1.00  0.00     0.157 HD
ATOM     14  H51 UNL     1      -2.307  10.094  16.937  1.00  0.00     0.157 HD
ENDBRANCH   8  12
BRANCH   3  15
HETATM   15  C4  UNL     1      -3.212   4.148  15.562  1.00  0.00     0.275 C 
HETATM   16  N2  UNL     1      -4.320   3.585  14.880  1.00  0.00    -0.057 NA
HETATM   17  O1  UNL     1      -2.409   3.422  16.173  1.00  0.00    -0.270 OA
ENDBRANCH   3  15
TORSDOF 3
ENDMDL
MODEL 4
REMARK VINA RESULT: -5.776546497      3.288      4.582
REMARK  3 active torsions:
REMARK  status: ('A' for Active; 'I' for Inactive)
REMARK    1  A    between atoms: N1_2  and  C2_4 
REMARK    2  A    between atoms: C3_6  and  C4_7 
REMARK    3  A    between atoms: C6_14  and  N5_15 
ROOT
HETATM    1  C2  UNL     1      -0.945   7.699  14.270  1.00  0.00     0.114 A 
HETATM    2  S1  UNL     1      -1.262   6.056  14.716  1.00  0.00    -0.060 SA
HETATM    3  C3  UNL     1      -2.716   5.858  15.550  1.00  0.00     0.113 A 
HETATM    4  C5  UNL     1      -3.426   7.019  15.749  1.00  0.00     0.140 A 
HETATM    5  N3  UNL     1      -4.678   6.842  16.468  1.00  0.00    -0.081 NA
HETATM    6  N4  UNL     1      -3.055   8.212  15.347  1.00  0.00    -0.328 N 
ATOM      7  H4  UNL     1      -3.699   8.969  15.577  1.00  0.00     0.168 HD
HETATM    8  C6  UNL     1      -1.937   8.585  14.670  1.00  0.00     0.134 A 
ENDROOT
BRANCH   1   9
HETATM    9  N1  UNL     1       0.116   8.010  13.634  1.00  0.00    -0.386 N 
HETATM   10  C1  UNL     1       0.526   7.496  12.396  1.00  0.00     0.147 C 
ATOM     11  H1  UNL     1       0.727   8.700  14.070  1.00  0.00     0.159 HD
ENDBRANCH   1   9
BRANCH   8  12
HETATM   12  N5  UNL     1      -1.825   9.800  14.407  1.00  0.00    -0.383 N 
ATOM     13  H52 UNL     1      -1.273  10.038  13.582  1.00  0.00     0.157 HD
ATOM     14  H51 UNL     1      -2.273  10.491  15.008  1.00  0.00     0.157 HD
ENDBRANCH   8  12
BRANCH   3  15
HETATM   15  C4  UNL     1      -3.224   4.556  16.045  1.00  0.00     0.275 C 
HETATM   16  N2  UNL     1      -4.075   3.765  15.231  1.00  0.00    -0.057 NA
HETATM   17  O1  UNL     1      -2.894   4.169  17.179  1.00  0.00    -0.270 OA
ENDBRANCH   3  15
TORSDOF 3
ENDMDL
MODEL 5
REMARK VINA RESULT: -5.755215204      3.670      5.043
REMARK  3 active torsions:
REMARK  status: ('A' for Active; 'I' for Inactive)
REMARK    1  A    between atoms: N1_2  and  C2_4 
REMARK    2  A    between atoms: C3_6  and  C4_7 
REMARK    3  A    between atoms: C6_14  and  N5_15 
ROOT
HETATM    1  C2  UNL     1      -1.390   7.426  12.541  1.00  0.00     0.114 A 
HETATM    2  S1  UNL     1      -2.161   6.516  13.797  1.00  0.00    -0.060 SA
HETATM    3  C3  UNL     1      -2.607   7.456  15.126  1.00  0.00     0.113 A 
HETATM    4  C5  UNL     1      -2.298   8.791  15.015  1.00  0.00     0.140 A 
HETATM    5  N3  UNL     1      -2.685   9.596  16.163  1.00  0.00    -0.081 NA
HETATM    6  N4  UNL     1      -1.703   9.347  13.986  1.00  0.00    -0.328 N 
ATOM      7  H4  UNL     1      -1.547  10.353  14.063  1.00  0.00     0.168 HD
HETATM    8  C6  UNL     1      -1.267   8.779  12.831  1.00  0.00     0.134 A 
ENDROOT
BRANCH   1   9
HETATM    9  N1  UNL     1      -0.994   6.857  11.471  1.00  0.00    -0.386 N 
HETATM   10  C1  UNL     1      -0.333   5.624  11.378  1.00  0.00     0.147 C 
ATOM     11  H1  UNL     1      -1.177   7.347  10.596  1.00  0.00     0.159 HD
ENDBRANCH   1   9
BRANCH   8  12
HETATM   12  N5  UNL     1      -0.728   9.543  12.003  1.00  0.00    -0.383 N 
ATOM     13  H52 UNL     1      -1.263  10.367  11.727  1.00  0.00     0.157 HD
ATOM     14  H51 UNL     1       0.200   9.321  11.640  1.00  0.00     0.157 HD
ENDBRANCH   8  12
BRANCH   3  15
HETATM   15  C4  UNL     1      -3.282   6.925  16.335  1.00  0.00     0.275 C 
HETATM   16  N2  UNL     1      -4.697   6.911  16.415  1.00  0.00    -0.057 NA
HETATM   17  O1  UNL     1      -2.590   6.493  17.273  1.00  0.00    -0.270 OA
ENDBRANCH   3  15
TORSDOF 3
ENDMDL
