MODEL 1
REMARK VINA RESULT: -7.474942784      0.000      0.000
REMARK  5 active torsions:
REMARK  status: ('A' for Active; 'I' for Inactive)
REMARK    1  A    between atoms: C2_2  and  O1_3 
REMARK    2  A    between atoms: O1_3  and  C3_4 
REMARK    3  A    between atoms: C3_4  and  C4_6 
REMARK    4  A    between atoms: C5_7  and  S1_8 
REMARK    5  A    between atoms: C9_17  and  N3_18 
ROOT
HETATM    1  C4  UNL     1      -0.401   7.258  11.161  1.00  0.00     0.081 A 
HETATM    2  C5  UNL     1       0.085   6.138  10.480  1.00  0.00     0.085 A 
HETATM    3  C7  UNL     1       0.465   6.301   9.170  1.00  0.00     0.264 A 
HETATM    4  O3  UNL     1       0.916   5.337   8.480  1.00  0.00    -0.267 OA
HETATM    5  N1  UNL     1       0.372   7.501   8.564  1.00  0.00    -0.307 N 
ATOM      6  H1  UNL     1       0.666   7.576   7.590  1.00  0.00     0.170 HD
HETATM    7  C8  UNL     1      -0.088   8.602   9.178  1.00  0.00     0.140 A 
HETATM    8  N2  UNL     1      -0.178   9.790   8.565  1.00  0.00    -0.176 N 
ATOM      9  H2  UNL     1       0.113   9.876   7.591  1.00  0.00     0.186 HD
HETATM   10  C9  UNL     1      -0.650  10.880   9.220  1.00  0.00     0.680 A 
HETATM   11  N4  UNL     1      -1.032  10.783  10.484  1.00  0.00    -0.155 N 
ATOM     12  H4  UNL     1      -1.387  11.602  10.975  1.00  0.00     0.187 HD
HETATM   13  C10 UNL     1      -0.948   9.586  11.125  1.00  0.00     0.274 A 
HETATM   14  O4  UNL     1      -1.319   9.537  12.313  1.00  0.00    -0.267 OA
HETATM   15  C11 UNL     1      -0.478   8.453  10.510  1.00  0.00     0.095 A 
ENDROOT
BRANCH   1  16
HETATM   16  C3  UNL     1      -0.812   7.135  12.538  1.00  0.00     0.296 C 
HETATM   17  O2  UNL     1       0.056   7.262  13.470  1.00  0.00    -0.259 OA
BRANCH  16  18
HETATM   18  O1  UNL     1      -2.109   6.884  12.943  1.00  0.00    -0.318 OA
BRANCH  18  19
HETATM   19  C2  UNL     1      -2.375   5.896  13.951  1.00  0.00     0.174 C 
HETATM   20  C1  UNL     1      -3.833   5.893  14.321  1.00  0.00     0.034 C 
ENDBRANCH  18  19
ENDBRANCH  16  18
ENDBRANCH   1  16
BRANCH   2  21
HETATM   21  S1  UNL     1       0.199   4.571  11.291  1.00  0.00    -0.128 SA
HETATM   22  C6  UNL     1       1.864   4.322  11.956  1.00  0.00     0.096 C 
ENDBRANCH   2  21
BRANCH  10  23
HETATM   23  N3  UNL     1      -0.731  12.016   8.618  1.00  0.00    -0.234 N 
ATOM     24  H32 UNL     1       0.118  12.469   8.281  1.00  0.00     0.174 HD
ATOM     25  H31 UNL     1      -1.639  12.462   8.478  1.00  0.00     0.174 HD
ENDBRANCH  10  23
TORSDOF 5
ENDMDL
MODEL 2
REMARK VINA RESULT: -7.343009423      1.729      3.767
REMARK  5 active torsions:
REMARK  status: ('A' for Active; 'I' for Inactive)
REMARK    1  A    between atoms: C2_2  and  O1_3 
REMARK    2  A    between atoms: O1_3  and  C3_4 
REMARK    3  A    between atoms: C3_4  and  C4_6 
REMARK    4  A    between atoms: C5_7  and  S1_8 
REMARK    5  A    between atoms: C9_17  and  N3_18 
ROOT
HETATM    1  C4  UNL     1      -0.290   7.425  11.347  1.00  0.00     0.081 A 
HETATM    2  C5  UNL     1      -0.688   7.395  12.687  1.00  0.00     0.085 A 
HETATM    3  C7  UNL     1      -1.151   8.564  13.242  1.00  0.00     0.264 A 
HETATM    4  O3  UNL     1      -1.532   8.624  14.451  1.00  0.00    -0.267 OA
HETATM    5  N1  UNL     1      -1.219   9.697  12.518  1.00  0.00    -0.307 N 
ATOM      6  H1  UNL     1      -1.571  10.542  12.971  1.00  0.00     0.170 HD
HETATM    7  C8  UNL     1      -0.848   9.772  11.231  1.00  0.00     0.140 A 
HETATM    8  N2  UNL     1      -0.918  10.906  10.520  1.00  0.00    -0.176 N 
ATOM      9  H2  UNL     1      -1.267  11.756  10.963  1.00  0.00     0.186 HD
HETATM   10  C9  UNL     1      -0.531  10.941   9.220  1.00  0.00     0.680 A 
HETATM   11  N4  UNL     1      -0.076   9.846   8.632  1.00  0.00    -0.155 N 
ATOM     12  H4  UNL     1       0.215   9.874   7.655  1.00  0.00     0.187 HD
HETATM   13  C10 UNL     1       0.003   8.684   9.336  1.00  0.00     0.274 A 
HETATM   14  O4  UNL     1       0.438   7.678   8.745  1.00  0.00    -0.267 OA
HETATM   15  C11 UNL     1      -0.375   8.593  10.651  1.00  0.00     0.095 A 
ENDROOT
BRANCH   1  16
HETATM   16  C3  UNL     1       0.204   6.222  10.721  1.00  0.00     0.296 C 
HETATM   17  O2  UNL     1      -0.609   5.455  10.098  1.00  0.00    -0.259 OA
BRANCH  16  18
HETATM   18  O1  UNL     1       1.526   5.822  10.742  1.00  0.00    -0.318 OA
BRANCH  18  19
HETATM   19  C2  UNL     1       1.867   4.439  10.552  1.00  0.00     0.174 C 
HETATM   20  C1  UNL     1       2.068   3.755  11.877  1.00  0.00     0.034 C 
ENDBRANCH  18  19
ENDBRANCH  16  18
ENDBRANCH   1  16
BRANCH   2  21
HETATM   21  S1  UNL     1      -0.591   5.898  13.622  1.00  0.00    -0.128 SA
HETATM   22  C6  UNL     1       0.833   5.938  14.738  1.00  0.00     0.096 C 
ENDBRANCH   2  21
BRANCH  10  23
HETATM   23  N3  UNL     1      -0.604  12.039   8.550  1.00  0.00    -0.234 N 
ATOM     24  H32 UNL     1      -1.265  12.760   8.835  1.00  0.00     0.174 HD
ATOM     25  H31 UNL     1      -0.005  12.187   7.737  1.00  0.00     0.174 HD
ENDBRANCH  10  23
TORSDOF 5
ENDMDL
MODEL 3
REMARK VINA RESULT: -7.328658081      1.019      1.453
REMARK  5 active torsions:
REMARK  status: ('A' for Active; 'I' for Inactive)
REMARK    1  A    between atoms: C2_2  and  O1_3 
REMARK    2  A    between atoms: O1_3  and  C3_4 
REMARK    3  A    between atoms: C3_4  and  C4_6 
REMARK    4  A    between atoms: C5_7  and  S1_8 
REMARK    5  A    between atoms: C9_17  and  N3_18 
ROOT
HETATM    1  C4  UNL     1      -0.444   7.222  11.209  1.00  0.00     0.081 A 
HETATM    2  C5  UNL     1       0.031   6.112  10.505  1.00  0.00     0.085 A 
HETATM    3  C7  UNL     1       0.304   6.271   9.168  1.00  0.00     0.264 A 
HETATM    4  O3  UNL     1       0.737   5.315   8.456  1.00  0.00    -0.267 OA
HETATM    5  N1  UNL     1       0.120   7.459   8.559  1.00  0.00    -0.307 N 
ATOM      6  H1  UNL     1       0.337   7.532   7.565  1.00  0.00     0.170 HD
HETATM    7  C8  UNL     1      -0.333   8.550   9.194  1.00  0.00     0.140 A 
HETATM    8  N2  UNL     1      -0.514   9.726   8.578  1.00  0.00    -0.176 N 
ATOM      9  H2  UNL     1      -0.301   9.810   7.584  1.00  0.00     0.186 HD
HETATM   10  C9  UNL     1      -0.976  10.807   9.256  1.00  0.00     0.680 A 
HETATM   11  N4  UNL     1      -1.257  10.712  10.546  1.00  0.00    -0.155 N 
ATOM     12  H4  UNL     1      -1.605  11.524  11.055  1.00  0.00     0.187 HD
HETATM   13  C10 UNL     1      -1.080   9.527  11.191  1.00  0.00     0.274 A 
HETATM   14  O4  UNL     1      -1.357   9.481  12.404  1.00  0.00    -0.267 OA
HETATM   15  C11 UNL     1      -0.616   8.404  10.554  1.00  0.00     0.095 A 
ENDROOT
BRANCH   1  16
HETATM   16  C3  UNL     1      -0.745   7.102  12.615  1.00  0.00     0.296 C 
HETATM   17  O2  UNL     1      -1.921   6.754  12.982  1.00  0.00    -0.259 OA
BRANCH  16  18
HETATM   18  O1  UNL     1       0.164   7.340  13.628  1.00  0.00    -0.318 OA
BRANCH  18  19
HETATM   19  C2  UNL     1       0.011   6.699  14.904  1.00  0.00     0.174 C 
HETATM   20  C1  UNL     1       0.986   5.562  15.048  1.00  0.00     0.034 C 
ENDBRANCH  18  19
ENDBRANCH  16  18
ENDBRANCH   1  16
BRANCH   2  21
HETATM   21  S1  UNL     1       0.265   4.561  11.321  1.00  0.00    -0.128 SA
HETATM   22  C6  UNL     1       2.022   4.279  11.654  1.00  0.00     0.096 C 
ENDBRANCH   2  21
BRANCH  10  23
HETATM   23  N3  UNL     1      -1.145  11.931   8.650  1.00  0.00    -0.234 N 
ATOM     24  H32 UNL     1      -1.238  11.947   7.635  1.00  0.00     0.174 HD
ATOM     25  H31 UNL     1      -1.186  12.801   9.181  1.00  0.00     0.174 HD
ENDBRANCH  10  23
TORSDOF 5
ENDMDL
MODEL 4
REMARK VINA RESULT: -7.302475475      1.156      1.164
REMARK  5 active torsions:
REMARK  status: ('A' for Active; 'I' for Inactive)
REMARK    1  A    between atoms: C2_2  and  O1_3 
REMARK    2  A    between atoms: O1_3  and  C3_4 
REMARK    3  A    between atoms: C3_4  and  C4_6 
REMARK    4  A    between atoms: C5_7  and  S1_8 
REMARK    5  A    between atoms: C9_17  and  N3_18 
ROOT
HETATM    1  C4  UNL     1      -0.661   6.994  11.598  1.00  0.00     0.081 A 
HETATM    2  C5  UNL     1      -0.391   5.790  10.942  1.00  0.00     0.085 A 
HETATM    3  C7  UNL     1      -0.451   5.783   9.569  1.00  0.00     0.264 A 
HETATM    4  O3  UNL     1      -0.220   4.733   8.895  1.00  0.00    -0.267 OA
HETATM    5  N1  UNL     1      -0.760   6.900   8.882  1.00  0.00    -0.307 N 
ATOM      6  H1  UNL     1      -0.792   6.849   7.863  1.00  0.00     0.170 HD
HETATM    7  C8  UNL     1      -1.027   8.076   9.470  1.00  0.00     0.140 A 
HETATM    8  N2  UNL     1      -1.335   9.180   8.777  1.00  0.00    -0.176 N 
ATOM      9  H2  UNL     1      -1.371   9.140   7.758  1.00  0.00     0.186 HD
HETATM   10  C9  UNL     1      -1.601  10.351   9.409  1.00  0.00     0.680 A 
HETATM   11  N4  UNL     1      -1.558  10.417  10.731  1.00  0.00    -0.155 N 
ATOM     12  H4  UNL     1      -1.759  11.297  11.205  1.00  0.00     0.187 HD
HETATM   13  C10 UNL     1      -1.247   9.307  11.454  1.00  0.00     0.274 A 
HETATM   14  O4  UNL     1      -1.219   9.413  12.694  1.00  0.00    -0.267 OA
HETATM   15  C11 UNL     1      -0.970   8.099  10.865  1.00  0.00     0.095 A 
ENDROOT
BRANCH   1  16
HETATM   16  C3  UNL     1      -0.611   7.049  13.039  1.00  0.00     0.296 C 
HETATM   17  O2  UNL     1       0.490   7.344  13.622  1.00  0.00    -0.259 OA
BRANCH  16  18
HETATM   18  O1  UNL     1      -1.690   6.801  13.866  1.00  0.00    -0.318 OA
BRANCH  18  19
HETATM   19  C2  UNL     1      -1.597   7.057  15.276  1.00  0.00     0.174 C 
HETATM   20  C1  UNL     1      -2.599   8.099  15.694  1.00  0.00     0.034 C 
ENDBRANCH  18  19
ENDBRANCH  16  18
ENDBRANCH   1  16
BRANCH   2  21
HETATM   21  S1  UNL     1       0.013   4.334  11.860  1.00  0.00    -0.128 SA
HETATM   22  C6  UNL     1       1.808   4.149  12.000  1.00  0.00     0.096 C 
ENDBRANCH   2  21
BRANCH  10  23
HETATM   23  N3  UNL     1      -1.896  11.405   8.729  1.00  0.00    -0.234 N 
ATOM     24  H32 UNL     1      -2.354  11.308   7.824  1.00  0.00     0.174 HD
ATOM     25  H31 UNL     1      -1.673  12.332   9.093  1.00  0.00     0.174 HD
ENDBRANCH  10  23
TORSDOF 5
ENDMDL
MODEL 5
REMARK VINA RESULT: -7.285058284      1.818      3.770
REMARK  5 active torsions:
REMARK  status: ('A' for Active; 'I' for Inactive)
REMARK    1  A    between atoms: C2_2  and  O1_3 
REMARK    2  A    between atoms: O1_3  and  C3_4 
REMARK    3  A    between atoms: C3_4  and  C4_6 
REMARK    4  A    between atoms: C5_7  and  S1_8 
REMARK    5  A    between atoms: C9_17  and  N3_18 
ROOT
HETATM    1  C4  UNL     1      -0.246   7.407  11.332  1.00  0.00     0.081 A 
HETATM    2  C5  UNL     1      -0.637   7.361  12.673  1.00  0.00     0.085 A 
HETATM    3  C7  UNL     1      -1.115   8.519  13.239  1.00  0.00     0.264 A 
HETATM    4  O3  UNL     1      -1.491   8.565  14.450  1.00  0.00    -0.267 OA
HETATM    5  N1  UNL     1      -1.202   9.657  12.523  1.00  0.00    -0.307 N 
ATOM      6  H1  UNL     1      -1.563  10.493  12.984  1.00  0.00     0.170 HD
HETATM    7  C8  UNL     1      -0.838   9.746  11.235  1.00  0.00     0.140 A 
HETATM    8  N2  UNL     1      -0.926  10.884  10.533  1.00  0.00    -0.176 N 
ATOM      9  H2  UNL     1      -1.286  11.726  10.984  1.00  0.00     0.186 HD
HETATM   10  C9  UNL     1      -0.546  10.935   9.232  1.00  0.00     0.680 A 
HETATM   11  N4  UNL     1      -0.077   9.850   8.634  1.00  0.00    -0.155 N 
ATOM     12  H4  UNL     1       0.209   9.889   7.656  1.00  0.00     0.187 HD
HETATM   13  C10 UNL     1       0.021   8.684   9.328  1.00  0.00     0.274 A 
HETATM   14  O4  UNL     1       0.467   7.689   8.729  1.00  0.00    -0.267 OA
HETATM   15  C11 UNL     1      -0.350   8.578  10.645  1.00  0.00     0.095 A 
ENDROOT
BRANCH   1  16
HETATM   16  C3  UNL     1       0.262   6.216  10.695  1.00  0.00     0.296 C 
HETATM   17  O2  UNL     1       1.513   5.952  10.754  1.00  0.00    -0.259 OA
BRANCH  16  18
HETATM   18  O1  UNL     1      -0.520   5.309  10.005  1.00  0.00    -0.318 OA
BRANCH  18  19
HETATM   19  C2  UNL     1       0.085   4.184   9.348  1.00  0.00     0.174 C 
HETATM   20  C1  UNL     1      -0.029   4.317   7.854  1.00  0.00     0.034 C 
ENDBRANCH  18  19
ENDBRANCH  16  18
ENDBRANCH   1  16
BRANCH   2  21
HETATM   21  S1  UNL     1      -0.516   5.858  13.597  1.00  0.00    -0.128 SA
HETATM   22  C6  UNL     1       0.949   5.884  14.659  1.00  0.00     0.096 C 
ENDBRANCH   2  21
BRANCH  10  23
HETATM   23  N3  UNL     1      -0.637  12.036   8.570  1.00  0.00    -0.234 N 
ATOM     24  H32 UNL     1      -0.096  12.155   7.714  1.00  0.00     0.174 HD
ATOM     25  H31 UNL     1      -1.245  12.786   8.899  1.00  0.00     0.174 HD
ENDBRANCH  10  23
TORSDOF 5
ENDMDL
