MODEL 1
REMARK VINA RESULT: -8.362434720      0.000      0.000
REMARK  6 active torsions:
REMARK  status: ('A' for Active; 'I' for Inactive)
REMARK    1  A    between atoms: N1_2  and  C2_3 
REMARK       I    between atoms: N1_2  and  C16_22 
REMARK    2  A    between atoms: C2_3  and  C3_4 
REMARK       I    between atoms: N2_7  and  C6_8 
REMARK       I    between atoms: C6_8  and  N3_10 
REMARK    3  A    between atoms: N3_10  and  C7_12 
REMARK    4  A    between atoms: C7_12  and  C8_13 
REMARK    5  A    between atoms: C8_13  and  N4_14 
REMARK       I    between atoms: C16_22  and  N5_24 
REMARK    6  A    between atoms: N5_24  and  C17_26 
ROOT
HETATM    1  C3  UNL     1      16.468 -13.797  19.088  1.00  0.00     0.007 C 
HETATM    2  C4  UNL     1      17.286 -12.539  19.160  1.00  0.00     0.026 C 
HETATM    3  C5  UNL     1      18.759 -12.979  19.160  1.00  0.00     0.128 C 
HETATM    4  N2  UNL     1      18.993 -13.554  20.446  1.00  0.00    -0.334 N 
HETATM    5  C6  UNL     1      20.248 -13.373  21.079  1.00  0.00     0.318 C 
HETATM    6  O1  UNL     1      21.168 -12.697  20.501  1.00  0.00    -0.247 OA
HETATM    7  N3  UNL     1      20.550 -13.912  22.349  1.00  0.00    -0.341 N 
ATOM      8  H3  UNL     1      19.833 -14.448  22.837  1.00  0.00     0.164 HD
HETATM    9  C14 UNL     1      17.950 -14.303  21.071  1.00  0.00     0.128 C 
HETATM   10  C15 UNL     1      16.967 -14.837  20.031  1.00  0.00     0.026 C 
ENDROOT
BRANCH   1  11
HETATM   11  C2  UNL     1      14.985 -13.530  19.264  1.00  0.00     0.131 C 
BRANCH  11  12
HETATM   12  N1  UNL     1      14.319 -14.652  19.885  1.00  0.00    -0.338 N 
HETATM   13  C1  UNL     1      14.041 -15.842  19.108  1.00  0.00     0.154 C 
HETATM   14  C16 UNL     1      13.936 -14.585  21.256  1.00  0.00     0.323 C 
HETATM   15  O2  UNL     1      13.355 -15.528  21.844  1.00  0.00    -0.247 OA
HETATM   16  N5  UNL     1      14.204 -13.419  22.031  1.00  0.00    -0.292 N 
ATOM     17  H5  UNL     1      15.087 -13.313  22.532  1.00  0.00     0.172 HD
BRANCH  16  18
HETATM   18  C17 UNL     1      13.294 -12.498  22.081  1.00  0.00     0.142 A 
HETATM   19  N6  UNL     1      12.019 -12.621  22.480  1.00  0.00    -0.285 N 
HETATM   20  N7  UNL     1      11.383 -11.468  22.397  1.00  0.00    -0.309 N 
ATOM     21  H6  UNL     1      11.598 -13.491  22.806  1.00  0.00     0.188 HD
HETATM   22  C18 UNL     1      12.258 -10.556  21.930  1.00  0.00     0.130 A 
ATOM     23  H7  UNL     1      10.407 -11.299  22.640  1.00  0.00     0.186 HD
HETATM   24  C19 UNL     1      13.480 -11.180  21.721  1.00  0.00     0.073 A 
HETATM   25 BR1  UNL     1      15.085 -10.356  21.061  1.00  0.00    -0.045 Br
ENDBRANCH  16  18
ENDBRANCH  11  12
ENDBRANCH   1  11
BRANCH   7  26
HETATM   26  C7  UNL     1      21.818 -13.736  22.972  1.00  0.00     0.152 C 
BRANCH  26  27
HETATM   27  C8  UNL     1      22.255 -14.955  23.702  1.00  0.00     0.256 C 
BRANCH  27  28
HETATM   28  N4  UNL     1      22.211 -14.782  25.148  1.00  0.00    -0.069 N 
HETATM   29  C9  UNL     1      22.934 -15.829  25.840  1.00  0.00     0.272 C 
HETATM   30  C10 UNL     1      20.800 -14.792  25.515  1.00  0.00     0.237 C 
HETATM   31  C11 UNL     1      20.702 -13.911  26.743  1.00  0.00     0.029 C 
HETATM   32  C12 UNL     1      21.722 -12.833  26.418  1.00  0.00     0.029 C 
HETATM   33  C13 UNL     1      22.703 -13.465  25.454  1.00  0.00     0.237 C 
ENDBRANCH  27  28
ENDBRANCH  26  27
ENDBRANCH   7  26
TORSDOF 6
ENDMDL
MODEL 2
REMARK VINA RESULT: -8.221234699      2.458      3.300
REMARK  6 active torsions:
REMARK  status: ('A' for Active; 'I' for Inactive)
REMARK    1  A    between atoms: N1_2  and  C2_3 
REMARK       I    between atoms: N1_2  and  C16_22 
REMARK    2  A    between atoms: C2_3  and  C3_4 
REMARK       I    between atoms: N2_7  and  C6_8 
REMARK       I    between atoms: C6_8  and  N3_10 
REMARK    3  A    between atoms: N3_10  and  C7_12 
REMARK    4  A    between atoms: C7_12  and  C8_13 
REMARK    5  A    between atoms: C8_13  and  N4_14 
REMARK       I    between atoms: C16_22  and  N5_24 
REMARK    6  A    between atoms: N5_24  and  C17_26 
ROOT
HETATM    1  C3  UNL     1      14.077 -13.247  20.353  1.00  0.00     0.007 C 
HETATM    2  C4  UNL     1      15.094 -13.833  19.414  1.00  0.00     0.026 C 
HETATM    3  C5  UNL     1      15.632 -15.101  20.096  1.00  0.00     0.128 C 
HETATM    4  N2  UNL     1      16.455 -14.645  21.171  1.00  0.00    -0.334 N 
HETATM    5  C6  UNL     1      17.633 -15.359  21.507  1.00  0.00     0.318 C 
HETATM    6  O1  UNL     1      17.958 -16.408  20.850  1.00  0.00    -0.247 OA
HETATM    7  N3  UNL     1      18.492 -14.967  22.556  1.00  0.00    -0.341 N 
ATOM      8  H3  UNL     1      18.263 -14.130  23.091  1.00  0.00     0.164 HD
HETATM    9  C14 UNL     1      16.071 -13.471  21.888  1.00  0.00     0.128 C 
HETATM   10  C15 UNL     1      14.570 -13.223  21.758  1.00  0.00     0.026 C 
ENDROOT
BRANCH   1  11
HETATM   11  C2  UNL     1      13.587 -11.887  19.895  1.00  0.00     0.131 C 
BRANCH  11  12
HETATM   12  N1  UNL     1      14.383 -10.823  20.461  1.00  0.00    -0.338 N 
HETATM   13  C1  UNL     1      15.807 -10.774  20.200  1.00  0.00     0.154 C 
HETATM   14  C16 UNL     1      13.769  -9.827  21.275  1.00  0.00     0.323 C 
HETATM   15  O2  UNL     1      14.413  -8.883  21.791  1.00  0.00    -0.247 OA
HETATM   16  N5  UNL     1      12.369  -9.864  21.539  1.00  0.00    -0.292 N 
ATOM     17  H5  UNL     1      11.705  -9.406  20.915  1.00  0.00     0.172 HD
BRANCH  16  18
HETATM   18  C17 UNL     1      11.965 -10.496  22.596  1.00  0.00     0.142 A 
HETATM   19  N6  UNL     1      11.543 -11.767  22.684  1.00  0.00    -0.285 N 
HETATM   20  N7  UNL     1      11.209 -12.070  23.924  1.00  0.00    -0.309 N 
ATOM     21  H6  UNL     1      11.488 -12.413  21.897  1.00  0.00     0.188 HD
HETATM   22  C18 UNL     1      11.415 -10.973  24.679  1.00  0.00     0.130 A 
ATOM     23  H7  UNL     1      10.859 -12.970  24.251  1.00  0.00     0.186 HD
HETATM   24  C19 UNL     1      11.895  -9.958  23.863  1.00  0.00     0.073 A 
HETATM   25 BR1  UNL     1      12.359  -8.175  24.412  1.00  0.00    -0.045 Br
ENDBRANCH  16  18
ENDBRANCH  11  12
ENDBRANCH   1  11
BRANCH   7  26
HETATM   26  C7  UNL     1      19.667 -15.697  22.895  1.00  0.00     0.152 C 
BRANCH  26  27
HETATM   27  C8  UNL     1      20.028 -15.538  24.328  1.00  0.00     0.256 C 
BRANCH  27  28
HETATM   28  N4  UNL     1      21.037 -14.507  24.535  1.00  0.00    -0.069 N 
HETATM   29  C9  UNL     1      21.729 -14.172  23.307  1.00  0.00     0.272 C 
HETATM   30  C10 UNL     1      21.964 -15.039  25.526  1.00  0.00     0.237 C 
HETATM   31  C11 UNL     1      22.491 -13.829  26.269  1.00  0.00     0.029 C 
HETATM   32  C12 UNL     1      21.254 -12.948  26.315  1.00  0.00     0.029 C 
HETATM   33  C13 UNL     1      20.396 -13.373  25.144  1.00  0.00     0.237 C 
ENDBRANCH  27  28
ENDBRANCH  26  27
ENDBRANCH   7  26
TORSDOF 6
ENDMDL
MODEL 3
REMARK VINA RESULT: -8.195702451      3.168      8.148
REMARK  6 active torsions:
REMARK  status: ('A' for Active; 'I' for Inactive)
REMARK    1  A    between atoms: N1_2  and  C2_3 
REMARK       I    between atoms: N1_2  and  C16_22 
REMARK    2  A    between atoms: C2_3  and  C3_4 
REMARK       I    between atoms: N2_7  and  C6_8 
REMARK       I    between atoms: C6_8  and  N3_10 
REMARK    3  A    between atoms: N3_10  and  C7_12 
REMARK    4  A    between atoms: C7_12  and  C8_13 
REMARK    5  A    between atoms: C8_13  and  N4_14 
REMARK       I    between atoms: C16_22  and  N5_24 
REMARK    6  A    between atoms: N5_24  and  C17_26 
ROOT
HETATM    1  C3  UNL     1      20.641 -13.959  21.968  1.00  0.00     0.007 C 
HETATM    2  C4  UNL     1      20.316 -13.548  20.560  1.00  0.00     0.026 C 
HETATM    3  C5  UNL     1      19.615 -12.183  20.659  1.00  0.00     0.128 C 
HETATM    4  N2  UNL     1      18.318 -12.450  21.192  1.00  0.00    -0.334 N 
HETATM    5  C6  UNL     1      17.205 -11.693  20.747  1.00  0.00     0.318 C 
HETATM    6  O1  UNL     1      17.363 -10.774  19.871  1.00  0.00    -0.247 OA
HETATM    7  N3  UNL     1      15.895 -11.901  21.230  1.00  0.00    -0.341 N 
ATOM      8  H3  UNL     1      15.738 -12.633  21.922  1.00  0.00     0.164 HD
HETATM    9  C14 UNL     1      18.168 -13.482  22.168  1.00  0.00     0.128 C 
HETATM   10  C15 UNL     1      19.490 -13.743  22.888  1.00  0.00     0.026 C 
ENDROOT
BRANCH   1  11
HETATM   11  C2  UNL     1      21.176 -15.377  22.044  1.00  0.00     0.131 C 
BRANCH  11  12
HETATM   12  N1  UNL     1      20.262 -16.247  22.747  1.00  0.00    -0.338 N 
HETATM   13  C1  UNL     1      19.080 -16.744  22.073  1.00  0.00     0.154 C 
HETATM   14  C16 UNL     1      20.522 -16.613  24.100  1.00  0.00     0.323 C 
HETATM   15  O2  UNL     1      19.762 -17.364  24.756  1.00  0.00    -0.247 OA
HETATM   16  N5  UNL     1      21.681 -16.131  24.775  1.00  0.00    -0.292 N 
ATOM     17  H5  UNL     1      22.564 -16.640  24.730  1.00  0.00     0.172 HD
BRANCH  16  18
HETATM   18  C17 UNL     1      21.580 -15.027  25.446  1.00  0.00     0.142 A 
HETATM   19  N6  UNL     1      20.631 -14.686  26.331  1.00  0.00    -0.285 N 
HETATM   20  N7  UNL     1      20.851 -13.481  26.821  1.00  0.00    -0.309 N 
ATOM     21  H6  UNL     1      19.843 -15.280  26.591  1.00  0.00     0.188 HD
HETATM   22  C18 UNL     1      21.976 -13.010  26.248  1.00  0.00     0.130 A 
ATOM     23  H7  UNL     1      20.275 -12.995  27.509  1.00  0.00     0.186 HD
HETATM   24  C19 UNL     1      22.461 -13.970  25.371  1.00  0.00     0.073 A 
HETATM   25 BR1  UNL     1      24.039 -13.829  24.283  1.00  0.00    -0.045 Br
ENDBRANCH  16  18
ENDBRANCH  11  12
ENDBRANCH   1  11
BRANCH   7  26
HETATM   26  C7  UNL     1      14.785 -11.128  20.786  1.00  0.00     0.152 C 
BRANCH  26  27
HETATM   27  C8  UNL     1      14.377 -10.110  21.790  1.00  0.00     0.256 C 
BRANCH  27  28
HETATM   28  N4  UNL     1      12.943 -10.129  22.048  1.00  0.00    -0.069 N 
HETATM   29  C9  UNL     1      12.185  -9.610  20.927  1.00  0.00     0.272 C 
HETATM   30  C10 UNL     1      12.734  -9.315  23.239  1.00  0.00     0.237 C 
HETATM   31  C11 UNL     1      11.516  -9.907  23.917  1.00  0.00     0.029 C 
HETATM   32  C12 UNL     1      11.716 -11.389  23.646  1.00  0.00     0.029 C 
HETATM   33  C13 UNL     1      12.571 -11.473  22.401  1.00  0.00     0.237 C 
ENDBRANCH  27  28
ENDBRANCH  26  27
ENDBRANCH   7  26
TORSDOF 6
ENDMDL
MODEL 4
REMARK VINA RESULT: -8.097659953      2.700      3.399
REMARK  6 active torsions:
REMARK  status: ('A' for Active; 'I' for Inactive)
REMARK    1  A    between atoms: N1_2  and  C2_3 
REMARK       I    between atoms: N1_2  and  C16_22 
REMARK    2  A    between atoms: C2_3  and  C3_4 
REMARK       I    between atoms: N2_7  and  C6_8 
REMARK       I    between atoms: C6_8  and  N3_10 
REMARK    3  A    between atoms: N3_10  and  C7_12 
REMARK    4  A    between atoms: C7_12  and  C8_13 
REMARK    5  A    between atoms: C8_13  and  N4_14 
REMARK       I    between atoms: C16_22  and  N5_24 
REMARK    6  A    between atoms: N5_24  and  C17_26 
ROOT
HETATM    1  C3  UNL     1      17.819 -12.194  18.743  1.00  0.00     0.007 C 
HETATM    2  C4  UNL     1      17.258 -12.822  19.987  1.00  0.00     0.026 C 
HETATM    3  C5  UNL     1      18.137 -12.337  21.151  1.00  0.00     0.128 C 
HETATM    4  N2  UNL     1      19.380 -13.025  21.012  1.00  0.00    -0.334 N 
HETATM    5  C6  UNL     1      20.089 -13.438  22.168  1.00  0.00     0.318 C 
HETATM    6  O1  UNL     1      19.616 -13.195  23.332  1.00  0.00    -0.247 OA
HETATM    7  N3  UNL     1      21.322 -14.122  22.107  1.00  0.00    -0.341 N 
ATOM      8  H3  UNL     1      21.719 -14.337  21.193  1.00  0.00     0.164 HD
HETATM    9  C14 UNL     1      19.886 -13.286  19.702  1.00  0.00     0.128 C 
HETATM   10  C15 UNL     1      19.304 -12.300  18.690  1.00  0.00     0.026 C 
ENDROOT
BRANCH   1  11
HETATM   11  C2  UNL     1      17.163 -12.726  17.483  1.00  0.00     0.131 C 
BRANCH  11  12
HETATM   12  N1  UNL     1      16.528 -11.667  16.734  1.00  0.00    -0.338 N 
HETATM   13  C1  UNL     1      17.339 -10.742  15.969  1.00  0.00     0.154 C 
HETATM   14  C16 UNL     1      15.109 -11.534  16.748  1.00  0.00     0.323 C 
HETATM   15  O2  UNL     1      14.507 -10.633  16.116  1.00  0.00    -0.247 OA
HETATM   16  N5  UNL     1      14.300 -12.437  17.496  1.00  0.00    -0.292 N 
ATOM     17  H5  UNL     1      13.963 -13.307  17.081  1.00  0.00     0.172 HD
BRANCH  16  18
HETATM   18  C17 UNL     1      14.005 -12.123  18.718  1.00  0.00     0.142 A 
HETATM   19  N6  UNL     1      14.246 -10.964  19.351  1.00  0.00    -0.285 N 
HETATM   20  N7  UNL     1      13.804 -11.003  20.593  1.00  0.00    -0.309 N 
ATOM     21  H6  UNL     1      14.710 -10.161  18.928  1.00  0.00     0.188 HD
HETATM   22  C18 UNL     1      13.255 -12.217  20.791  1.00  0.00     0.130 A 
ATOM     23  H7  UNL     1      13.867 -10.250  21.279  1.00  0.00     0.186 HD
HETATM   24  C19 UNL     1      13.368 -12.950  19.618  1.00  0.00     0.073 A 
HETATM   25 BR1  UNL     1      12.754 -14.749  19.332  1.00  0.00    -0.045 Br
ENDBRANCH  16  18
ENDBRANCH  11  12
ENDBRANCH   1  11
BRANCH   7  26
HETATM   26  C7  UNL     1      22.033 -14.522  23.274  1.00  0.00     0.152 C 
BRANCH  26  27
HETATM   27  C8  UNL     1      21.740 -15.930  23.650  1.00  0.00     0.256 C 
BRANCH  27  28
HETATM   28  N4  UNL     1      21.317 -16.056  25.039  1.00  0.00    -0.069 N 
HETATM   29  C9  UNL     1      21.919 -17.204  25.686  1.00  0.00     0.272 C 
HETATM   30  C10 UNL     1      19.865 -16.175  25.012  1.00  0.00     0.237 C 
HETATM   31  C11 UNL     1      19.391 -15.565  26.315  1.00  0.00     0.029 C 
HETATM   32  C12 UNL     1      20.375 -14.419  26.481  1.00  0.00     0.029 C 
HETATM   33  C13 UNL     1      21.613 -14.817  25.709  1.00  0.00     0.237 C 
ENDBRANCH  27  28
ENDBRANCH  26  27
ENDBRANCH   7  26
TORSDOF 6
ENDMDL
MODEL 5
REMARK VINA RESULT: -8.072019035      1.976      2.995
REMARK  6 active torsions:
REMARK  status: ('A' for Active; 'I' for Inactive)
REMARK    1  A    between atoms: N1_2  and  C2_3 
REMARK       I    between atoms: N1_2  and  C16_22 
REMARK    2  A    between atoms: C2_3  and  C3_4 
REMARK       I    between atoms: N2_7  and  C6_8 
REMARK       I    between atoms: C6_8  and  N3_10 
REMARK    3  A    between atoms: N3_10  and  C7_12 
REMARK    4  A    between atoms: C7_12  and  C8_13 
REMARK    5  A    between atoms: C8_13  and  N4_14 
REMARK       I    between atoms: C16_22  and  N5_24 
REMARK    6  A    between atoms: N5_24  and  C17_26 
ROOT
HETATM    1  C3  UNL     1      15.403 -12.047  19.192  1.00  0.00     0.007 C 
HETATM    2  C4  UNL     1      16.364 -10.974  19.618  1.00  0.00     0.026 C 
HETATM    3  C5  UNL     1      17.773 -11.560  19.441  1.00  0.00     0.128 C 
HETATM    4  N2  UNL     1      17.928 -12.522  20.484  1.00  0.00    -0.334 N 
HETATM    5  C6  UNL     1      19.191 -12.689  21.106  1.00  0.00     0.318 C 
HETATM    6  O1  UNL     1      20.189 -11.980  20.733  1.00  0.00    -0.247 OA
HETATM    7  N3  UNL     1      19.417 -13.621  22.142  1.00  0.00    -0.341 N 
ATOM      8  H3  UNL     1      18.638 -14.193  22.465  1.00  0.00     0.164 HD
HETATM    9  C14 UNL     1      16.798 -13.301  20.883  1.00  0.00     0.128 C 
HETATM   10  C15 UNL     1      15.768 -13.375  19.758  1.00  0.00     0.026 C 
ENDROOT
BRANCH   1  11
HETATM   11  C2  UNL     1      13.960 -11.677  19.483  1.00  0.00     0.131 C 
BRANCH  11  12
HETATM   12  N1  UNL     1      13.782 -11.301  20.866  1.00  0.00    -0.338 N 
HETATM   13  C1  UNL     1      14.410 -10.096  21.369  1.00  0.00     0.154 C 
HETATM   14  C16 UNL     1      12.994 -12.113  21.731  1.00  0.00     0.323 C 
HETATM   15  O2  UNL     1      12.808 -11.833  22.940  1.00  0.00    -0.247 OA
HETATM   16  N5  UNL     1      12.371 -13.301  21.249  1.00  0.00    -0.292 N 
ATOM     17  H5  UNL     1      11.439 -13.274  20.836  1.00  0.00     0.172 HD
BRANCH  16  18
HETATM   18  C17 UNL     1      13.024 -14.416  21.350  1.00  0.00     0.142 A 
HETATM   19  N6  UNL     1      13.814 -14.818  22.357  1.00  0.00    -0.285 N 
HETATM   20  N7  UNL     1      14.315 -16.014  22.117  1.00  0.00    -0.309 N 
ATOM     21  H6  UNL     1      14.003 -14.271  23.197  1.00  0.00     0.188 HD
HETATM   22  C18 UNL     1      13.846 -16.417  20.920  1.00  0.00     0.130 A 
ATOM     23  H7  UNL     1      14.944 -16.539  22.726  1.00  0.00     0.186 HD
HETATM   24  C19 UNL     1      13.023 -15.423  20.409  1.00  0.00     0.073 A 
HETATM   25 BR1  UNL     1      12.087 -15.466  18.731  1.00  0.00    -0.045 Br
ENDBRANCH  16  18
ENDBRANCH  11  12
ENDBRANCH   1  11
BRANCH   7  26
HETATM   26  C7  UNL     1      20.692 -13.791  22.753  1.00  0.00     0.152 C 
BRANCH  26  27
HETATM   27  C8  UNL     1      20.794 -15.081  23.483  1.00  0.00     0.256 C 
BRANCH  27  28
HETATM   28  N4  UNL     1      21.138 -14.898  24.888  1.00  0.00    -0.069 N 
HETATM   29  C9  UNL     1      20.775 -16.050  25.688  1.00  0.00     0.272 C 
HETATM   30  C10 UNL     1      20.420 -13.709  25.330  1.00  0.00     0.237 C 
HETATM   31  C11 UNL     1      21.284 -13.103  26.415  1.00  0.00     0.029 C 
HETATM   32  C12 UNL     1      22.677 -13.381  25.876  1.00  0.00     0.029 C 
HETATM   33  C13 UNL     1      22.539 -14.581  24.965  1.00  0.00     0.237 C 
ENDBRANCH  27  28
ENDBRANCH  26  27
ENDBRANCH   7  26
TORSDOF 6
ENDMDL
