MODEL 1
REMARK VINA RESULT: -6.433627831      0.000      0.000
REMARK  7 active torsions:
REMARK  status: ('A' for Active; 'I' for Inactive)
REMARK    1  A    between atoms: C2_2  and  C3_3 
REMARK    2  A    between atoms: C3_3  and  C4_4 
REMARK    3  A    between atoms: N3_16  and  C9_17 
REMARK    4  A    between atoms: C9_17  and  C10_18 
REMARK    5  A    between atoms: C11_19  and  C12_20 
REMARK    6  A    between atoms: N4_24  and  C16_26 
REMARK    7  A    between atoms: C16_26  and  C17_27 
ROOT
HETATM    1  C4  UNL     1      16.325 -13.574  18.555  1.00  0.00     0.127 C 
HETATM    2  N1  UNL     1      16.377 -12.168  18.203  1.00  0.00    -0.295 N 
ATOM      3  H1  UNL     1      16.710 -11.729  17.345  1.00  0.00     0.174 HD
HETATM    4  S1  UNL     1      15.733 -11.449  19.606  1.00  0.00     0.316 S 
HETATM    5  O1  UNL     1      16.276 -10.082  19.893  1.00  0.00    -0.183 OA
HETATM    6  O2  UNL     1      14.265 -11.322  19.683  1.00  0.00    -0.183 OA
HETATM    7  N2  UNL     1      16.335 -12.660  20.726  1.00  0.00    -0.286 N 
ATOM      8  H2  UNL     1      16.254 -12.655  21.743  1.00  0.00     0.174 HD
HETATM    9  C5  UNL     1      16.966 -13.660  19.906  1.00  0.00     0.122 C 
HETATM   10  C6  UNL     1      18.433 -13.288  19.589  1.00  0.00     0.042 C 
HETATM   11  C7  UNL     1      18.866 -11.915  19.713  1.00  0.00     0.014 C 
HETATM   12  C8  UNL     1      19.299 -14.140  20.516  1.00  0.00     0.248 C 
HETATM   13  N3  UNL     1      18.388 -14.764  21.412  1.00  0.00    -0.023 N 
HETATM   14  C13 UNL     1      18.689 -16.201  21.605  1.00  0.00     0.269 C 
HETATM   15  C14 UNL     1      17.273 -16.587  22.024  1.00  0.00     0.267 C 
HETATM   16  N4  UNL     1      16.446 -15.978  20.939  1.00  0.00    -0.037 N 
HETATM   17  C15 UNL     1      16.344 -17.156  20.048  1.00  0.00     0.275 C 
HETATM   18  C19 UNL     1      17.254 -14.965  20.487  1.00  0.00     0.423 C 
ENDROOT
BRANCH   1  19
HETATM   19  C3  UNL     1      15.012 -14.064  18.236  1.00  0.00     0.028 C 
BRANCH  19  20
HETATM   20  C2  UNL     1      15.025 -15.267  17.303  1.00  0.00    -0.002 C 
HETATM   21  C1  UNL     1      15.821 -14.828  16.074  1.00  0.00     0.005 C 
ENDBRANCH  19  20
ENDBRANCH   1  19
BRANCH  13  22
HETATM   22  C9  UNL     1      18.192 -14.237  22.671  1.00  0.00     0.333 C 
BRANCH  22  23
HETATM   23  C10 UNL     1      19.475 -14.080  23.421  1.00  0.00    -0.078 C 
HETATM   24  C11 UNL     1      20.541 -13.959  24.019  1.00  0.00    -0.094 C 
BRANCH  24  25
HETATM   25  C12 UNL     1      21.798 -13.792  24.733  1.00  0.00     0.178 C 
HETATM   26 BR1  UNL     1      21.372 -12.967  26.443  1.00  0.00    -0.083 Br
ENDBRANCH  24  25
ENDBRANCH  22  23
ENDBRANCH  13  22
BRANCH  16  27
HETATM   27  C16 UNL     1      15.201 -15.700  21.561  1.00  0.00     0.239 C 
BRANCH  27  28
HETATM   28  C17 UNL     1      14.064 -16.608  21.124  1.00  0.00     0.023 C 
HETATM   29  C18 UNL     1      12.848 -15.687  20.912  1.00  0.00     0.007 C 
ENDBRANCH  27  28
ENDBRANCH  16  27
TORSDOF 7
ENDMDL
MODEL 2
REMARK VINA RESULT: -6.417884044      3.660      6.079
REMARK  7 active torsions:
REMARK  status: ('A' for Active; 'I' for Inactive)
REMARK    1  A    between atoms: C2_2  and  C3_3 
REMARK    2  A    between atoms: C3_3  and  C4_4 
REMARK    3  A    between atoms: N3_16  and  C9_17 
REMARK    4  A    between atoms: C9_17  and  C10_18 
REMARK    5  A    between atoms: C11_19  and  C12_20 
REMARK    6  A    between atoms: N4_24  and  C16_26 
REMARK    7  A    between atoms: C16_26  and  C17_27 
ROOT
HETATM    1  C4  UNL     1      18.388 -13.887  20.355  1.00  0.00     0.127 C 
HETATM    2  N1  UNL     1      19.088 -14.905  21.114  1.00  0.00    -0.295 N 
ATOM      3  H1  UNL     1      19.863 -15.505  20.829  1.00  0.00     0.174 HD
HETATM    4  S1  UNL     1      18.271 -14.830  22.606  1.00  0.00     0.316 S 
HETATM    5  O1  UNL     1      18.217 -16.137  23.337  1.00  0.00    -0.183 OA
HETATM    6  O2  UNL     1      18.752 -13.840  23.587  1.00  0.00    -0.183 OA
HETATM    7  N2  UNL     1      16.713 -14.370  21.939  1.00  0.00    -0.286 N 
ATOM      8  H2  UNL     1      15.836 -14.247  22.445  1.00  0.00     0.174 HD
HETATM    9  C5  UNL     1      16.935 -14.205  20.526  1.00  0.00     0.122 C 
HETATM   10  C6  UNL     1      16.810 -15.550  19.774  1.00  0.00     0.042 C 
HETATM   11  C7  UNL     1      16.944 -16.792  20.500  1.00  0.00     0.014 C 
HETATM   12  C8  UNL     1      15.436 -15.540  19.107  1.00  0.00     0.248 C 
HETATM   13  N3  UNL     1      14.777 -14.391  19.623  1.00  0.00    -0.023 N 
HETATM   14  C13 UNL     1      14.085 -13.620  18.564  1.00  0.00     0.269 C 
HETATM   15  C14 UNL     1      14.096 -12.295  19.323  1.00  0.00     0.267 C 
HETATM   16  N4  UNL     1      15.529 -12.179  19.732  1.00  0.00    -0.037 N 
HETATM   17  C15 UNL     1      16.020 -11.363  18.599  1.00  0.00     0.275 C 
HETATM   18  C19 UNL     1      15.940 -13.489  19.738  1.00  0.00     0.423 C 
ENDROOT
BRANCH   1  19
HETATM   19  C3  UNL     1      18.991 -12.617  20.652  1.00  0.00     0.028 C 
BRANCH  19  20
HETATM   20  C2  UNL     1      20.506 -12.615  20.503  1.00  0.00    -0.002 C 
HETATM   21  C1  UNL     1      20.773 -12.444  19.007  1.00  0.00     0.005 C 
ENDBRANCH  19  20
ENDBRANCH   1  19
BRANCH  13  22
HETATM   22  C9  UNL     1      13.875 -14.522  20.657  1.00  0.00     0.333 C 
BRANCH  22  23
HETATM   23  C10 UNL     1      13.098 -15.795  20.569  1.00  0.00    -0.078 C 
HETATM   24  C11 UNL     1      12.456 -16.839  20.472  1.00  0.00    -0.094 C 
BRANCH  24  25
HETATM   25  C12 UNL     1      11.716 -18.087  20.372  1.00  0.00     0.178 C 
HETATM   26 BR1  UNL     1      12.795 -19.457  21.232  1.00  0.00    -0.083 Br
ENDBRANCH  24  25
ENDBRANCH  22  23
ENDBRANCH  13  22
BRANCH  16  27
HETATM   27  C16 UNL     1      15.491 -11.418  20.930  1.00  0.00     0.239 C 
BRANCH  27  28
HETATM   28  C17 UNL     1      14.092 -11.158  21.463  1.00  0.00     0.023 C 
HETATM   29  C18 UNL     1      14.058  -9.667  21.846  1.00  0.00     0.007 C 
ENDBRANCH  27  28
ENDBRANCH  16  27
TORSDOF 7
ENDMDL
MODEL 3
REMARK VINA RESULT: -6.297716547      3.889      5.853
REMARK  7 active torsions:
REMARK  status: ('A' for Active; 'I' for Inactive)
REMARK    1  A    between atoms: C2_2  and  C3_3 
REMARK    2  A    between atoms: C3_3  and  C4_4 
REMARK    3  A    between atoms: N3_16  and  C9_17 
REMARK    4  A    between atoms: C9_17  and  C10_18 
REMARK    5  A    between atoms: C11_19  and  C12_20 
REMARK    6  A    between atoms: N4_24  and  C16_26 
REMARK    7  A    between atoms: C16_26  and  C17_27 
ROOT
HETATM    1  C4  UNL     1      14.982 -15.869  18.931  1.00  0.00     0.127 C 
HETATM    2  N1  UNL     1      14.327 -16.780  19.850  1.00  0.00    -0.295 N 
ATOM      3  H1  UNL     1      13.546 -17.415  19.684  1.00  0.00     0.174 HD
HETATM    4  S1  UNL     1      15.214 -16.507  21.278  1.00  0.00     0.316 S 
HETATM    5  O1  UNL     1      14.419 -16.698  22.534  1.00  0.00    -0.183 OA
HETATM    6  O2  UNL     1      16.450 -17.290  21.462  1.00  0.00    -0.183 OA
HETATM    7  N2  UNL     1      15.564 -14.817  20.956  1.00  0.00    -0.286 N 
ATOM      8  H2  UNL     1      16.049 -14.159  21.567  1.00  0.00     0.174 HD
HETATM    9  C5  UNL     1      15.022 -14.556  19.649  1.00  0.00     0.122 C 
HETATM   10  C6  UNL     1      13.522 -14.185  19.723  1.00  0.00     0.042 C 
HETATM   11  C7  UNL     1      12.752 -14.550  20.889  1.00  0.00     0.014 C 
HETATM   12  C8  UNL     1      13.450 -12.667  19.568  1.00  0.00     0.248 C 
HETATM   13  N3  UNL     1      14.799 -12.219  19.622  1.00  0.00    -0.023 N 
HETATM   14  C13 UNL     1      15.098 -11.216  18.574  1.00  0.00     0.269 C 
HETATM   15  C14 UNL     1      16.601 -11.482  18.548  1.00  0.00     0.267 C 
HETATM   16  N4  UNL     1      16.655 -12.969  18.413  1.00  0.00    -0.037 N 
HETATM   17  C15 UNL     1      16.765 -13.056  16.939  1.00  0.00     0.275 C 
HETATM   18  C19 UNL     1      15.448 -13.356  18.939  1.00  0.00     0.423 C 
ENDROOT
BRANCH   1  19
HETATM   19  C3  UNL     1      16.127 -16.539  18.380  1.00  0.00     0.028 C 
BRANCH  19  20
HETATM   20  C2  UNL     1      15.796 -17.428  17.190  1.00  0.00    -0.002 C 
HETATM   21  C1  UNL     1      15.700 -16.489  15.987  1.00  0.00     0.005 C 
ENDBRANCH  19  20
ENDBRANCH   1  19
BRANCH  13  22
HETATM   22  C9  UNL     1      15.309 -11.714  20.799  1.00  0.00     0.333 C 
BRANCH  22  23
HETATM   23  C10 UNL     1      14.282 -10.959  21.579  1.00  0.00    -0.078 C 
HETATM   24  C11 UNL     1      13.429 -10.359  22.230  1.00  0.00    -0.094 C 
BRANCH  24  25
HETATM   25  C12 UNL     1      12.438  -9.633  23.009  1.00  0.00     0.178 C 
HETATM   26 BR1  UNL     1      11.544 -10.936  24.143  1.00  0.00    -0.083 Br
ENDBRANCH  24  25
ENDBRANCH  22  23
ENDBRANCH  13  22
BRANCH  16  27
HETATM   27  C16 UNL     1      17.876 -13.334  19.038  1.00  0.00     0.239 C 
BRANCH  27  28
HETATM   28  C17 UNL     1      18.820 -12.171  19.297  1.00  0.00     0.023 C 
HETATM   29  C18 UNL     1      20.216 -12.660  18.871  1.00  0.00     0.007 C 
ENDBRANCH  27  28
ENDBRANCH  16  27
TORSDOF 7
ENDMDL
MODEL 4
REMARK VINA RESULT: -6.255064779      3.637      5.682
REMARK  7 active torsions:
REMARK  status: ('A' for Active; 'I' for Inactive)
REMARK    1  A    between atoms: C2_2  and  C3_3 
REMARK    2  A    between atoms: C3_3  and  C4_4 
REMARK    3  A    between atoms: N3_16  and  C9_17 
REMARK    4  A    between atoms: C9_17  and  C10_18 
REMARK    5  A    between atoms: C11_19  and  C12_20 
REMARK    6  A    between atoms: N4_24  and  C16_26 
REMARK    7  A    between atoms: C16_26  and  C17_27 
ROOT
HETATM    1  C4  UNL     1      14.824 -15.360  18.354  1.00  0.00     0.127 C 
HETATM    2  N1  UNL     1      13.717 -16.160  18.839  1.00  0.00    -0.295 N 
ATOM      3  H1  UNL     1      12.912 -16.526  18.331  1.00  0.00     0.174 HD
HETATM    4  S1  UNL     1      14.121 -16.325  20.485  1.00  0.00     0.316 S 
HETATM    5  O1  UNL     1      12.936 -16.443  21.395  1.00  0.00    -0.183 OA
HETATM    6  O2  UNL     1      15.018 -17.439  20.849  1.00  0.00    -0.183 OA
HETATM    7  N2  UNL     1      14.929 -14.773  20.633  1.00  0.00    -0.286 N 
ATOM      8  H2  UNL     1      15.321 -14.359  21.479  1.00  0.00     0.174 HD
HETATM    9  C5  UNL     1      14.920 -14.210  19.308  1.00  0.00     0.122 C 
HETATM   10  C6  UNL     1      13.604 -13.449  19.027  1.00  0.00     0.042 C 
HETATM   11  C7  UNL     1      12.431 -13.728  19.822  1.00  0.00     0.014 C 
HETATM   12  C8  UNL     1      13.930 -11.963  19.174  1.00  0.00     0.248 C 
HETATM   13  N3  UNL     1      15.250 -11.920  19.702  1.00  0.00    -0.023 N 
HETATM   14  C13 UNL     1      16.095 -10.917  19.014  1.00  0.00     0.269 C 
HETATM   15  C14 UNL     1      17.422 -11.585  19.363  1.00  0.00     0.267 C 
HETATM   16  N4  UNL     1      17.182 -12.999  18.945  1.00  0.00    -0.037 N 
HETATM   17  C15 UNL     1      17.748 -12.928  17.579  1.00  0.00     0.275 C 
HETATM   18  C19 UNL     1      15.814 -13.098  19.013  1.00  0.00     0.423 C 
ENDROOT
BRANCH   1  19
HETATM   19  C3  UNL     1      15.906 -16.248  18.027  1.00  0.00     0.028 C 
BRANCH  19  20
HETATM   20  C2  UNL     1      15.872 -16.740  16.587  1.00  0.00    -0.002 C 
HETATM   21  C1  UNL     1      15.729 -15.485  15.725  1.00  0.00     0.005 C 
ENDBRANCH  19  20
ENDBRANCH   1  19
BRANCH  13  22
HETATM   22  C9  UNL     1      15.444 -11.727  21.053  1.00  0.00     0.333 C 
BRANCH  22  23
HETATM   23  C10 UNL     1      14.295 -11.018  21.692  1.00  0.00    -0.078 C 
HETATM   24  C11 UNL     1      13.361 -10.437  22.239  1.00  0.00    -0.094 C 
BRANCH  24  25
HETATM   25  C12 UNL     1      12.256  -9.730  22.869  1.00  0.00     0.178 C 
HETATM   26 BR1  UNL     1      11.538 -10.908  24.240  1.00  0.00    -0.083 Br
ENDBRANCH  24  25
ENDBRANCH  22  23
ENDBRANCH  13  22
BRANCH  16  27
HETATM   27  C16 UNL     1      18.014 -13.765  19.803  1.00  0.00     0.239 C 
BRANCH  27  28
HETATM   28  C17 UNL     1      19.184 -12.996  20.393  1.00  0.00     0.023 C 
HETATM   29  C18 UNL     1      20.450 -13.761  19.966  1.00  0.00     0.007 C 
ENDBRANCH  27  28
ENDBRANCH  16  27
TORSDOF 7
ENDMDL
MODEL 5
REMARK VINA RESULT: -6.144193023      4.062      6.400
REMARK  7 active torsions:
REMARK  status: ('A' for Active; 'I' for Inactive)
REMARK    1  A    between atoms: C2_2  and  C3_3 
REMARK    2  A    between atoms: C3_3  and  C4_4 
REMARK    3  A    between atoms: N3_16  and  C9_17 
REMARK    4  A    between atoms: C9_17  and  C10_18 
REMARK    5  A    between atoms: C11_19  and  C12_20 
REMARK    6  A    between atoms: N4_24  and  C16_26 
REMARK    7  A    between atoms: C16_26  and  C17_27 
ROOT
HETATM    1  C4  UNL     1      15.221 -15.675  20.041  1.00  0.00     0.127 C 
HETATM    2  N1  UNL     1      14.484 -16.657  19.270  1.00  0.00    -0.295 N 
ATOM      3  H1  UNL     1      14.776 -17.581  18.953  1.00  0.00     0.174 HD
HETATM    4  S1  UNL     1      13.001 -15.853  19.037  1.00  0.00     0.316 S 
HETATM    5  O1  UNL     1      12.309 -16.210  17.757  1.00  0.00    -0.183 OA
HETATM    6  O2  UNL     1      11.984 -15.997  20.097  1.00  0.00    -0.183 OA
HETATM    7  N2  UNL     1      13.673 -14.231  19.007  1.00  0.00    -0.286 N 
ATOM      8  H2  UNL     1      13.174 -13.358  18.834  1.00  0.00     0.174 HD
HETATM    9  C5  UNL     1      15.077 -14.394  19.279  1.00  0.00     0.122 C 
HETATM   10  C6  UNL     1      15.870 -14.699  17.987  1.00  0.00     0.042 C 
HETATM   11  C7  UNL     1      15.180 -15.213  16.827  1.00  0.00     0.014 C 
HETATM   12  C8  UNL     1      16.554 -13.393  17.587  1.00  0.00     0.248 C 
HETATM   13  N3  UNL     1      16.013 -12.405  18.455  1.00  0.00    -0.023 N 
HETATM   14  C13 UNL     1      17.057 -11.510  19.004  1.00  0.00     0.269 C 
HETATM   15  C14 UNL     1      16.259 -11.103  20.240  1.00  0.00     0.267 C 
HETATM   16  N4  UNL     1      15.829 -12.426  20.786  1.00  0.00    -0.037 N 
HETATM   17  C15 UNL     1      16.931 -12.639  21.751  1.00  0.00     0.275 C 
HETATM   18  C19 UNL     1      15.856 -13.227  19.672  1.00  0.00     0.423 C 
ENDROOT
BRANCH   1  19
HETATM   19  C3  UNL     1      14.879 -15.848  21.426  1.00  0.00     0.028 C 
BRANCH  19  20
HETATM   20  C2  UNL     1      15.834 -16.767  22.176  1.00  0.00    -0.002 C 
HETATM   21  C1  UNL     1      17.232 -16.411  21.669  1.00  0.00     0.005 C 
ENDBRANCH  19  20
ENDBRANCH   1  19
BRANCH  13  22
HETATM   22  C9  UNL     1      14.994 -11.587  18.015  1.00  0.00     0.333 C 
BRANCH  22  23
HETATM   23  C10 UNL     1      15.007 -11.420  16.530  1.00  0.00    -0.078 C 
HETATM   24  C11 UNL     1      15.041 -11.273  15.311  1.00  0.00    -0.094 C 
BRANCH  24  25
HETATM   25  C12 UNL     1      15.073 -11.124  13.864  1.00  0.00     0.178 C 
HETATM   26 BR1  UNL     1      15.775 -12.787  13.138  1.00  0.00    -0.083 Br
ENDBRANCH  24  25
ENDBRANCH  22  23
ENDBRANCH  13  22
BRANCH  16  27
HETATM   27  C16 UNL     1      14.609 -12.148  21.458  1.00  0.00     0.239 C 
BRANCH  27  28
HETATM   28  C17 UNL     1      14.224 -10.678  21.476  1.00  0.00     0.023 C 
HETATM   29  C18 UNL     1      12.726 -10.632  21.125  1.00  0.00     0.007 C 
ENDBRANCH  27  28
ENDBRANCH  16  27
TORSDOF 7
ENDMDL
