MODEL 1
REMARK VINA RESULT: -7.059020003      0.000      0.000
REMARK  0 active torsions:
REMARK  status: ('A' for Active; 'I' for Inactive)
REMARK       I    between atoms: C2_4  and  N2_5 
REMARK       I    between atoms: C2_4  and  N6_24 
ROOT
HETATM    1  C1  UNL     1     -18.598  33.365  -2.925  1.00  0.00     0.165 C 
HETATM    2  N1  UNL     1     -19.802  32.684  -3.278  1.00  0.00    -0.230 N 
ATOM      3  H1  UNL     1     -20.162  31.963  -2.653  1.00  0.00     0.177 HD
HETATM    4  C2  UNL     1     -20.460  32.955  -4.382  1.00  0.00     0.676 C 
HETATM    5  N2  UNL     1     -21.601  32.368  -4.799  1.00  0.00    -0.175 N 
ATOM      6  H2  UNL     1     -21.382  31.824  -5.634  1.00  0.00     0.186 HD
HETATM    7  C3  UNL     1     -22.808  32.230  -4.569  1.00  0.00     0.142 C 
HETATM    8  N3  UNL     1     -23.561  31.392  -5.473  1.00  0.00    -0.339 N 
ATOM      9  H3  UNL     1     -23.012  30.748  -6.043  1.00  0.00     0.167 HD
HETATM   10  C4  UNL     1     -25.003  31.349  -5.674  1.00  0.00     0.067 A 
HETATM   11  C5  UNL     1     -25.475  30.926  -6.903  1.00  0.00     0.081 A 
HETATM   12  S1  UNL     1     -27.158  30.997  -6.738  1.00  0.00    -0.109 SA
HETATM   13  C6  UNL     1     -27.255  31.553  -5.140  1.00  0.00     0.081 A 
HETATM   14  C7  UNL     1     -25.937  31.678  -4.749  1.00  0.00     0.067 A 
HETATM   15  N4  UNL     1     -25.706  32.150  -3.386  1.00  0.00    -0.339 N 
ATOM     16  H4  UNL     1     -26.430  31.900  -2.711  1.00  0.00     0.167 HD
HETATM   17  C8  UNL     1     -24.603  32.920  -2.850  1.00  0.00     0.128 A 
HETATM   18  N5  UNL     1     -24.793  33.656  -1.785  1.00  0.00    -0.326 N 
ATOM     19  H5  UNL     1     -25.712  33.678  -1.342  1.00  0.00     0.169 HD
HETATM   20  C9  UNL     1     -23.806  34.368  -1.283  1.00  0.00     0.148 A 
HETATM   21 CL1  UNL     1     -23.824  35.429   0.136  1.00  0.00    -0.056 Cl
HETATM   22  S2  UNL     1     -22.523  34.001  -2.346  1.00  0.00    -0.052 SA
HETATM   23  C10 UNL     1     -23.342  32.934  -3.397  1.00  0.00     0.096 A 
HETATM   24  N6  UNL     1     -19.855  33.962  -5.205  1.00  0.00    -0.227 N 
HETATM   25  C11 UNL     1     -18.568  33.678  -5.781  1.00  0.00     0.168 C 
HETATM   26  C12 UNL     1     -20.512  35.213  -5.454  1.00  0.00     0.168 C 
ENDROOT
TORSDOF 0
ENDMDL
MODEL 2
REMARK VINA RESULT: -6.829696058      3.140      5.658
REMARK  0 active torsions:
REMARK  status: ('A' for Active; 'I' for Inactive)
REMARK       I    between atoms: C2_4  and  N2_5 
REMARK       I    between atoms: C2_4  and  N6_24 
ROOT
HETATM    1  C1  UNL     1     -23.957  35.266  -0.121  1.00  0.00     0.165 C 
HETATM    2  N1  UNL     1     -23.379  35.546  -1.396  1.00  0.00    -0.230 N 
ATOM      3  H1  UNL     1     -22.562  36.155  -1.444  1.00  0.00     0.177 HD
HETATM    4  C2  UNL     1     -23.863  35.043  -2.508  1.00  0.00     0.676 C 
HETATM    5  N2  UNL     1     -23.388  35.247  -3.754  1.00  0.00    -0.175 N 
ATOM      6  H2  UNL     1     -24.082  35.794  -4.265  1.00  0.00     0.186 HD
HETATM    7  C3  UNL     1     -22.442  35.033  -4.521  1.00  0.00     0.142 C 
HETATM    8  N3  UNL     1     -22.542  35.570  -5.858  1.00  0.00    -0.339 N 
ATOM      9  H3  UNL     1     -23.220  36.321  -5.986  1.00  0.00     0.167 HD
HETATM   10  C4  UNL     1     -21.797  35.175  -7.047  1.00  0.00     0.067 A 
HETATM   11  C5  UNL     1     -22.386  35.385  -8.281  1.00  0.00     0.081 A 
HETATM   12  S1  UNL     1     -21.228  34.827  -9.383  1.00  0.00    -0.109 SA
HETATM   13  C6  UNL     1     -20.024  34.340  -8.294  1.00  0.00     0.081 A 
HETATM   14  C7  UNL     1     -20.558  34.627  -7.054  1.00  0.00     0.067 A 
HETATM   15  N4  UNL     1     -19.724  34.306  -5.898  1.00  0.00    -0.339 N 
ATOM     16  H4  UNL     1     -18.718  34.362  -6.059  1.00  0.00     0.167 HD
HETATM   17  C8  UNL     1     -20.114  33.922  -4.557  1.00  0.00     0.128 A 
HETATM   18  N5  UNL     1     -19.291  33.211  -3.831  1.00  0.00    -0.326 N 
ATOM     19  H5  UNL     1     -18.384  32.939  -4.212  1.00  0.00     0.169 HD
HETATM   20  C9  UNL     1     -19.625  32.846  -2.611  1.00  0.00     0.148 A 
HETATM   21 CL1  UNL     1     -18.687  31.891  -1.450  1.00  0.00    -0.056 Cl
HETATM   22  S2  UNL     1     -21.182  33.527  -2.447  1.00  0.00    -0.052 SA
HETATM   23  C10 UNL     1     -21.319  34.256  -3.984  1.00  0.00     0.096 A 
HETATM   24  N6  UNL     1     -25.028  34.223  -2.335  1.00  0.00    -0.227 N 
HETATM   25  C11 UNL     1     -26.224  34.848  -1.837  1.00  0.00     0.168 C 
HETATM   26  C12 UNL     1     -25.007  32.824  -2.653  1.00  0.00     0.168 C 
ENDROOT
TORSDOF 0
ENDMDL
MODEL 3
REMARK VINA RESULT: -6.508786710      1.869      2.188
REMARK  0 active torsions:
REMARK  status: ('A' for Active; 'I' for Inactive)
REMARK       I    between atoms: C2_4  and  N2_5 
REMARK       I    between atoms: C2_4  and  N6_24 
ROOT
HETATM    1  C1  UNL     1     -20.368  34.979  -5.213  1.00  0.00     0.165 C 
HETATM    2  N1  UNL     1     -21.142  33.784  -5.101  1.00  0.00    -0.230 N 
ATOM      3  H1  UNL     1     -20.838  33.059  -4.450  1.00  0.00     0.177 HD
HETATM    4  C2  UNL     1     -22.231  33.590  -5.807  1.00  0.00     0.676 C 
HETATM    5  N2  UNL     1     -23.026  32.500  -5.771  1.00  0.00    -0.175 N 
ATOM      6  H2  UNL     1     -22.937  32.021  -6.667  1.00  0.00     0.186 HD
HETATM    7  C3  UNL     1     -23.820  31.852  -5.079  1.00  0.00     0.142 C 
HETATM    8  N3  UNL     1     -24.388  30.661  -5.665  1.00  0.00    -0.339 N 
ATOM      9  H3  UNL     1     -23.886  30.277  -6.466  1.00  0.00     0.167 HD
HETATM   10  C4  UNL     1     -25.586  29.938  -5.259  1.00  0.00     0.067 A 
HETATM   11  C5  UNL     1     -26.257  29.202  -6.219  1.00  0.00     0.081 A 
HETATM   12  S1  UNL     1     -27.550  28.513  -5.371  1.00  0.00    -0.109 SA
HETATM   13  C6  UNL     1     -27.241  29.150  -3.831  1.00  0.00     0.081 A 
HETATM   14  C7  UNL     1     -26.103  29.911  -4.007  1.00  0.00     0.067 A 
HETATM   15  N4  UNL     1     -25.591  30.595  -2.822  1.00  0.00    -0.339 N 
ATOM     16  H4  UNL     1     -25.773  30.124  -1.935  1.00  0.00     0.167 HD
HETATM   17  C8  UNL     1     -24.863  31.843  -2.719  1.00  0.00     0.128 A 
HETATM   18  N5  UNL     1     -24.926  32.531  -1.608  1.00  0.00    -0.326 N 
ATOM     19  H5  UNL     1     -25.482  32.183  -0.827  1.00  0.00     0.169 HD
HETATM   20  C9  UNL     1     -24.277  33.671  -1.494  1.00  0.00     0.148 A 
HETATM   21 CL1  UNL     1     -24.213  34.768  -0.103  1.00  0.00    -0.056 Cl
HETATM   22  S2  UNL     1     -23.523  33.810  -3.019  1.00  0.00    -0.052 SA
HETATM   23  C10 UNL     1     -24.097  32.368  -3.733  1.00  0.00     0.096 A 
HETATM   24  N6  UNL     1     -22.555  34.655  -6.712  1.00  0.00    -0.227 N 
HETATM   25  C11 UNL     1     -21.641  34.926  -7.788  1.00  0.00     0.168 C 
HETATM   26  C12 UNL     1     -23.755  35.425  -6.555  1.00  0.00     0.168 C 
ENDROOT
TORSDOF 0
ENDMDL
MODEL 4
REMARK VINA RESULT: -6.493303619      2.574      5.449
REMARK  0 active torsions:
REMARK  status: ('A' for Active; 'I' for Inactive)
REMARK       I    between atoms: C2_4  and  N2_5 
REMARK       I    between atoms: C2_4  and  N6_24 
ROOT
HETATM    1  C1  UNL     1     -25.465  35.893  -6.685  1.00  0.00     0.165 C 
HETATM    2  N1  UNL     1     -24.161  35.620  -6.171  1.00  0.00    -0.230 N 
ATOM      3  H1  UNL     1     -23.677  36.347  -5.644  1.00  0.00     0.177 HD
HETATM    4  C2  UNL     1     -23.566  34.464  -6.354  1.00  0.00     0.676 C 
HETATM    5  N2  UNL     1     -22.341  34.113  -5.909  1.00  0.00    -0.175 N 
ATOM      6  H2  UNL     1     -21.734  34.011  -6.722  1.00  0.00     0.186 HD
HETATM    7  C3  UNL     1     -21.665  33.867  -4.903  1.00  0.00     0.142 C 
HETATM    8  N3  UNL     1     -20.279  33.519  -5.109  1.00  0.00    -0.339 N 
ATOM      9  H3  UNL     1     -19.883  33.785  -6.010  1.00  0.00     0.167 HD
HETATM   10  C4  UNL     1     -19.374  32.836  -4.193  1.00  0.00     0.067 A 
HETATM   11  C5  UNL     1     -18.321  32.122  -4.733  1.00  0.00     0.081 A 
HETATM   12  S1  UNL     1     -17.511  31.507  -3.380  1.00  0.00    -0.109 SA
HETATM   13  C6  UNL     1     -18.495  32.147  -2.156  1.00  0.00     0.081 A 
HETATM   14  C7  UNL     1     -19.466  32.849  -2.841  1.00  0.00     0.067 A 
HETATM   15  N4  UNL     1     -20.475  33.523  -2.027  1.00  0.00    -0.339 N 
ATOM     16  H4  UNL     1     -20.157  33.831  -1.108  1.00  0.00     0.167 HD
HETATM   17  C8  UNL     1     -21.860  33.817  -2.332  1.00  0.00     0.128 A 
HETATM   18  N5  UNL     1     -22.715  33.957  -1.351  1.00  0.00    -0.326 N 
ATOM     19  H5  UNL     1     -22.399  33.861  -0.386  1.00  0.00     0.169 HD
HETATM   20  C9  UNL     1     -23.980  34.220  -1.604  1.00  0.00     0.148 A 
HETATM   21 CL1  UNL     1     -25.309  34.448  -0.454  1.00  0.00    -0.056 Cl
HETATM   22  S2  UNL     1     -24.000  34.282  -3.309  1.00  0.00    -0.052 SA
HETATM   23  C10 UNL     1     -22.350  33.959  -3.608  1.00  0.00     0.096 A 
HETATM   24  N6  UNL     1     -24.318  33.522  -7.132  1.00  0.00    -0.227 N 
HETATM   25  C11 UNL     1     -24.592  33.848  -8.506  1.00  0.00     0.168 C 
HETATM   26  C12 UNL     1     -24.780  32.288  -6.563  1.00  0.00     0.168 C 
ENDROOT
TORSDOF 0
ENDMDL
MODEL 5
REMARK VINA RESULT: -6.395557894      1.244      1.290
REMARK  0 active torsions:
REMARK  status: ('A' for Active; 'I' for Inactive)
REMARK       I    between atoms: C2_4  and  N2_5 
REMARK       I    between atoms: C2_4  and  N6_24 
ROOT
HETATM    1  C1  UNL     1     -19.273  33.378  -4.401  1.00  0.00     0.165 C 
HETATM    2  N1  UNL     1     -20.428  32.558  -4.588  1.00  0.00    -0.230 N 
ATOM      3  H1  UNL     1     -20.581  31.771  -3.958  1.00  0.00     0.177 HD
HETATM    4  C2  UNL     1     -21.298  32.786  -5.544  1.00  0.00     0.676 C 
HETATM    5  N2  UNL     1     -22.414  32.071  -5.799  1.00  0.00    -0.175 N 
ATOM      6  H2  UNL     1     -22.281  31.596  -6.691  1.00  0.00     0.186 HD
HETATM    7  C3  UNL     1     -23.535  31.766  -5.376  1.00  0.00     0.142 C 
HETATM    8  N3  UNL     1     -24.327  30.874  -6.190  1.00  0.00    -0.339 N 
ATOM      9  H3  UNL     1     -23.814  30.332  -6.885  1.00  0.00     0.167 HD
HETATM   10  C4  UNL     1     -25.766  30.650  -6.146  1.00  0.00     0.067 A 
HETATM   11  C5  UNL     1     -26.393  30.219  -7.302  1.00  0.00     0.081 A 
HETATM   12  S1  UNL     1     -28.016  30.061  -6.849  1.00  0.00    -0.109 SA
HETATM   13  C6  UNL     1     -27.896  30.533  -5.226  1.00  0.00     0.081 A 
HETATM   14  C7  UNL     1     -26.555  30.815  -5.057  1.00  0.00     0.067 A 
HETATM   15  N4  UNL     1     -26.147  31.256  -3.725  1.00  0.00    -0.339 N 
ATOM     16  H4  UNL     1     -26.705  30.885  -2.955  1.00  0.00     0.167 HD
HETATM   17  C8  UNL     1     -25.070  32.141  -3.337  1.00  0.00     0.128 A 
HETATM   18  N5  UNL     1     -25.158  32.801  -2.211  1.00  0.00    -0.326 N 
ATOM     19  H5  UNL     1     -25.980  32.684  -1.617  1.00  0.00     0.169 HD
HETATM   20  C9  UNL     1     -24.193  33.616  -1.839  1.00  0.00     0.148 A 
HETATM   21 CL1  UNL     1     -24.090  34.606  -0.373  1.00  0.00    -0.056 Cl
HETATM   22  S2  UNL     1     -23.082  33.466  -3.126  1.00  0.00    -0.052 SA
HETATM   23  C10 UNL     1     -23.936  32.345  -4.088  1.00  0.00     0.096 A 
HETATM   24  N6  UNL     1     -20.976  33.897  -6.393  1.00  0.00    -0.227 N 
HETATM   25  C11 UNL     1     -19.786  33.809  -7.195  1.00  0.00     0.168 C 
HETATM   26  C12 UNL     1     -21.816  35.059  -6.447  1.00  0.00     0.168 C 
ENDROOT
TORSDOF 0
ENDMDL
