MODEL 1
REMARK VINA RESULT: -7.700383435      0.000      0.000
REMARK  1 active torsions:
REMARK  status: ('A' for Active; 'I' for Inactive)
REMARK    1  A    between atoms: C2_2  and  N1_5 
REMARK       I    between atoms: N1_5  and  C5_7 
REMARK       I    between atoms: C5_7  and  N3_11 
ROOT
HETATM    1  N1  UNL     1     -20.159  32.879  -2.930  1.00  0.00    -0.218 N 
ATOM      2  H1  UNL     1     -20.509  31.922  -2.963  1.00  0.00     0.178 HD
HETATM    3  C5  UNL     1     -21.032  33.792  -3.548  1.00  0.00     0.680 C 
HETATM    4  N2  UNL     1     -20.535  34.868  -3.871  1.00  0.00    -0.234 N 
ATOM      5  H21 UNL     1     -21.168  35.531  -4.319  1.00  0.00     0.174 HD
ATOM      6  H22 UNL     1     -19.542  35.076  -3.762  1.00  0.00     0.174 HD
HETATM    7  N3  UNL     1     -22.418  33.503  -3.702  1.00  0.00    -0.141 N 
HETATM    8  C6  UNL     1     -23.286  33.911  -2.594  1.00  0.00     0.074 A 
HETATM    9  C7  UNL     1     -22.636  34.598  -1.565  1.00  0.00     0.032 A 
HETATM   10  C8  UNL     1     -23.388  35.041  -0.484  1.00  0.00     0.002 A 
HETATM   11  C9  UNL     1     -24.745  34.823  -0.401  1.00  0.00     0.002 A 
HETATM   12  C10 UNL     1     -25.357  34.141  -1.433  1.00  0.00     0.021 A 
HETATM   13  C11 UNL     1     -24.608  33.706  -2.497  1.00  0.00     0.035 A 
HETATM   14  S1  UNL     1     -25.476  32.841  -3.760  1.00  0.00    -0.068 SA
HETATM   15  C12 UNL     1     -24.254  32.475  -5.004  1.00  0.00     0.107 A 
HETATM   16  N4  UNL     1     -24.639  31.852  -6.116  1.00  0.00    -0.345 N 
ATOM     17  H4  UNL     1     -25.626  31.613  -6.209  1.00  0.00     0.167 HD
HETATM   18  C13 UNL     1     -23.829  31.522  -7.110  1.00  0.00     0.182 A 
HETATM   19  N5  UNL     1     -22.543  31.827  -7.007  1.00  0.00    -0.341 N 
ATOM     20  H5  UNL     1     -21.903  31.580  -7.762  1.00  0.00     0.167 HD
HETATM   21  C14 UNL     1     -22.070  32.461  -5.908  1.00  0.00     0.135 A 
HETATM   22 CL1  UNL     1     -20.358  32.841  -5.895  1.00  0.00    -0.062 Cl
HETATM   23  C15 UNL     1     -22.892  32.816  -4.858  1.00  0.00     0.129 A 
ENDROOT
BRANCH   1  24
HETATM   24  C2  UNL     1     -18.920  32.975  -2.279  1.00  0.00     0.036 C 
HETATM   25  C1  UNL     1     -17.678  33.006  -3.141  1.00  0.00     0.038 C 
HETATM   26  C3  UNL     1     -18.707  34.082  -1.276  1.00  0.00     0.038 C 
HETATM   27  C4  UNL     1     -18.727  31.695  -1.416  1.00  0.00     0.038 C 
ENDBRANCH   1  24
TORSDOF 1
ENDMDL
MODEL 2
REMARK VINA RESULT: -7.356916252      2.502      4.912
REMARK  1 active torsions:
REMARK  status: ('A' for Active; 'I' for Inactive)
REMARK    1  A    between atoms: C2_2  and  N1_5 
REMARK       I    between atoms: N1_5  and  C5_7 
REMARK       I    between atoms: C5_7  and  N3_11 
ROOT
HETATM    1  N1  UNL     1     -23.928  34.628  -2.415  1.00  0.00    -0.218 N 
ATOM      2  H1  UNL     1     -23.742  35.571  -2.754  1.00  0.00     0.178 HD
HETATM    3  C5  UNL     1     -23.358  33.639  -3.236  1.00  0.00     0.680 C 
HETATM    4  N2  UNL     1     -23.829  32.511  -3.115  1.00  0.00    -0.234 N 
ATOM      5  H21 UNL     1     -23.416  31.793  -3.710  1.00  0.00     0.174 HD
ATOM      6  H22 UNL     1     -24.623  32.303  -2.509  1.00  0.00     0.174 HD
HETATM    7  N3  UNL     1     -22.250  33.928  -4.082  1.00  0.00    -0.141 N 
HETATM    8  C6  UNL     1     -20.923  33.749  -3.487  1.00  0.00     0.074 A 
HETATM    9  C7  UNL     1     -20.930  33.245  -2.185  1.00  0.00     0.032 A 
HETATM   10  C8  UNL     1     -19.714  33.023  -1.552  1.00  0.00     0.002 A 
HETATM   11  C9  UNL     1     -18.512  33.285  -2.169  1.00  0.00     0.002 A 
HETATM   12  C10 UNL     1     -18.538  33.783  -3.456  1.00  0.00     0.021 A 
HETATM   13  C11 UNL     1     -19.744  34.000  -4.075  1.00  0.00     0.035 A 
HETATM   14  S1  UNL     1     -19.676  34.641  -5.713  1.00  0.00    -0.068 SA
HETATM   15  C12 UNL     1     -21.373  34.746  -6.246  1.00  0.00     0.107 A 
HETATM   16  N4  UNL     1     -21.629  35.166  -7.484  1.00  0.00    -0.345 N 
ATOM     17  H4  UNL     1     -20.836  35.408  -8.078  1.00  0.00     0.167 HD
HETATM   18  C13 UNL     1     -22.843  35.291  -7.997  1.00  0.00     0.182 A 
HETATM   19  N5  UNL     1     -23.886  34.979  -7.240  1.00  0.00    -0.341 N 
ATOM     20  H5  UNL     1     -24.829  35.069  -7.617  1.00  0.00     0.167 HD
HETATM   21  C14 UNL     1     -23.711  34.543  -5.970  1.00  0.00     0.135 A 
HETATM   22 CL1  UNL     1     -25.161  34.132  -5.073  1.00  0.00    -0.062 Cl
HETATM   23  C15 UNL     1     -22.457  34.406  -5.410  1.00  0.00     0.129 A 
ENDROOT
BRANCH   1  24
HETATM   24  C2  UNL     1     -24.693  34.623  -1.239  1.00  0.00     0.036 C 
HETATM   25  C1  UNL     1     -25.995  35.393  -1.248  1.00  0.00     0.038 C 
HETATM   26  C3  UNL     1     -25.047  33.299  -0.604  1.00  0.00     0.038 C 
HETATM   27  C4  UNL     1     -23.868  35.323  -0.122  1.00  0.00     0.038 C 
ENDBRANCH   1  24
TORSDOF 1
ENDMDL
MODEL 3
REMARK VINA RESULT: -7.263139979      2.579      5.080
REMARK  1 active torsions:
REMARK  status: ('A' for Active; 'I' for Inactive)
REMARK    1  A    between atoms: C2_2  and  N1_5 
REMARK       I    between atoms: N1_5  and  C5_7 
REMARK       I    between atoms: C5_7  and  N3_11 
ROOT
HETATM    1  N1  UNL     1     -23.671  34.259  -4.142  1.00  0.00    -0.218 N 
ATOM      2  H1  UNL     1     -23.405  35.156  -4.548  1.00  0.00     0.178 HD
HETATM    3  C5  UNL     1     -22.807  33.218  -4.526  1.00  0.00     0.680 C 
HETATM    4  N2  UNL     1     -23.252  32.080  -4.389  1.00  0.00    -0.234 N 
ATOM      5  H21 UNL     1     -22.626  31.325  -4.668  1.00  0.00     0.174 HD
ATOM      6  H22 UNL     1     -24.205  31.891  -4.078  1.00  0.00     0.174 HD
HETATM    7  N3  UNL     1     -21.477  33.482  -4.961  1.00  0.00    -0.141 N 
HETATM    8  C6  UNL     1     -20.454  33.516  -3.913  1.00  0.00     0.074 A 
HETATM    9  C7  UNL     1     -20.919  33.210  -2.632  1.00  0.00     0.032 A 
HETATM   10  C8  UNL     1     -20.011  33.198  -1.581  1.00  0.00     0.002 A 
HETATM   11  C9  UNL     1     -18.675  33.477  -1.767  1.00  0.00     0.002 A 
HETATM   12  C10 UNL     1     -18.247  33.776  -3.045  1.00  0.00     0.021 A 
HETATM   13  C11 UNL     1     -19.150  33.786  -4.078  1.00  0.00     0.035 A 
HETATM   14  S1  UNL     1     -18.511  34.185  -5.669  1.00  0.00    -0.068 SA
HETATM   15  C12 UNL     1     -19.899  34.052  -6.779  1.00  0.00     0.107 A 
HETATM   16  N4  UNL     1     -19.700  34.260  -8.079  1.00  0.00    -0.345 N 
ATOM     17  H4  UNL     1     -18.753  34.485  -8.385  1.00  0.00     0.167 HD
HETATM   18  C13 UNL     1     -20.646  34.195  -9.003  1.00  0.00     0.182 A 
HETATM   19  N5  UNL     1     -21.882  33.902  -8.623  1.00  0.00    -0.341 N 
ATOM     20  H5  UNL     1     -22.625  33.847  -9.319  1.00  0.00     0.167 HD
HETATM   21  C14 UNL     1     -22.169  33.675  -7.319  1.00  0.00     0.135 A 
HETATM   22 CL1  UNL     1     -23.831  33.266  -6.938  1.00  0.00    -0.062 Cl
HETATM   23  C15 UNL     1     -21.201  33.738  -6.337  1.00  0.00     0.129 A 
ENDROOT
BRANCH   1  24
HETATM   24  C2  UNL     1     -24.812  34.355  -3.331  1.00  0.00     0.036 C 
HETATM   25  C1  UNL     1     -26.114  33.826  -3.890  1.00  0.00     0.038 C 
HETATM   26  C3  UNL     1     -24.757  33.804  -1.926  1.00  0.00     0.038 C 
HETATM   27  C4  UNL     1     -25.109  35.863  -3.090  1.00  0.00     0.038 C 
ENDBRANCH   1  24
TORSDOF 1
ENDMDL
MODEL 4
REMARK VINA RESULT: -6.957444361      2.494      5.154
REMARK  1 active torsions:
REMARK  status: ('A' for Active; 'I' for Inactive)
REMARK    1  A    between atoms: C2_2  and  N1_5 
REMARK       I    between atoms: N1_5  and  C5_7 
REMARK       I    between atoms: C5_7  and  N3_11 
ROOT
HETATM    1  N1  UNL     1     -23.296  33.810  -2.549  1.00  0.00    -0.218 N 
ATOM      2  H1  UNL     1     -23.206  32.811  -2.733  1.00  0.00     0.178 HD
HETATM    3  C5  UNL     1     -22.352  34.574  -3.260  1.00  0.00     0.680 C 
HETATM    4  N2  UNL     1     -22.153  35.707  -2.829  1.00  0.00    -0.234 N 
ATOM      5  H21 UNL     1     -21.469  36.262  -3.344  1.00  0.00     0.174 HD
ATOM      6  H22 UNL     1     -22.589  36.062  -1.977  1.00  0.00     0.174 HD
HETATM    7  N3  UNL     1     -21.744  34.080  -4.448  1.00  0.00    -0.141 N 
HETATM    8  C6  UNL     1     -22.449  34.370  -5.699  1.00  0.00     0.074 A 
HETATM    9  C7  UNL     1     -23.591  35.161  -5.557  1.00  0.00     0.032 A 
HETATM   10  C8  UNL     1     -24.310  35.502  -6.695  1.00  0.00     0.002 A 
HETATM   11  C9  UNL     1     -23.928  35.086  -7.951  1.00  0.00     0.002 A 
HETATM   12  C10 UNL     1     -22.795  34.305  -8.059  1.00  0.00     0.021 A 
HETATM   13  C11 UNL     1     -22.090  33.971  -6.929  1.00  0.00     0.035 A 
HETATM   14  S1  UNL     1     -20.664  32.968  -7.167  1.00  0.00    -0.068 SA
HETATM   15  C12 UNL     1     -19.954  32.771  -5.545  1.00  0.00     0.107 A 
HETATM   16  N4  UNL     1     -18.820  32.081  -5.423  1.00  0.00    -0.345 N 
ATOM     17  H4  UNL     1     -18.404  31.696  -6.271  1.00  0.00     0.167 HD
HETATM   18  C13 UNL     1     -18.197  31.861  -4.276  1.00  0.00     0.182 A 
HETATM   19  N5  UNL     1     -18.723  32.355  -3.164  1.00  0.00    -0.341 N 
ATOM     20  H5  UNL     1     -18.257  32.196  -2.271  1.00  0.00     0.167 HD
HETATM   21  C14 UNL     1     -19.872  33.069  -3.202  1.00  0.00     0.135 A 
HETATM   22 CL1  UNL     1     -20.458  33.700  -1.674  1.00  0.00    -0.062 Cl
HETATM   23  C15 UNL     1     -20.543  33.312  -4.383  1.00  0.00     0.129 A 
ENDROOT
BRANCH   1  24
HETATM   24  C2  UNL     1     -24.331  34.099  -1.647  1.00  0.00     0.036 C 
HETATM   25  C1  UNL     1     -23.976  34.885  -0.404  1.00  0.00     0.038 C 
HETATM   26  C3  UNL     1     -25.585  34.762  -2.164  1.00  0.00     0.038 C 
HETATM   27  C4  UNL     1     -24.869  32.754  -1.082  1.00  0.00     0.038 C 
ENDBRANCH   1  24
TORSDOF 1
ENDMDL
MODEL 5
REMARK VINA RESULT: -6.957020850      3.263      5.552
REMARK  1 active torsions:
REMARK  status: ('A' for Active; 'I' for Inactive)
REMARK    1  A    between atoms: C2_2  and  N1_5 
REMARK       I    between atoms: N1_5  and  C5_7 
REMARK       I    between atoms: C5_7  and  N3_11 
ROOT
HETATM    1  N1  UNL     1     -22.435  34.304  -3.907  1.00  0.00    -0.218 N 
ATOM      2  H1  UNL     1     -22.204  35.294  -3.974  1.00  0.00     0.178 HD
HETATM    3  C5  UNL     1     -21.989  33.570  -5.021  1.00  0.00     0.680 C 
HETATM    4  N2  UNL     1     -22.530  32.481  -5.192  1.00  0.00    -0.234 N 
ATOM      5  H21 UNL     1     -22.206  31.949  -6.000  1.00  0.00     0.174 HD
ATOM      6  H22 UNL     1     -23.297  32.145  -4.609  1.00  0.00     0.174 HD
HETATM    7  N3  UNL     1     -20.918  34.039  -5.834  1.00  0.00    -0.141 N 
HETATM    8  C6  UNL     1     -19.572  33.629  -5.424  1.00  0.00     0.074 A 
HETATM    9  C7  UNL     1     -19.534  32.767  -4.325  1.00  0.00     0.032 A 
HETATM   10  C8  UNL     1     -18.299  32.310  -3.882  1.00  0.00     0.002 A 
HETATM   11  C9  UNL     1     -17.122  32.681  -4.492  1.00  0.00     0.002 A 
HETATM   12  C10 UNL     1     -17.194  33.534  -5.575  1.00  0.00     0.021 A 
HETATM   13  C11 UNL     1     -18.417  33.981  -6.007  1.00  0.00     0.035 A 
HETATM   14  S1  UNL     1     -18.406  35.069  -7.391  1.00  0.00    -0.068 SA
HETATM   15  C12 UNL     1     -20.121  35.409  -7.734  1.00  0.00     0.107 A 
HETATM   16  N4  UNL     1     -20.424  36.184  -8.774  1.00  0.00    -0.345 N 
ATOM     17  H4  UNL     1     -19.654  36.549  -9.335  1.00  0.00     0.167 HD
HETATM   18  C13 UNL     1     -21.655  36.514  -9.131  1.00  0.00     0.182 A 
HETATM   19  N5  UNL     1     -22.668  36.046  -8.414  1.00  0.00    -0.341 N 
ATOM     20  H5  UNL     1     -23.624  36.289  -8.673  1.00  0.00     0.167 HD
HETATM   21  C14 UNL     1     -22.446  35.250  -7.342  1.00  0.00     0.135 A 
HETATM   22 CL1  UNL     1     -23.863  34.667  -6.488  1.00  0.00    -0.062 Cl
HETATM   23  C15 UNL     1     -21.173  34.893  -6.948  1.00  0.00     0.129 A 
ENDROOT
BRANCH   1  24
HETATM   24  C2  UNL     1     -23.124  33.993  -2.725  1.00  0.00     0.036 C 
HETATM   25  C1  UNL     1     -23.945  35.091  -2.085  1.00  0.00     0.038 C 
HETATM   26  C3  UNL     1     -24.032  32.787  -2.704  1.00  0.00     0.038 C 
HETATM   27  C4  UNL     1     -22.075  33.645  -1.631  1.00  0.00     0.038 C 
ENDBRANCH   1  24
TORSDOF 1
ENDMDL
