MODEL 1
REMARK VINA RESULT: -6.741738045      0.000      0.000
REMARK  7 active torsions:
REMARK  status: ('A' for Active; 'I' for Inactive)
REMARK    1  A    between atoms: C2_2  and  N1_3 
REMARK       I    between atoms: C3_5  and  N3_7 
REMARK    2  A    between atoms: N3_7  and  C4_9 
REMARK    3  A    between atoms: N5_15  and  C8_17 
REMARK    4  A    between atoms: C8_17  and  C9_18 
REMARK    5  A    between atoms: C9_18  and  C10_19 
REMARK    6  A    between atoms: C10_19  and  C11_20 
REMARK    7  A    between atoms: C11_20  and  N6_21 
ROOT
HETATM    1  C4  UNL     1      -7.372  37.992  17.079  1.00  0.00     0.685 A 
HETATM    2  N4  UNL     1      -7.626  37.549  18.317  1.00  0.00    -0.189 N 
ATOM      3  H4  UNL     1      -7.438  36.608  18.663  1.00  0.00     0.184 HD
HETATM    4  C5  UNL     1      -8.171  38.549  19.028  1.00  0.00     0.082 A 
HETATM    5  C6  UNL     1      -8.632  38.695  20.330  1.00  0.00     0.080 A 
HETATM    6  C7  UNL     1      -9.155  39.891  20.775  1.00  0.00     0.103 A 
HETATM    7  N5  UNL     1      -9.561  39.946  21.998  1.00  0.00    -0.376 N 
ATOM      8  H5  UNL     1      -9.502  39.141  22.621  1.00  0.00     0.161 HD
HETATM    9  N7  UNL     1      -9.213  40.927  19.925  1.00  0.00    -0.344 N 
ATOM     10  H7  UNL     1      -9.600  41.809  20.261  1.00  0.00     0.167 HD
HETATM   11  C18 UNL     1      -8.788  40.864  18.654  1.00  0.00     0.036 A 
HETATM   12  C19 UNL     1      -8.864  42.030  17.727  1.00  0.00     0.070 C 
HETATM   13  C20 UNL     1      -8.264  39.671  18.198  1.00  0.00     0.098 A 
HETATM   14  N8  UNL     1      -7.764  39.292  17.007  1.00  0.00    -0.187 N 
ATOM     15  H8  UNL     1      -7.691  39.886  16.181  1.00  0.00     0.184 HD
ENDROOT
BRANCH   7  16
HETATM   16  C8  UNL     1     -10.109  41.223  22.443  1.00  0.00     0.121 C 
BRANCH  16  17
HETATM   17  C9  UNL     1     -11.508  41.005  23.035  1.00  0.00     0.021 C 
BRANCH  17  18
HETATM   18  C10 UNL     1     -12.501  41.129  21.918  1.00  0.00     0.029 C 
BRANCH  18  19
HETATM   19  C11 UNL     1     -13.194  39.868  21.562  1.00  0.00     0.237 C 
BRANCH  19  20
HETATM   20  N6  UNL     1     -13.578  39.708  20.210  1.00  0.00    -0.071 N 
HETATM   21  C12 UNL     1     -14.920  40.192  19.955  1.00  0.00     0.272 C 
HETATM   22  C13 UNL     1     -12.686  40.563  19.405  1.00  0.00     0.237 C 
HETATM   23  C14 UNL     1     -12.708  40.181  17.955  1.00  0.00     0.028 C 
HETATM   24  C15 UNL     1     -11.851  38.931  17.806  1.00  0.00     0.003 C 
HETATM   25  C16 UNL     1     -12.025  38.149  19.104  1.00  0.00     0.028 C 
HETATM   26  C17 UNL     1     -13.427  38.376  19.684  1.00  0.00     0.237 C 
ENDBRANCH  19  20
ENDBRANCH  18  19
ENDBRANCH  17  18
ENDBRANCH  16  17
ENDBRANCH   7  16
BRANCH   1  27
HETATM   27  N3  UNL     1      -6.843  37.306  16.104  1.00  0.00    -0.163 N 
HETATM   28  C3  UNL     1      -5.853  37.903  15.285  1.00  0.00     0.202 C 
HETATM   29  N1  UNL     1      -4.601  37.533  15.380  1.00  0.00    -0.364 N 
HETATM   30  N2  UNL     1      -6.222  38.901  14.363  1.00  0.00    -0.063 NA
ATOM     31  H1  UNL     1      -3.902  37.973  14.782  1.00  0.00     0.162 HD
ATOM     32  H3  UNL     1      -7.140  36.345  15.933  1.00  0.00     0.187 HD
BRANCH  29  33
HETATM   33  C2  UNL     1      -4.193  36.511  16.318  1.00  0.00     0.118 C 
HETATM   34  C1  UNL     1      -3.893  35.261  15.509  1.00  0.00     0.026 C 
ENDBRANCH  29  33
ENDBRANCH   1  27
TORSDOF 7
ENDMDL
MODEL 2
REMARK VINA RESULT: -6.493428955      0.621      1.117
REMARK  7 active torsions:
REMARK  status: ('A' for Active; 'I' for Inactive)
REMARK    1  A    between atoms: C2_2  and  N1_3 
REMARK       I    between atoms: C3_5  and  N3_7 
REMARK    2  A    between atoms: N3_7  and  C4_9 
REMARK    3  A    between atoms: N5_15  and  C8_17 
REMARK    4  A    between atoms: C8_17  and  C9_18 
REMARK    5  A    between atoms: C9_18  and  C10_19 
REMARK    6  A    between atoms: C10_19  and  C11_20 
REMARK    7  A    between atoms: C11_20  and  N6_21 
ROOT
HETATM    1  C4  UNL     1      -7.293  37.939  17.018  1.00  0.00     0.685 A 
HETATM    2  N4  UNL     1      -7.542  37.503  18.259  1.00  0.00    -0.189 N 
ATOM      3  H4  UNL     1      -7.339  36.568  18.614  1.00  0.00     0.184 HD
HETATM    4  C5  UNL     1      -8.105  38.500  18.960  1.00  0.00     0.082 A 
HETATM    5  C6  UNL     1      -8.571  38.650  20.261  1.00  0.00     0.080 A 
HETATM    6  C7  UNL     1      -9.115  39.841  20.694  1.00  0.00     0.103 A 
HETATM    7  N5  UNL     1      -9.525  39.900  21.915  1.00  0.00    -0.376 N 
ATOM      8  H5  UNL     1      -9.454  39.101  22.545  1.00  0.00     0.161 HD
HETATM    9  N7  UNL     1      -9.189  40.868  19.834  1.00  0.00    -0.344 N 
ATOM     10  H7  UNL     1      -9.591  41.746  20.162  1.00  0.00     0.167 HD
HETATM   11  C18 UNL     1      -8.760  40.801  18.564  1.00  0.00     0.036 A 
HETATM   12  C19 UNL     1      -8.854  41.957  17.627  1.00  0.00     0.070 C 
HETATM   13  C20 UNL     1      -8.215  39.613  18.121  1.00  0.00     0.098 A 
HETATM   14  N8  UNL     1      -7.706  39.232  16.934  1.00  0.00    -0.187 N 
ATOM     15  H8  UNL     1      -7.642  39.820  16.103  1.00  0.00     0.184 HD
ENDROOT
BRANCH   7  16
HETATM   16  C8  UNL     1     -10.095  41.171  22.348  1.00  0.00     0.121 C 
BRANCH  16  17
HETATM   17  C9  UNL     1     -11.549  40.960  22.789  1.00  0.00     0.021 C 
BRANCH  17  18
HETATM   18  C10 UNL     1     -12.408  40.993  21.560  1.00  0.00     0.029 C 
BRANCH  18  19
HETATM   19  C11 UNL     1     -12.980  39.682  21.169  1.00  0.00     0.237 C 
BRANCH  19  20
HETATM   20  N6  UNL     1     -13.113  39.430  19.783  1.00  0.00    -0.071 N 
HETATM   21  C12 UNL     1     -12.715  40.566  18.975  1.00  0.00     0.272 C 
HETATM   22  C13 UNL     1     -12.167  38.350  19.449  1.00  0.00     0.237 C 
HETATM   23  C14 UNL     1     -12.491  37.714  18.130  1.00  0.00     0.028 C 
HETATM   24  C15 UNL     1     -13.671  36.779  18.360  1.00  0.00     0.003 C 
HETATM   25  C16 UNL     1     -14.514  37.433  19.451  1.00  0.00     0.028 C 
HETATM   26  C17 UNL     1     -14.409  38.961  19.367  1.00  0.00     0.237 C 
ENDBRANCH  19  20
ENDBRANCH  18  19
ENDBRANCH  17  18
ENDBRANCH  16  17
ENDBRANCH   7  16
BRANCH   1  27
HETATM   27  N3  UNL     1      -6.750  37.254  16.050  1.00  0.00    -0.163 N 
HETATM   28  C3  UNL     1      -5.761  37.857  15.235  1.00  0.00     0.202 C 
HETATM   29  N1  UNL     1      -4.506  37.501  15.339  1.00  0.00    -0.364 N 
HETATM   30  N2  UNL     1      -6.134  38.846  14.304  1.00  0.00    -0.063 NA
ATOM     31  H1  UNL     1      -3.807  37.944  14.744  1.00  0.00     0.162 HD
ATOM     32  H3  UNL     1      -7.036  36.289  15.883  1.00  0.00     0.187 HD
BRANCH  29  33
HETATM   33  C2  UNL     1      -4.094  36.488  16.286  1.00  0.00     0.118 C 
HETATM   34  C1  UNL     1      -3.694  35.264  15.480  1.00  0.00     0.026 C 
ENDBRANCH  29  33
ENDBRANCH   1  27
TORSDOF 7
ENDMDL
MODEL 3
REMARK VINA RESULT: -6.448729224      1.621      2.525
REMARK  7 active torsions:
REMARK  status: ('A' for Active; 'I' for Inactive)
REMARK    1  A    between atoms: C2_2  and  N1_3 
REMARK       I    between atoms: C3_5  and  N3_7 
REMARK    2  A    between atoms: N3_7  and  C4_9 
REMARK    3  A    between atoms: N5_15  and  C8_17 
REMARK    4  A    between atoms: C8_17  and  C9_18 
REMARK    5  A    between atoms: C9_18  and  C10_19 
REMARK    6  A    between atoms: C10_19  and  C11_20 
REMARK    7  A    between atoms: C11_20  and  N6_21 
ROOT
HETATM    1  C4  UNL     1      -7.095  38.098  16.519  1.00  0.00     0.685 A 
HETATM    2  N4  UNL     1      -7.363  39.378  16.232  1.00  0.00    -0.189 N 
ATOM      3  H4  UNL     1      -7.122  39.856  15.364  1.00  0.00     0.184 HD
HETATM    4  C5  UNL     1      -8.002  39.928  17.277  1.00  0.00     0.082 A 
HETATM    5  C6  UNL     1      -8.521  41.184  17.565  1.00  0.00     0.080 A 
HETATM    6  C7  UNL     1      -9.140  41.445  18.769  1.00  0.00     0.103 A 
HETATM    7  N5  UNL     1      -9.596  42.636  18.960  1.00  0.00    -0.376 N 
ATOM      8  H5  UNL     1      -9.506  43.366  18.252  1.00  0.00     0.161 HD
HETATM    9  N7  UNL     1      -9.238  40.457  19.672  1.00  0.00    -0.344 N 
ATOM     10  H7  UNL     1      -9.698  40.658  20.560  1.00  0.00     0.167 HD
HETATM   11  C18 UNL     1      -8.762  39.220  19.468  1.00  0.00     0.036 A 
HETATM   12  C19 UNL     1      -8.883  38.139  20.488  1.00  0.00     0.070 C 
HETATM   13  C20 UNL     1      -8.140  38.949  18.266  1.00  0.00     0.098 A 
HETATM   14  N8  UNL     1      -7.571  37.836  17.766  1.00  0.00    -0.187 N 
ATOM     15  H8  UNL     1      -7.506  36.939  18.246  1.00  0.00     0.184 HD
ENDROOT
BRANCH   7  16
HETATM   16  C8  UNL     1     -10.246  42.885  20.242  1.00  0.00     0.121 C 
BRANCH  16  17
HETATM   17  C9  UNL     1     -11.767  42.757  20.081  1.00  0.00     0.021 C 
BRANCH  17  18
HETATM   18  C10 UNL     1     -12.087  42.917  18.625  1.00  0.00     0.029 C 
BRANCH  18  19
HETATM   19  C11 UNL     1     -13.475  42.553  18.253  1.00  0.00     0.237 C 
BRANCH  19  20
HETATM   20  N6  UNL     1     -13.643  41.386  17.470  1.00  0.00    -0.071 N 
HETATM   21  C12 UNL     1     -14.611  41.569  16.407  1.00  0.00     0.272 C 
HETATM   22  C13 UNL     1     -12.356  41.129  16.799  1.00  0.00     0.237 C 
HETATM   23  C14 UNL     1     -12.270  39.725  16.279  1.00  0.00     0.028 C 
HETATM   24  C15 UNL     1     -11.973  38.822  17.468  1.00  0.00     0.003 C 
HETATM   25  C16 UNL     1     -12.674  39.462  18.662  1.00  0.00     0.028 C 
HETATM   26  C17 UNL     1     -13.947  40.189  18.212  1.00  0.00     0.237 C 
ENDBRANCH  19  20
ENDBRANCH  18  19
ENDBRANCH  17  18
ENDBRANCH  16  17
ENDBRANCH   7  16
BRANCH   1  27
HETATM   27  N3  UNL     1      -6.485  37.243  15.747  1.00  0.00    -0.163 N 
HETATM   28  C3  UNL     1      -5.322  37.641  15.043  1.00  0.00     0.202 C 
HETATM   29  N1  UNL     1      -4.143  37.197  15.400  1.00  0.00    -0.364 N 
HETATM   30  N2  UNL     1      -5.437  38.523  13.950  1.00  0.00    -0.063 NA
ATOM     31  H1  UNL     1      -3.317  37.493  14.882  1.00  0.00     0.162 HD
ATOM     32  H3  UNL     1      -6.842  36.292  15.652  1.00  0.00     0.187 HD
BRANCH  29  33
HETATM   33  C2  UNL     1      -3.994  36.291  16.518  1.00  0.00     0.118 C 
HETATM   34  C1  UNL     1      -2.919  35.288  16.136  1.00  0.00     0.026 C 
ENDBRANCH  29  33
ENDBRANCH   1  27
TORSDOF 7
ENDMDL
MODEL 4
REMARK VINA RESULT: -6.443077483      1.601      2.463
REMARK  7 active torsions:
REMARK  status: ('A' for Active; 'I' for Inactive)
REMARK    1  A    between atoms: C2_2  and  N1_3 
REMARK       I    between atoms: C3_5  and  N3_7 
REMARK    2  A    between atoms: N3_7  and  C4_9 
REMARK    3  A    between atoms: N5_15  and  C8_17 
REMARK    4  A    between atoms: C8_17  and  C9_18 
REMARK    5  A    between atoms: C9_18  and  C10_19 
REMARK    6  A    between atoms: C10_19  and  C11_20 
REMARK    7  A    between atoms: C11_20  and  N6_21 
ROOT
HETATM    1  C4  UNL     1      -7.179  38.062  16.773  1.00  0.00     0.685 A 
HETATM    2  N4  UNL     1      -7.431  39.363  16.577  1.00  0.00    -0.189 N 
ATOM      3  H4  UNL     1      -7.217  39.890  15.730  1.00  0.00     0.184 HD
HETATM    4  C5  UNL     1      -8.013  39.858  17.681  1.00  0.00     0.082 A 
HETATM    5  C6  UNL     1      -8.492  41.104  18.068  1.00  0.00     0.080 A 
HETATM    6  C7  UNL     1      -9.053  41.301  19.312  1.00  0.00     0.103 A 
HETATM    7  N5  UNL     1      -9.475  42.486  19.595  1.00  0.00    -0.376 N 
ATOM      8  H5  UNL     1      -9.400  43.256  18.931  1.00  0.00     0.161 HD
HETATM    9  N7  UNL     1      -9.134  40.261  20.156  1.00  0.00    -0.344 N 
ATOM     10  H7  UNL     1      -9.552  40.414  21.074  1.00  0.00     0.167 HD
HETATM   11  C18 UNL     1      -8.694  39.029  19.856  1.00  0.00     0.036 A 
HETATM   12  C19 UNL     1      -8.795  37.889  20.811  1.00  0.00     0.070 C 
HETATM   13  C20 UNL     1      -8.130  38.822  18.613  1.00  0.00     0.098 A 
HETATM   14  N8  UNL     1      -7.606  37.732  18.021  1.00  0.00    -0.187 N 
ATOM     15  H8  UNL     1      -7.541  36.806  18.442  1.00  0.00     0.184 HD
ENDROOT
BRANCH   7  16
HETATM   16  C8  UNL     1     -10.065  42.666  20.917  1.00  0.00     0.121 C 
BRANCH  16  17
HETATM   17  C9  UNL     1     -11.467  43.274  20.778  1.00  0.00     0.021 C 
BRANCH  17  18
HETATM   18  C10 UNL     1     -12.337  42.261  20.097  1.00  0.00     0.029 C 
BRANCH  18  19
HETATM   19  C11 UNL     1     -12.941  42.718  18.822  1.00  0.00     0.237 C 
BRANCH  19  20
HETATM   20  N6  UNL     1     -13.521  41.727  17.997  1.00  0.00    -0.071 N 
HETATM   21  C12 UNL     1     -14.901  41.453  18.349  1.00  0.00     0.272 C 
HETATM   22  C13 UNL     1     -13.558  42.273  16.629  1.00  0.00     0.237 C 
HETATM   23  C14 UNL     1     -13.761  41.196  15.604  1.00  0.00     0.028 C 
HETATM   24  C15 UNL     1     -12.424  40.492  15.421  1.00  0.00     0.003 C 
HETATM   25  C16 UNL     1     -11.740  40.534  16.784  1.00  0.00     0.028 C 
HETATM   26  C17 UNL     1     -12.782  40.493  17.909  1.00  0.00     0.237 C 
ENDBRANCH  19  20
ENDBRANCH  18  19
ENDBRANCH  17  18
ENDBRANCH  16  17
ENDBRANCH   7  16
BRANCH   1  27
HETATM   27  N3  UNL     1      -6.620  37.245  15.924  1.00  0.00    -0.163 N 
HETATM   28  C3  UNL     1      -5.563  37.706  15.101  1.00  0.00     0.202 C 
HETATM   29  N1  UNL     1      -4.333  37.314  15.318  1.00  0.00    -0.364 N 
HETATM   30  N2  UNL     1      -5.839  38.594  14.043  1.00  0.00    -0.063 NA
ATOM     31  H1  UNL     1      -3.584  37.655  14.716  1.00  0.00     0.162 HD
ATOM     32  H3  UNL     1      -6.943  36.280  15.853  1.00  0.00     0.187 HD
BRANCH  29  33
HETATM   33  C2  UNL     1      -4.019  36.403  16.397  1.00  0.00     0.118 C 
HETATM   34  C1  UNL     1      -3.173  35.289  15.805  1.00  0.00     0.026 C 
ENDBRANCH  29  33
ENDBRANCH   1  27
TORSDOF 7
ENDMDL
MODEL 5
REMARK VINA RESULT: -6.441665695      0.799      1.386
REMARK  7 active torsions:
REMARK  status: ('A' for Active; 'I' for Inactive)
REMARK    1  A    between atoms: C2_2  and  N1_3 
REMARK       I    between atoms: C3_5  and  N3_7 
REMARK    2  A    between atoms: N3_7  and  C4_9 
REMARK    3  A    between atoms: N5_15  and  C8_17 
REMARK    4  A    between atoms: C8_17  and  C9_18 
REMARK    5  A    between atoms: C9_18  and  C10_19 
REMARK    6  A    between atoms: C10_19  and  C11_20 
REMARK    7  A    between atoms: C11_20  and  N6_21 
ROOT
HETATM    1  C4  UNL     1      -7.275  37.955  16.917  1.00  0.00     0.685 A 
HETATM    2  N4  UNL     1      -7.608  37.457  18.115  1.00  0.00    -0.189 N 
ATOM      3  H4  UNL     1      -7.450  36.498  18.426  1.00  0.00     0.184 HD
HETATM    4  C5  UNL     1      -8.184  38.429  18.839  1.00  0.00     0.082 A 
HETATM    5  C6  UNL     1      -8.722  38.520  20.117  1.00  0.00     0.080 A 
HETATM    6  C7  UNL     1      -9.259  39.700  20.587  1.00  0.00     0.103 A 
HETATM    7  N5  UNL     1      -9.739  39.702  21.783  1.00  0.00    -0.376 N 
ATOM      8  H5  UNL     1      -9.726  38.867  22.369  1.00  0.00     0.161 HD
HETATM    9  N7  UNL     1      -9.255  40.776  19.784  1.00  0.00    -0.344 N 
ATOM     10  H7  UNL     1      -9.654  41.645  20.139  1.00  0.00     0.167 HD
HETATM   11  C18 UNL     1      -8.755  40.767  18.540  1.00  0.00     0.036 A 
HETATM   12  C19 UNL     1      -8.763  41.976  17.667  1.00  0.00     0.070 C 
HETATM   13  C20 UNL     1      -8.216  39.591  18.060  1.00  0.00     0.098 A 
HETATM   14  N8  UNL     1      -7.648  39.262  16.884  1.00  0.00    -0.187 N 
ATOM     15  H8  UNL     1      -7.520  39.893  16.094  1.00  0.00     0.184 HD
ENDROOT
BRANCH   7  16
HETATM   16  C8  UNL     1     -10.300  40.963  22.255  1.00  0.00     0.121 C 
BRANCH  16  17
HETATM   17  C9  UNL     1     -11.818  40.820  22.426  1.00  0.00     0.021 C 
BRANCH  17  18
HETATM   18  C10 UNL     1     -12.467  41.293  21.160  1.00  0.00     0.029 C 
BRANCH  18  19
HETATM   19  C11 UNL     1     -13.483  40.369  20.602  1.00  0.00     0.237 C 
BRANCH  19  20
HETATM   20  N6  UNL     1     -13.176  39.749  19.368  1.00  0.00    -0.071 N 
HETATM   21  C12 UNL     1     -12.472  38.494  19.541  1.00  0.00     0.272 C 
HETATM   22  C13 UNL     1     -14.459  39.404  18.728  1.00  0.00     0.237 C 
HETATM   23  C14 UNL     1     -14.294  39.124  17.264  1.00  0.00     0.028 C 
HETATM   24  C15 UNL     1     -14.162  40.469  16.562  1.00  0.00     0.003 C 
HETATM   25  C16 UNL     1     -13.444  41.386  17.547  1.00  0.00     0.028 C 
HETATM   26  C17 UNL     1     -12.476  40.580  18.422  1.00  0.00     0.237 C 
ENDBRANCH  19  20
ENDBRANCH  18  19
ENDBRANCH  17  18
ENDBRANCH  16  17
ENDBRANCH   7  16
BRANCH   1  27
HETATM   27  N3  UNL     1      -6.694  37.309  15.944  1.00  0.00    -0.163 N 
HETATM   28  C3  UNL     1      -5.674  37.944  15.194  1.00  0.00     0.202 C 
HETATM   29  N1  UNL     1      -4.424  37.582  15.333  1.00  0.00    -0.364 N 
HETATM   30  N2  UNL     1      -6.010  38.972  14.291  1.00  0.00    -0.063 NA
ATOM     31  H1  UNL     1      -3.702  38.049  14.784  1.00  0.00     0.162 HD
ATOM     32  H3  UNL     1      -6.973  36.352  15.726  1.00  0.00     0.187 HD
BRANCH  29  33
HETATM   33  C2  UNL     1      -4.049  36.530  16.252  1.00  0.00     0.118 C 
HETATM   34  C1  UNL     1      -3.740  35.300  15.417  1.00  0.00     0.026 C 
ENDBRANCH  29  33
ENDBRANCH   1  27
TORSDOF 7
ENDMDL
