MODEL 1
REMARK VINA RESULT: -6.194532115      0.000      0.000
REMARK  6 active torsions:
REMARK  status: ('A' for Active; 'I' for Inactive)
REMARK    1  A    between atoms: C2_2  and  N1_3 
REMARK    2  A    between atoms: N1_3  and  N2_4 
REMARK    3  A    between atoms: N2_4  and  N3_6 
REMARK    4  A    between atoms: N3_6  and  C3_8 
REMARK    5  A    between atoms: C7_21  and  N8_22 
REMARK    6  A    between atoms: N8_22  and  N9_24 
ROOT
HETATM    1  C3  UNL     1     -14.979  -7.314  -6.226  1.00  0.00     0.139 A 
HETATM    2  N4  UNL     1     -14.336  -6.135  -6.141  1.00  0.00    -0.337 N 
ATOM      3  H4  UNL     1     -14.906  -5.290  -6.120  1.00  0.00     0.168 HD
HETATM    4  C4  UNL     1     -13.014  -5.987  -6.084  1.00  0.00     0.183 A 
HETATM    5  N5  UNL     1     -12.237  -7.083  -6.110  1.00  0.00    -0.338 N 
ATOM      6  H5  UNL     1     -11.222  -6.994  -6.067  1.00  0.00     0.168 HD
HETATM    7  C5  UNL     1     -12.801  -8.282  -6.193  1.00  0.00     0.128 A 
HETATM    8  N6  UNL     1     -12.004  -9.388  -6.219  1.00  0.00    -0.293 N 
ATOM      9  H6  UNL     1     -10.990  -9.281  -6.175  1.00  0.00     0.172 HD
HETATM   10  C6  UNL     1     -12.534 -10.602  -6.302  1.00  0.00     0.327 A 
HETATM   11  O1  UNL     1     -11.761 -11.588  -6.322  1.00  0.00    -0.247 OA
HETATM   12  N7  UNL     1     -13.875 -10.753  -6.360  1.00  0.00    -0.292 N 
ATOM     13  H7  UNL     1     -14.260 -11.696  -6.422  1.00  0.00     0.172 HD
HETATM   14  C7  UNL     1     -14.718  -9.713  -6.338  1.00  0.00     0.141 A 
HETATM   15  C8  UNL     1     -14.184  -8.443  -6.253  1.00  0.00     0.099 A 
ENDROOT
BRANCH   1  16
HETATM   16  N3  UNL     1     -16.243  -7.425  -6.279  1.00  0.00    -0.273 N 
ATOM     17  H3  UNL     1     -16.656  -8.228  -5.806  1.00  0.00     0.189 HD
BRANCH  16  18
HETATM   18  N2  UNL     1     -17.108  -6.565  -6.915  1.00  0.00    -0.245 N 
ATOM     19  H2  UNL     1     -17.344  -6.741  -7.892  1.00  0.00     0.203 HD
BRANCH  18  20
HETATM   20  N1  UNL     1     -17.677  -5.461  -6.275  1.00  0.00    -0.126 NA
BRANCH  20  21
HETATM   21  C2  UNL     1     -17.630  -4.298  -7.154  1.00  0.00     0.132 C 
HETATM   22  C1  UNL     1     -16.854  -4.583  -8.410  1.00  0.00     0.024 C 
ENDBRANCH  20  21
ENDBRANCH  18  20
ENDBRANCH  16  18
ENDBRANCH   1  16
BRANCH  14  23
HETATM   23  N8  UNL     1     -16.008  -9.876  -6.396  1.00  0.00    -0.291 N 
ATOM     24  H8  UNL     1     -16.626  -9.096  -6.172  1.00  0.00     0.188 HD
BRANCH  23  25
HETATM   25  N9  UNL     1     -16.548 -11.097  -6.758  1.00  0.00    -0.344 N 
ATOM     26  H92 UNL     1     -15.976 -11.744  -7.300  1.00  0.00     0.176 HD
ATOM     27  H91 UNL     1     -17.501 -11.345  -6.488  1.00  0.00     0.176 HD
ENDBRANCH  23  25
ENDBRANCH  14  23
TORSDOF 6
ENDMDL
MODEL 2
REMARK VINA RESULT: -6.030552759      2.038      3.627
REMARK  6 active torsions:
REMARK  status: ('A' for Active; 'I' for Inactive)
REMARK    1  A    between atoms: C2_2  and  N1_3 
REMARK    2  A    between atoms: N1_3  and  N2_4 
REMARK    3  A    between atoms: N2_4  and  N3_6 
REMARK    4  A    between atoms: N3_6  and  C3_8 
REMARK    5  A    between atoms: C7_21  and  N8_22 
REMARK    6  A    between atoms: N8_22  and  N9_24 
ROOT
HETATM    1  C3  UNL     1     -15.511  -9.573  -6.205  1.00  0.00     0.139 A 
HETATM    2  N4  UNL     1     -16.173 -10.697  -6.531  1.00  0.00    -0.337 N 
ATOM      3  H4  UNL     1     -17.192 -10.650  -6.563  1.00  0.00     0.168 HD
HETATM    4  C4  UNL     1     -15.602 -11.865  -6.816  1.00  0.00     0.183 A 
HETATM    5  N5  UNL     1     -14.262 -11.958  -6.783  1.00  0.00    -0.338 N 
ATOM      6  H5  UNL     1     -13.803 -12.843  -6.998  1.00  0.00     0.168 HD
HETATM    7  C5  UNL     1     -13.542 -10.888  -6.468  1.00  0.00     0.128 A 
HETATM    8  N6  UNL     1     -12.183 -10.992  -6.436  1.00  0.00    -0.293 N 
ATOM      9  H6  UNL     1     -11.739 -11.885  -6.654  1.00  0.00     0.172 HD
HETATM   10  C6  UNL     1     -11.431  -9.944  -6.125  1.00  0.00     0.327 A 
HETATM   11  O1  UNL     1     -10.186 -10.088  -6.109  1.00  0.00    -0.247 OA
HETATM   12  N7  UNL     1     -12.009  -8.758  -5.836  1.00  0.00    -0.292 N 
ATOM     13  H7  UNL     1     -11.411  -7.965  -5.600  1.00  0.00     0.172 HD
HETATM   14  C7  UNL     1     -13.337  -8.583  -5.847  1.00  0.00     0.141 A 
HETATM   15  C8  UNL     1     -14.133  -9.663  -6.169  1.00  0.00     0.099 A 
ENDROOT
BRANCH   1  16
HETATM   16  N3  UNL     1     -16.083  -8.471  -5.937  1.00  0.00    -0.273 N 
ATOM     17  H3  UNL     1     -15.972  -7.717  -6.615  1.00  0.00     0.189 HD
BRANCH  16  18
HETATM   18  N2  UNL     1     -16.839  -8.197  -4.822  1.00  0.00    -0.245 N 
ATOM     19  H2  UNL     1     -17.732  -8.678  -4.704  1.00  0.00     0.203 HD
BRANCH  18  20
HETATM   20  N1  UNL     1     -16.433  -7.286  -3.843  1.00  0.00    -0.126 NA
BRANCH  20  21
HETATM   21  C2  UNL     1     -16.934  -5.954  -4.165  1.00  0.00     0.132 C 
HETATM   22  C1  UNL     1     -16.886  -5.040  -2.973  1.00  0.00     0.024 C 
ENDBRANCH  20  21
ENDBRANCH  18  20
ENDBRANCH  16  18
ENDBRANCH   1  16
BRANCH  14  23
HETATM   23  N8  UNL     1     -13.878  -7.433  -5.566  1.00  0.00    -0.291 N 
ATOM     24  H8  UNL     1     -14.811  -7.402  -5.155  1.00  0.00     0.188 HD
BRANCH  23  25
HETATM   25  N9  UNL     1     -13.199  -6.254  -5.818  1.00  0.00    -0.344 N 
ATOM     26  H92 UNL     1     -12.365  -6.043  -5.271  1.00  0.00     0.176 HD
ATOM     27  H91 UNL     1     -13.528  -5.609  -6.538  1.00  0.00     0.176 HD
ENDBRANCH  23  25
ENDBRANCH  14  23
TORSDOF 6
ENDMDL
MODEL 3
REMARK VINA RESULT: -6.030470565      1.517      3.315
REMARK  6 active torsions:
REMARK  status: ('A' for Active; 'I' for Inactive)
REMARK    1  A    between atoms: C2_2  and  N1_3 
REMARK    2  A    between atoms: N1_3  and  N2_4 
REMARK    3  A    between atoms: N2_4  and  N3_6 
REMARK    4  A    between atoms: N3_6  and  C3_8 
REMARK    5  A    between atoms: C7_21  and  N8_22 
REMARK    6  A    between atoms: N8_22  and  N9_24 
ROOT
HETATM    1  C3  UNL     1     -15.361  -9.544  -6.307  1.00  0.00     0.139 A 
HETATM    2  N4  UNL     1     -16.092 -10.639  -6.581  1.00  0.00    -0.337 N 
ATOM      3  H4  UNL     1     -17.105 -10.526  -6.637  1.00  0.00     0.168 HD
HETATM    4  C4  UNL     1     -15.597 -11.857  -6.786  1.00  0.00     0.183 A 
HETATM    5  N5  UNL     1     -14.267 -12.037  -6.719  1.00  0.00    -0.338 N 
ATOM      6  H5  UNL     1     -13.865 -12.962  -6.872  1.00  0.00     0.168 HD
HETATM    7  C5  UNL     1     -13.481 -11.001  -6.452  1.00  0.00     0.128 A 
HETATM    8  N6  UNL     1     -12.133 -11.193  -6.386  1.00  0.00    -0.293 N 
ATOM      9  H6  UNL     1     -11.747 -12.125  -6.542  1.00  0.00     0.172 HD
HETATM   10  C6  UNL     1     -11.317 -10.181  -6.120  1.00  0.00     0.327 A 
HETATM   11  O1  UNL     1     -10.086 -10.406  -6.070  1.00  0.00    -0.247 OA
HETATM   12  N7  UNL     1     -11.819  -8.943  -5.913  1.00  0.00    -0.292 N 
ATOM     13  H7  UNL     1     -11.173  -8.179  -5.711  1.00  0.00     0.172 HD
HETATM   14  C7  UNL     1     -13.131  -8.682  -5.962  1.00  0.00     0.141 A 
HETATM   15  C8  UNL     1     -13.994  -9.723  -6.237  1.00  0.00     0.099 A 
ENDROOT
BRANCH   1  16
HETATM   16  N3  UNL     1     -15.862  -8.392  -6.116  1.00  0.00    -0.273 N 
ATOM     17  H3  UNL     1     -15.566  -7.649  -6.749  1.00  0.00     0.189 HD
BRANCH  16  18
HETATM   18  N2  UNL     1     -16.766  -8.050  -5.138  1.00  0.00    -0.245 N 
ATOM     19  H2  UNL     1     -17.157  -8.789  -4.552  1.00  0.00     0.203 HD
BRANCH  18  20
HETATM   20  N1  UNL     1     -17.169  -6.731  -4.914  1.00  0.00    -0.126 NA
BRANCH  20  21
HETATM   21  C2  UNL     1     -16.831  -5.906  -6.069  1.00  0.00     0.132 C 
HETATM   22  C1  UNL     1     -17.968  -5.002  -6.457  1.00  0.00     0.024 C 
ENDBRANCH  20  21
ENDBRANCH  18  20
ENDBRANCH  16  18
ENDBRANCH   1  16
BRANCH  14  23
HETATM   23  N8  UNL     1     -13.598  -7.483  -5.760  1.00  0.00    -0.291 N 
ATOM     24  H8  UNL     1     -14.511  -7.365  -5.320  1.00  0.00     0.188 HD
BRANCH  23  25
HETATM   25  N9  UNL     1     -12.868  -6.370  -6.134  1.00  0.00    -0.344 N 
ATOM     26  H92 UNL     1     -12.185  -6.462  -6.887  1.00  0.00     0.176 HD
ATOM     27  H91 UNL     1     -13.009  -5.474  -5.667  1.00  0.00     0.176 HD
ENDBRANCH  23  25
ENDBRANCH  14  23
TORSDOF 6
ENDMDL
MODEL 4
REMARK VINA RESULT: -5.918052057      2.776      5.757
REMARK  6 active torsions:
REMARK  status: ('A' for Active; 'I' for Inactive)
REMARK    1  A    between atoms: C2_2  and  N1_3 
REMARK    2  A    between atoms: N1_3  and  N2_4 
REMARK    3  A    between atoms: N2_4  and  N3_6 
REMARK    4  A    between atoms: N3_6  and  C3_8 
REMARK    5  A    between atoms: C7_21  and  N8_22 
REMARK    6  A    between atoms: N8_22  and  N9_24 
ROOT
HETATM    1  C3  UNL     1     -13.753  -9.325  -6.764  1.00  0.00     0.139 A 
HETATM    2  N4  UNL     1     -14.039 -10.578  -7.159  1.00  0.00    -0.337 N 
ATOM      3  H4  UNL     1     -13.345 -11.061  -7.730  1.00  0.00     0.168 HD
HETATM    4  C4  UNL     1     -15.157 -11.237  -6.863  1.00  0.00     0.183 A 
HETATM    5  N5  UNL     1     -16.090 -10.627  -6.113  1.00  0.00    -0.338 N 
ATOM      6  H5  UNL     1     -16.955 -11.112  -5.873  1.00  0.00     0.168 HD
HETATM    7  C5  UNL     1     -15.877  -9.388  -5.686  1.00  0.00     0.128 A 
HETATM    8  N6  UNL     1     -16.829  -8.777  -4.925  1.00  0.00    -0.293 N 
ATOM      9  H6  UNL     1     -17.689  -9.277  -4.694  1.00  0.00     0.172 HD
HETATM   10  C6  UNL     1     -16.651  -7.540  -4.481  1.00  0.00     0.327 A 
HETATM   11  O1  UNL     1     -17.553  -7.020  -3.785  1.00  0.00    -0.247 OA
HETATM   12  N7  UNL     1     -15.516  -6.870  -4.780  1.00  0.00    -0.292 N 
ATOM     13  H7  UNL     1     -15.399  -5.920  -4.428  1.00  0.00     0.172 HD
HETATM   14  C7  UNL     1     -14.538  -7.407  -5.522  1.00  0.00     0.141 A 
HETATM   15  C8  UNL     1     -14.708  -8.693  -5.992  1.00  0.00     0.099 A 
ENDROOT
BRANCH   1  16
HETATM   16  N3  UNL     1     -12.676  -8.721  -7.062  1.00  0.00    -0.273 N 
ATOM     17  H3  UNL     1     -12.759  -7.893  -7.652  1.00  0.00     0.189 HD
BRANCH  16  18
HETATM   18  N2  UNL     1     -11.408  -9.076  -6.665  1.00  0.00    -0.245 N 
ATOM     19  H2  UNL     1     -10.784  -9.509  -7.347  1.00  0.00     0.203 HD
BRANCH  18  20
HETATM   20  N1  UNL     1     -10.940  -8.866  -5.365  1.00  0.00    -0.126 NA
BRANCH  20  21
HETATM   21  C2  UNL     1     -10.242 -10.056  -4.890  1.00  0.00     0.132 C 
HETATM   22  C1  UNL     1     -10.682 -11.289  -5.628  1.00  0.00     0.024 C 
ENDBRANCH  20  21
ENDBRANCH  18  20
ENDBRANCH  16  18
ENDBRANCH   1  16
BRANCH  14  23
HETATM   23  N8  UNL     1     -13.451  -6.748  -5.802  1.00  0.00    -0.291 N 
ATOM     24  H8  UNL     1     -12.680  -7.223  -6.271  1.00  0.00     0.188 HD
BRANCH  23  25
HETATM   25  N9  UNL     1     -13.332  -5.411  -5.469  1.00  0.00    -0.344 N 
ATOM     26  H92 UNL     1     -13.366  -5.146  -4.485  1.00  0.00     0.176 HD
ATOM     27  H91 UNL     1     -13.214  -4.703  -6.195  1.00  0.00     0.176 HD
ENDBRANCH  23  25
ENDBRANCH  14  23
TORSDOF 6
ENDMDL
MODEL 5
REMARK VINA RESULT: -5.917176376      2.748      5.092
REMARK  6 active torsions:
REMARK  status: ('A' for Active; 'I' for Inactive)
REMARK    1  A    between atoms: C2_2  and  N1_3 
REMARK    2  A    between atoms: N1_3  and  N2_4 
REMARK    3  A    between atoms: N2_4  and  N3_6 
REMARK    4  A    between atoms: N3_6  and  C3_8 
REMARK    5  A    between atoms: C7_21  and  N8_22 
REMARK    6  A    between atoms: N8_22  and  N9_24 
ROOT
HETATM    1  C3  UNL     1     -13.582  -8.950  -6.456  1.00  0.00     0.139 A 
HETATM    2  N4  UNL     1     -12.620  -8.034  -6.668  1.00  0.00    -0.337 N 
ATOM      3  H4  UNL     1     -11.791  -8.332  -7.180  1.00  0.00     0.168 HD
HETATM    4  C4  UNL     1     -12.667  -6.767  -6.260  1.00  0.00     0.183 A 
HETATM    5  N5  UNL     1     -13.748  -6.343  -5.582  1.00  0.00    -0.338 N 
ATOM      6  H5  UNL     1     -13.806  -5.378  -5.260  1.00  0.00     0.168 HD
HETATM    7  C5  UNL     1     -14.738  -7.193  -5.336  1.00  0.00     0.128 A 
HETATM    8  N6  UNL     1     -15.829  -6.754  -4.647  1.00  0.00    -0.293 N 
ATOM      9  H6  UNL     1     -15.872  -5.784  -4.332  1.00  0.00     0.172 HD
HETATM   10  C6  UNL     1     -16.838  -7.575  -4.382  1.00  0.00     0.327 A 
HETATM   11  O1  UNL     1     -17.820  -7.126  -3.747  1.00  0.00    -0.247 OA
HETATM   12  N7  UNL     1     -16.791  -8.860  -4.796  1.00  0.00    -0.292 N 
ATOM     13  H7  UNL     1     -17.578  -9.474  -4.582  1.00  0.00     0.172 HD
HETATM   14  C7  UNL     1     -15.751  -9.359  -5.476  1.00  0.00     0.141 A 
HETATM   15  C8  UNL     1     -14.694  -8.519  -5.760  1.00  0.00     0.099 A 
ENDROOT
BRANCH   1  16
HETATM   16  N3  UNL     1     -13.509 -10.153  -6.858  1.00  0.00    -0.273 N 
ATOM     17  H3  UNL     1     -14.244 -10.474  -7.487  1.00  0.00     0.189 HD
BRANCH  16  18
HETATM   18  N2  UNL     1     -12.534 -11.063  -6.525  1.00  0.00    -0.245 N 
ATOM     19  H2  UNL     1     -12.247 -11.751  -7.223  1.00  0.00     0.203 HD
BRANCH  18  20
HETATM   20  N1  UNL     1     -11.920 -11.082  -5.270  1.00  0.00    -0.126 NA
BRANCH  20  21
HETATM   21  C2  UNL     1     -10.469 -11.116  -5.427  1.00  0.00     0.132 C 
HETATM   22  C1  UNL     1      -9.856  -9.761  -5.207  1.00  0.00     0.024 C 
ENDBRANCH  20  21
ENDBRANCH  18  20
ENDBRANCH  16  18
ENDBRANCH   1  16
BRANCH  14  23
HETATM   23  N8  UNL     1     -15.722 -10.601  -5.867  1.00  0.00    -0.291 N 
ATOM     24  H8  UNL     1     -14.967 -11.211  -5.554  1.00  0.00     0.188 HD
BRANCH  23  25
HETATM   25  N9  UNL     1     -16.705 -11.100  -6.704  1.00  0.00    -0.344 N 
ATOM     26  H92 UNL     1     -16.970 -10.557  -7.526  1.00  0.00     0.176 HD
ATOM     27  H91 UNL     1     -17.156 -11.992  -6.501  1.00  0.00     0.176 HD
ENDBRANCH  23  25
ENDBRANCH  14  23
TORSDOF 6
ENDMDL
