MODEL 1
REMARK VINA RESULT: -6.180508006      0.000      0.000
REMARK  6 active torsions:
REMARK  status: ('A' for Active; 'I' for Inactive)
REMARK    1  A    between atoms: N1_1  and  C1_4 
REMARK    2  A    between atoms: C4_12  and  N4_13 
REMARK    3  A    between atoms: N4_13  and  N5_15 
REMARK    4  A    between atoms: N7_22  and  C7_23 
REMARK    5  A    between atoms: C7_23  and  C8_24 
REMARK    6  A    between atoms: C8_24  and  C9_25 
ROOT
HETATM    1  C1  UNL     1     -10.824  -7.756  -6.010  1.00  0.00     0.686 A 
HETATM    2  N2  UNL     1     -11.847  -6.951  -6.382  1.00  0.00    -0.154 N 
ATOM      3  H2  UNL     1     -11.704  -5.941  -6.399  1.00  0.00     0.187 HD
HETATM    4  C2  UNL     1     -13.037  -7.445  -6.724  1.00  0.00     0.290 A 
HETATM    5  O1  UNL     1     -14.015  -6.766  -7.073  1.00  0.00    -0.265 OA
HETATM    6  C3  UNL     1     -13.184  -8.838  -6.686  1.00  0.00     0.148 A 
HETATM    7  N3  UNL     1     -14.345  -9.383  -7.017  1.00  0.00    -0.333 N 
ATOM      8  H3  UNL     1     -15.121  -8.783  -7.297  1.00  0.00     0.168 HD
HETATM    9  C4  UNL     1     -14.514 -10.716  -6.989  1.00  0.00     0.135 A 
HETATM   10  C5  UNL     1     -13.480 -11.534  -6.614  1.00  0.00     0.139 A 
HETATM   11  N6  UNL     1     -12.323 -10.966  -6.285  1.00  0.00    -0.346 N 
ATOM     12  H6  UNL     1     -11.550 -11.571  -6.006  1.00  0.00     0.167 HD
HETATM   13  C6  UNL     1     -12.118  -9.632  -6.302  1.00  0.00     0.160 A 
HETATM   14  N7  UNL     1     -10.940  -9.083  -5.966  1.00  0.00    -0.144 N 
ENDROOT
BRANCH   9  15
HETATM   15  N4  UNL     1     -15.673 -11.179  -7.324  1.00  0.00    -0.291 N 
ATOM     16  H4  UNL     1     -15.752 -11.754  -8.163  1.00  0.00     0.188 HD
BRANCH  15  17
HETATM   17  N5  UNL     1     -16.818 -10.916  -6.575  1.00  0.00    -0.344 N 
ATOM     18  H52 UNL     1     -17.301 -10.031  -6.732  1.00  0.00     0.176 HD
ATOM     19  H51 UNL     1     -17.176 -11.577  -5.886  1.00  0.00     0.176 HD
ENDBRANCH  15  17
ENDBRANCH   9  15
BRANCH  14  20
HETATM   20  C7  UNL     1      -9.868  -9.906  -5.579  1.00  0.00     0.099 C 
BRANCH  20  21
HETATM   21  C8  UNL     1      -9.935 -10.488  -4.209  1.00  0.00     0.145 C 
BRANCH  21  22
HETATM   22  C9  UNL     1      -8.895  -9.862  -3.376  1.00  0.00     0.235 C 
HETATM   23  N8  UNL     1      -7.845 -10.648  -2.863  1.00  0.00    -0.062 NA
HETATM   24  O2  UNL     1      -8.933  -8.647  -3.121  1.00  0.00    -0.277 OA
ENDBRANCH  21  22
ENDBRANCH  20  21
ENDBRANCH  14  20
BRANCH   1  25
HETATM   25  N1  UNL     1      -9.704  -7.232  -5.691  1.00  0.00    -0.234 N 
ATOM     26  H12 UNL     1      -9.394  -6.402  -6.196  1.00  0.00     0.174 HD
ATOM     27  H11 UNL     1      -9.154  -7.654  -4.943  1.00  0.00     0.174 HD
ENDBRANCH   1  25
TORSDOF 6
ENDMDL
MODEL 2
REMARK VINA RESULT: -5.919677026      3.114      5.324
REMARK  6 active torsions:
REMARK  status: ('A' for Active; 'I' for Inactive)
REMARK    1  A    between atoms: N1_1  and  C1_4 
REMARK    2  A    between atoms: C4_12  and  N4_13 
REMARK    3  A    between atoms: N4_13  and  N5_15 
REMARK    4  A    between atoms: N7_22  and  C7_23 
REMARK    5  A    between atoms: C7_23  and  C8_24 
REMARK    6  A    between atoms: C8_24  and  C9_25 
ROOT
HETATM    1  C1  UNL     1     -15.645  -9.535  -5.746  1.00  0.00     0.686 A 
HETATM    2  N2  UNL     1     -16.617  -9.015  -4.959  1.00  0.00    -0.154 N 
ATOM      3  H2  UNL     1     -17.355  -9.628  -4.610  1.00  0.00     0.187 HD
HETATM    4  C2  UNL     1     -16.635  -7.723  -4.630  1.00  0.00     0.290 A 
HETATM    5  O1  UNL     1     -17.494  -7.183  -3.917  1.00  0.00    -0.265 OA
HETATM    6  C3  UNL     1     -15.600  -6.924  -5.133  1.00  0.00     0.148 A 
HETATM    7  N3  UNL     1     -15.568  -5.632  -4.837  1.00  0.00    -0.333 N 
ATOM      8  H3  UNL     1     -16.298  -5.234  -4.246  1.00  0.00     0.168 HD
HETATM    9  C4  UNL     1     -14.587  -4.842  -5.306  1.00  0.00     0.135 A 
HETATM   10  C5  UNL     1     -13.602  -5.365  -6.102  1.00  0.00     0.139 A 
HETATM   11  N6  UNL     1     -13.653  -6.663  -6.387  1.00  0.00    -0.346 N 
ATOM     12  H6  UNL     1     -12.921  -7.057  -6.978  1.00  0.00     0.167 HD
HETATM   13  C6  UNL     1     -14.622  -7.486  -5.934  1.00  0.00     0.160 A 
HETATM   14  N7  UNL     1     -14.651  -8.794  -6.235  1.00  0.00    -0.144 N 
ENDROOT
BRANCH   9  15
HETATM   15  N4  UNL     1     -14.618  -3.593  -4.977  1.00  0.00    -0.291 N 
ATOM     16  H4  UNL     1     -14.854  -2.900  -5.688  1.00  0.00     0.188 HD
BRANCH  15  17
HETATM   17  N5  UNL     1     -14.339  -3.163  -3.681  1.00  0.00    -0.344 N 
ATOM     18  H52 UNL     1     -15.116  -2.831  -3.108  1.00  0.00     0.176 HD
ATOM     19  H51 UNL     1     -13.393  -3.174  -3.300  1.00  0.00     0.176 HD
ENDBRANCH  15  17
ENDBRANCH   9  15
BRANCH  14  20
HETATM   20  C7  UNL     1     -13.649  -9.348  -7.050  1.00  0.00     0.099 C 
BRANCH  20  21
HETATM   21  C8  UNL     1     -12.321  -9.577  -6.412  1.00  0.00     0.145 C 
BRANCH  21  22
HETATM   22  C9  UNL     1     -12.207 -10.999  -6.053  1.00  0.00     0.235 C 
HETATM   23  N8  UNL     1     -11.263 -11.402  -5.088  1.00  0.00    -0.062 NA
HETATM   24  O2  UNL     1     -12.934 -11.851  -6.591  1.00  0.00    -0.277 OA
ENDBRANCH  21  22
ENDBRANCH  20  21
ENDBRANCH  14  20
BRANCH   1  25
HETATM   25  N1  UNL     1     -15.674 -10.779  -6.032  1.00  0.00    -0.234 N 
ATOM     26  H12 UNL     1     -16.160 -11.413  -5.397  1.00  0.00     0.174 HD
ATOM     27  H11 UNL     1     -15.216 -11.104  -6.883  1.00  0.00     0.174 HD
ENDBRANCH   1  25
TORSDOF 6
ENDMDL
MODEL 3
REMARK VINA RESULT: -5.900613107      3.439      6.165
REMARK  6 active torsions:
REMARK  status: ('A' for Active; 'I' for Inactive)
REMARK    1  A    between atoms: N1_1  and  C1_4 
REMARK    2  A    between atoms: C4_12  and  N4_13 
REMARK    3  A    between atoms: N4_13  and  N5_15 
REMARK    4  A    between atoms: N7_22  and  C7_23 
REMARK    5  A    between atoms: C7_23  and  C8_24 
REMARK    6  A    between atoms: C8_24  and  C9_25 
ROOT
HETATM    1  C1  UNL     1     -14.440  -5.570  -5.745  1.00  0.00     0.686 A 
HETATM    2  N2  UNL     1     -13.133  -5.901  -5.874  1.00  0.00    -0.154 N 
ATOM      3  H2  UNL     1     -12.426  -5.168  -5.814  1.00  0.00     0.187 HD
HETATM    4  C2  UNL     1     -12.747  -7.161  -6.079  1.00  0.00     0.290 A 
HETATM    5  O1  UNL     1     -11.571  -7.533  -6.207  1.00  0.00    -0.265 OA
HETATM    6  C3  UNL     1     -13.756  -8.131  -6.153  1.00  0.00     0.148 A 
HETATM    7  N3  UNL     1     -13.429  -9.400  -6.355  1.00  0.00    -0.333 N 
ATOM      8  H3  UNL     1     -12.447  -9.657  -6.454  1.00  0.00     0.168 HD
HETATM    9  C4  UNL     1     -14.375 -10.352  -6.430  1.00  0.00     0.135 A 
HETATM   10  C5  UNL     1     -15.698 -10.020  -6.299  1.00  0.00     0.139 A 
HETATM   11  N6  UNL     1     -16.004  -8.741  -6.097  1.00  0.00    -0.346 N 
ATOM     12  H6  UNL     1     -16.988  -8.489  -5.999  1.00  0.00     0.167 HD
HETATM   13  C6  UNL     1     -15.081  -7.760  -6.017  1.00  0.00     0.160 A 
HETATM   14  N7  UNL     1     -15.415  -6.476  -5.811  1.00  0.00    -0.144 N 
ENDROOT
BRANCH   9  15
HETATM   15  N4  UNL     1     -13.985 -11.568  -6.628  1.00  0.00    -0.291 N 
ATOM     16  H4  UNL     1     -12.988 -11.758  -6.721  1.00  0.00     0.188 HD
BRANCH  15  17
HETATM   17  N5  UNL     1     -14.887 -12.627  -6.719  1.00  0.00    -0.344 N 
ATOM     18  H52 UNL     1     -15.874 -12.432  -6.548  1.00  0.00     0.176 HD
ATOM     19  H51 UNL     1     -14.587 -13.574  -6.948  1.00  0.00     0.176 HD
ENDBRANCH  15  17
ENDBRANCH   9  15
BRANCH  14  20
HETATM   20  C7  UNL     1     -16.767  -6.117  -5.675  1.00  0.00     0.099 C 
BRANCH  20  21
HETATM   21  C8  UNL     1     -17.458  -5.637  -6.905  1.00  0.00     0.145 C 
BRANCH  21  22
HETATM   22  C9  UNL     1     -18.291  -4.474  -6.559  1.00  0.00     0.235 C 
HETATM   23  N8  UNL     1     -17.723  -3.185  -6.560  1.00  0.00    -0.062 NA
HETATM   24  O2  UNL     1     -19.489  -4.617  -6.264  1.00  0.00    -0.277 OA
ENDBRANCH  21  22
ENDBRANCH  20  21
ENDBRANCH  14  20
BRANCH   1  25
HETATM   25  N1  UNL     1     -14.756  -4.349  -5.550  1.00  0.00    -0.234 N 
ATOM     26  H12 UNL     1     -14.011  -3.652  -5.522  1.00  0.00     0.174 HD
ATOM     27  H11 UNL     1     -15.738  -4.102  -5.430  1.00  0.00     0.174 HD
ENDBRANCH   1  25
TORSDOF 6
ENDMDL
MODEL 4
REMARK VINA RESULT: -5.828781012      3.479      5.616
REMARK  6 active torsions:
REMARK  status: ('A' for Active; 'I' for Inactive)
REMARK    1  A    between atoms: N1_1  and  C1_4 
REMARK    2  A    between atoms: C4_12  and  N4_13 
REMARK    3  A    between atoms: N4_13  and  N5_15 
REMARK    4  A    between atoms: N7_22  and  C7_23 
REMARK    5  A    between atoms: C7_23  and  C8_24 
REMARK    6  A    between atoms: C8_24  and  C9_25 
ROOT
HETATM    1  C1  UNL     1     -14.515  -5.769  -5.493  1.00  0.00     0.686 A 
HETATM    2  N2  UNL     1     -13.234  -6.052  -5.827  1.00  0.00    -0.154 N 
ATOM      3  H2  UNL     1     -12.539  -5.305  -5.810  1.00  0.00     0.187 HD
HETATM    4  C2  UNL     1     -12.858  -7.282  -6.179  1.00  0.00     0.290 A 
HETATM    5  O1  UNL     1     -11.705  -7.609  -6.496  1.00  0.00    -0.265 OA
HETATM    6  C3  UNL     1     -13.848  -8.273  -6.185  1.00  0.00     0.148 A 
HETATM    7  N3  UNL     1     -13.530  -9.513  -6.526  1.00  0.00    -0.333 N 
ATOM      8  H3  UNL     1     -12.567  -9.734  -6.780  1.00  0.00     0.168 HD
HETATM    9  C4  UNL     1     -14.460 -10.484  -6.541  1.00  0.00     0.135 A 
HETATM   10  C5  UNL     1     -15.758 -10.200  -6.203  1.00  0.00     0.139 A 
HETATM   11  N6  UNL     1     -16.055  -8.949  -5.864  1.00  0.00    -0.346 N 
ATOM     12  H6  UNL     1     -17.020  -8.733  -5.611  1.00  0.00     0.167 HD
HETATM   13  C6  UNL     1     -15.148  -7.950  -5.838  1.00  0.00     0.160 A 
HETATM   14  N7  UNL     1     -15.474  -6.695  -5.492  1.00  0.00    -0.144 N 
ENDROOT
BRANCH   9  15
HETATM   15  N4  UNL     1     -14.080 -11.671  -6.883  1.00  0.00    -0.291 N 
ATOM     16  H4  UNL     1     -13.119 -11.811  -7.195  1.00  0.00     0.188 HD
BRANCH  15  17
HETATM   17  N5  UNL     1     -14.944 -12.764  -6.839  1.00  0.00    -0.344 N 
ATOM     18  H52 UNL     1     -15.681 -12.764  -6.134  1.00  0.00     0.176 HD
ATOM     19  H51 UNL     1     -14.855 -13.549  -7.484  1.00  0.00     0.176 HD
ENDBRANCH  15  17
ENDBRANCH   9  15
BRANCH  14  20
HETATM   20  C7  UNL     1     -16.799  -6.385  -5.142  1.00  0.00     0.099 C 
BRANCH  20  21
HETATM   21  C8  UNL     1     -17.196  -6.652  -3.730  1.00  0.00     0.145 C 
BRANCH  21  22
HETATM   22  C9  UNL     1     -17.747  -5.416  -3.151  1.00  0.00     0.235 C 
HETATM   23  N8  UNL     1     -18.703  -5.494  -2.120  1.00  0.00    -0.062 NA
HETATM   24  O2  UNL     1     -17.379  -4.303  -3.563  1.00  0.00    -0.277 OA
ENDBRANCH  21  22
ENDBRANCH  20  21
ENDBRANCH  14  20
BRANCH   1  25
HETATM   25  N1  UNL     1     -14.823  -4.574  -5.164  1.00  0.00    -0.234 N 
ATOM     26  H12 UNL     1     -14.128  -3.839  -5.295  1.00  0.00     0.174 HD
ATOM     27  H11 UNL     1     -15.750  -4.386  -4.784  1.00  0.00     0.174 HD
ENDBRANCH   1  25
TORSDOF 6
ENDMDL
MODEL 5
REMARK VINA RESULT: -5.716820008      2.758      5.072
REMARK  6 active torsions:
REMARK  status: ('A' for Active; 'I' for Inactive)
REMARK    1  A    between atoms: N1_1  and  C1_4 
REMARK    2  A    between atoms: C4_12  and  N4_13 
REMARK    3  A    between atoms: N4_13  and  N5_15 
REMARK    4  A    between atoms: N7_22  and  C7_23 
REMARK    5  A    between atoms: C7_23  and  C8_24 
REMARK    6  A    between atoms: C8_24  and  C9_25 
ROOT
HETATM    1  C1  UNL     1     -15.601  -9.785  -5.764  1.00  0.00     0.686 A 
HETATM    2  N2  UNL     1     -16.567  -9.217  -5.004  1.00  0.00    -0.154 N 
ATOM      3  H2  UNL     1     -17.318  -9.802  -4.636  1.00  0.00     0.187 HD
HETATM    4  C2  UNL     1     -16.560  -7.914  -4.723  1.00  0.00     0.290 A 
HETATM    5  O1  UNL     1     -17.411  -7.330  -4.036  1.00  0.00    -0.265 OA
HETATM    6  C3  UNL     1     -15.507  -7.154  -5.250  1.00  0.00     0.148 A 
HETATM    7  N3  UNL     1     -15.451  -5.854  -5.003  1.00  0.00    -0.333 N 
ATOM      8  H3  UNL     1     -16.175  -5.418  -4.431  1.00  0.00     0.168 HD
HETATM    9  C4  UNL     1     -14.452  -5.101  -5.495  1.00  0.00     0.135 A 
HETATM   10  C5  UNL     1     -13.473  -5.673  -6.265  1.00  0.00     0.139 A 
HETATM   11  N6  UNL     1     -13.549  -6.980  -6.502  1.00  0.00    -0.346 N 
ATOM     12  H6  UNL     1     -12.822  -7.411  -7.074  1.00  0.00     0.167 HD
HETATM   13  C6  UNL     1     -14.537  -7.766  -6.024  1.00  0.00     0.160 A 
HETATM   14  N7  UNL     1     -14.590  -9.083  -6.276  1.00  0.00    -0.144 N 
ENDROOT
BRANCH   9  15
HETATM   15  N4  UNL     1     -14.459  -3.840  -5.214  1.00  0.00    -0.291 N 
ATOM     16  H4  UNL     1     -14.774  -3.177  -5.923  1.00  0.00     0.188 HD
BRANCH  15  17
HETATM   17  N5  UNL     1     -14.051  -3.358  -3.971  1.00  0.00    -0.344 N 
ATOM     18  H52 UNL     1     -14.066  -4.001  -3.179  1.00  0.00     0.176 HD
ATOM     19  H51 UNL     1     -13.742  -2.394  -3.841  1.00  0.00     0.176 HD
ENDBRANCH  15  17
ENDBRANCH   9  15
BRANCH  14  20
HETATM   20  C7  UNL     1     -13.595  -9.687  -7.063  1.00  0.00     0.099 C 
BRANCH  20  21
HETATM   21  C8  UNL     1     -12.592 -10.524  -6.345  1.00  0.00     0.145 C 
BRANCH  21  22
HETATM   22  C9  UNL     1     -11.540  -9.645  -5.809  1.00  0.00     0.235 C 
HETATM   23  N8  UNL     1     -10.935  -8.689  -6.648  1.00  0.00    -0.062 NA
HETATM   24  O2  UNL     1     -11.179  -9.738  -4.623  1.00  0.00    -0.277 OA
ENDBRANCH  21  22
ENDBRANCH  20  21
ENDBRANCH  14  20
BRANCH   1  25
HETATM   25  N1  UNL     1     -15.654 -11.038  -6.004  1.00  0.00    -0.234 N 
ATOM     26  H12 UNL     1     -16.539 -11.437  -6.316  1.00  0.00     0.174 HD
ATOM     27  H11 UNL     1     -14.815 -11.604  -5.878  1.00  0.00     0.174 HD
ENDBRANCH   1  25
TORSDOF 6
ENDMDL
