MODEL 1
REMARK VINA RESULT: -6.009060853      0.000      0.000
REMARK  4 active torsions:
REMARK  status: ('A' for Active; 'I' for Inactive)
REMARK    1  A    between atoms: N2_4  and  N3_6 
REMARK    2  A    between atoms: N3_6  and  S1_8 
REMARK    3  A    between atoms: S1_8  and  C3_11 
REMARK    4  A    between atoms: C5_16  and  N6_17 
ROOT
HETATM    1  C3  UNL     1     -14.585  -8.631  -6.150  1.00  0.00     0.190 A 
HETATM    2  C4  UNL     1     -13.747  -9.340  -6.957  1.00  0.00     0.160 A 
HETATM    3  N4  UNL     1     -12.713  -8.665  -7.642  1.00  0.00    -0.080 NA
HETATM    4  N5  UNL     1     -13.927 -10.663  -7.081  1.00  0.00    -0.177 N 
ATOM      5  H5  UNL     1     -13.298 -11.191  -7.686  1.00  0.00     0.185 HD
HETATM    6  C5  UNL     1     -14.906 -11.321  -6.435  1.00  0.00     0.680 A 
HETATM    7  N7  UNL     1     -15.743 -10.645  -5.636  1.00  0.00    -0.155 N 
ATOM      8  H7  UNL     1     -16.488 -11.137  -5.144  1.00  0.00     0.187 HD
HETATM    9  C6  UNL     1     -15.594  -9.303  -5.483  1.00  0.00     0.286 A 
HETATM   10  O3  UNL     1     -16.408  -8.698  -4.716  1.00  0.00    -0.266 OA
ENDROOT
BRANCH   1  11
HETATM   11  S1  UNL     1     -14.411  -6.904  -5.940  1.00  0.00     0.285 S 
HETATM   12  O1  UNL     1     -12.986  -6.543  -5.648  1.00  0.00    -0.199 OA
HETATM   13  O2  UNL     1     -14.835  -6.262  -7.245  1.00  0.00    -0.199 OA
BRANCH  11  14
HETATM   14  N3  UNL     1     -15.394  -6.414  -4.635  1.00  0.00    -0.222 N 
ATOM     15  H3  UNL     1     -15.098  -6.577  -3.672  1.00  0.00     0.200 HD
BRANCH  14  16
HETATM   16  N2  UNL     1     -16.608  -5.788  -4.906  1.00  0.00    -0.282 N 
HETATM   17  C2  UNL     1     -17.292  -5.319  -3.929  1.00  0.00     0.104 C 
HETATM   18  C1  UNL     1     -18.592  -4.646  -4.190  1.00  0.00     0.086 C 
HETATM   19  N1  UNL     1     -16.797  -5.451  -2.610  1.00  0.00    -0.087 NA
ATOM     20  H2  UNL     1     -16.946  -5.704  -5.865  1.00  0.00     0.188 HD
ENDBRANCH  14  16
ENDBRANCH  11  14
ENDBRANCH   1  11
BRANCH   6  21
HETATM   21  N6  UNL     1     -15.056 -12.591  -6.573  1.00  0.00    -0.234 N 
ATOM     22  H62 UNL     1     -14.257 -13.206  -6.421  1.00  0.00     0.174 HD
ATOM     23  H61 UNL     1     -15.959 -12.991  -6.829  1.00  0.00     0.174 HD
ENDBRANCH   6  21
TORSDOF 4
ENDMDL
MODEL 2
REMARK VINA RESULT: -5.941167936      3.798      5.678
REMARK  4 active torsions:
REMARK  status: ('A' for Active; 'I' for Inactive)
REMARK    1  A    between atoms: N2_4  and  N3_6 
REMARK    2  A    between atoms: N3_6  and  S1_8 
REMARK    3  A    between atoms: S1_8  and  C3_11 
REMARK    4  A    between atoms: C5_16  and  N6_17 
ROOT
HETATM    1  C3  UNL     1     -12.243  -9.501  -6.541  1.00  0.00     0.190 A 
HETATM    2  C4  UNL     1     -12.332 -10.831  -6.261  1.00  0.00     0.160 A 
HETATM    3  N4  UNL     1     -11.209 -11.501  -5.728  1.00  0.00    -0.080 NA
HETATM    4  N5  UNL     1     -13.486 -11.471  -6.500  1.00  0.00    -0.177 N 
ATOM      5  H5  UNL     1     -13.549 -12.467  -6.290  1.00  0.00     0.185 HD
HETATM    6  C5  UNL     1     -14.564 -10.848  -7.007  1.00  0.00     0.680 A 
HETATM    7  N7  UNL     1     -14.501  -9.540  -7.291  1.00  0.00    -0.155 N 
ATOM      8  H7  UNL     1     -15.315  -9.061  -7.677  1.00  0.00     0.187 HD
HETATM    9  C6  UNL     1     -13.350  -8.854  -7.063  1.00  0.00     0.286 A 
HETATM   10  O3  UNL     1     -13.330  -7.615  -7.346  1.00  0.00    -0.266 OA
ENDROOT
BRANCH   1  11
HETATM   11  S1  UNL     1     -10.772  -8.600  -6.256  1.00  0.00     0.285 S 
HETATM   12  O1  UNL     1     -10.016  -8.395  -7.534  1.00  0.00    -0.199 OA
HETATM   13  O2  UNL     1     -11.186  -7.255  -5.696  1.00  0.00    -0.199 OA
BRANCH  11  14
HETATM   14  N3  UNL     1      -9.801  -9.479  -5.163  1.00  0.00    -0.222 N 
ATOM     15  H3  UNL     1      -9.769 -10.498  -5.201  1.00  0.00     0.200 HD
BRANCH  14  16
HETATM   16  N2  UNL     1      -9.053  -8.780  -4.218  1.00  0.00    -0.282 N 
HETATM   17  C2  UNL     1      -8.461  -9.439  -3.291  1.00  0.00     0.104 C 
HETATM   18  C1  UNL     1      -7.656  -8.718  -2.269  1.00  0.00     0.086 C 
HETATM   19  N1  UNL     1      -8.584 -10.848  -3.255  1.00  0.00    -0.087 NA
ATOM     20  H2  UNL     1      -8.978  -7.764  -4.263  1.00  0.00     0.188 HD
ENDBRANCH  14  16
ENDBRANCH  11  14
ENDBRANCH   1  11
BRANCH   6  21
HETATM   21  N6  UNL     1     -15.659 -11.487  -7.227  1.00  0.00    -0.234 N 
ATOM     22  H62 UNL     1     -15.758 -12.025  -8.088  1.00  0.00     0.174 HD
ATOM     23  H61 UNL     1     -16.427 -11.465  -6.556  1.00  0.00     0.174 HD
ENDBRANCH   6  21
TORSDOF 4
ENDMDL
MODEL 3
REMARK VINA RESULT: -5.924424782      3.890      5.707
REMARK  4 active torsions:
REMARK  status: ('A' for Active; 'I' for Inactive)
REMARK    1  A    between atoms: N2_4  and  N3_6 
REMARK    2  A    between atoms: N3_6  and  S1_8 
REMARK    3  A    between atoms: S1_8  and  C3_11 
REMARK    4  A    between atoms: C5_16  and  N6_17 
ROOT
HETATM    1  C3  UNL     1     -12.297  -9.468  -6.561  1.00  0.00     0.190 A 
HETATM    2  C4  UNL     1     -13.404  -8.843  -7.052  1.00  0.00     0.160 A 
HETATM    3  N4  UNL     1     -13.351  -7.458  -7.322  1.00  0.00    -0.080 NA
HETATM    4  N5  UNL     1     -14.516  -9.561  -7.265  1.00  0.00    -0.177 N 
ATOM      5  H5  UNL     1     -15.342  -9.089  -7.632  1.00  0.00     0.185 HD
HETATM    6  C5  UNL     1     -14.582 -10.880  -7.014  1.00  0.00     0.680 A 
HETATM    7  N7  UNL     1     -13.506 -11.517  -6.531  1.00  0.00    -0.155 N 
ATOM      8  H7  UNL     1     -13.549 -12.517  -6.337  1.00  0.00     0.187 HD
HETATM    9  C6  UNL     1     -12.359 -10.826  -6.300  1.00  0.00     0.286 A 
HETATM   10  O3  UNL     1     -11.361 -11.466  -5.842  1.00  0.00    -0.266 OA
ENDROOT
BRANCH   1  11
HETATM   11  S1  UNL     1     -10.811  -8.597  -6.257  1.00  0.00     0.285 S 
HETATM   12  O1  UNL     1     -10.036  -8.406  -7.527  1.00  0.00    -0.199 OA
HETATM   13  O2  UNL     1     -11.205  -7.245  -5.701  1.00  0.00    -0.199 OA
BRANCH  11  14
HETATM   14  N3  UNL     1      -9.871  -9.496  -5.154  1.00  0.00    -0.222 N 
ATOM     15  H3  UNL     1      -9.877 -10.516  -5.178  1.00  0.00     0.200 HD
BRANCH  14  16
HETATM   16  N2  UNL     1      -9.094  -8.813  -4.221  1.00  0.00    -0.282 N 
HETATM   17  C2  UNL     1      -8.490  -9.485  -3.312  1.00  0.00     0.104 C 
HETATM   18  C1  UNL     1      -7.655  -8.781  -2.303  1.00  0.00     0.086 C 
HETATM   19  N1  UNL     1      -8.629 -10.893  -3.283  1.00  0.00    -0.087 NA
ATOM     20  H2  UNL     1      -9.009  -7.798  -4.261  1.00  0.00     0.188 HD
ENDBRANCH  14  16
ENDBRANCH  11  14
ENDBRANCH   1  11
BRANCH   6  21
HETATM   21  N6  UNL     1     -15.662 -11.544  -7.228  1.00  0.00    -0.234 N 
ATOM     22  H62 UNL     1     -15.645 -12.561  -7.154  1.00  0.00     0.174 HD
ATOM     23  H61 UNL     1     -16.534 -11.071  -7.469  1.00  0.00     0.174 HD
ENDBRANCH   6  21
TORSDOF 4
ENDMDL
MODEL 4
REMARK VINA RESULT: -5.920922427      1.728      5.829
REMARK  4 active torsions:
REMARK  status: ('A' for Active; 'I' for Inactive)
REMARK    1  A    between atoms: N2_4  and  N3_6 
REMARK    2  A    between atoms: N3_6  and  S1_8 
REMARK    3  A    between atoms: S1_8  and  C3_11 
REMARK    4  A    between atoms: C5_16  and  N6_17 
ROOT
HETATM    1  C3  UNL     1     -16.190  -6.567  -4.646  1.00  0.00     0.190 A 
HETATM    2  C4  UNL     1     -17.256  -7.032  -3.938  1.00  0.00     0.160 A 
HETATM    3  N4  UNL     1     -17.530  -8.417  -3.933  1.00  0.00    -0.080 NA
HETATM    4  N5  UNL     1     -18.021  -6.160  -3.264  1.00  0.00    -0.177 N 
ATOM      5  H5  UNL     1     -18.819  -6.512  -2.736  1.00  0.00     0.185 HD
HETATM    6  C5  UNL     1     -17.774  -4.839  -3.259  1.00  0.00     0.680 A 
HETATM    7  N7  UNL     1     -16.730  -4.357  -3.948  1.00  0.00    -0.155 N 
ATOM      8  H7  UNL     1     -16.537  -3.356  -3.950  1.00  0.00     0.187 HD
HETATM    9  C6  UNL     1     -15.930  -5.207  -4.644  1.00  0.00     0.286 A 
HETATM   10  O3  UNL     1     -14.951  -4.711  -5.285  1.00  0.00    -0.266 OA
ENDROOT
BRANCH   1  11
HETATM   11  S1  UNL     1     -15.148  -7.643  -5.549  1.00  0.00     0.285 S 
HETATM   12  O1  UNL     1     -14.264  -6.871  -6.482  1.00  0.00    -0.199 OA
HETATM   13  O2  UNL     1     -14.293  -8.373  -4.535  1.00  0.00    -0.199 OA
BRANCH  11  14
HETATM   14  N3  UNL     1     -16.124  -8.711  -6.453  1.00  0.00    -0.222 N 
ATOM     15  H3  UNL     1     -16.669  -8.370  -7.246  1.00  0.00     0.200 HD
BRANCH  14  16
HETATM   16  N2  UNL     1     -16.163 -10.055  -6.091  1.00  0.00    -0.282 N 
HETATM   17  C2  UNL     1     -15.256 -10.841  -6.540  1.00  0.00     0.104 C 
HETATM   18  C1  UNL     1     -15.274 -12.281  -6.169  1.00  0.00     0.086 C 
HETATM   19  N1  UNL     1     -14.247 -10.324  -7.386  1.00  0.00    -0.087 NA
ATOM     20  H2  UNL     1     -16.900 -10.406  -5.480  1.00  0.00     0.188 HD
ENDBRANCH  14  16
ENDBRANCH  11  14
ENDBRANCH   1  11
BRANCH   6  21
HETATM   21  N6  UNL     1     -18.524  -4.025  -2.604  1.00  0.00    -0.234 N 
ATOM     22  H62 UNL     1     -19.476  -3.856  -2.926  1.00  0.00     0.174 HD
ATOM     23  H61 UNL     1     -18.182  -3.548  -1.769  1.00  0.00     0.174 HD
ENDBRANCH   6  21
TORSDOF 4
ENDMDL
MODEL 5
REMARK VINA RESULT: -5.875566240      1.852      5.456
REMARK  4 active torsions:
REMARK  status: ('A' for Active; 'I' for Inactive)
REMARK    1  A    between atoms: N2_4  and  N3_6 
REMARK    2  A    between atoms: N3_6  and  S1_8 
REMARK    3  A    between atoms: S1_8  and  C3_11 
REMARK    4  A    between atoms: C5_16  and  N6_17 
ROOT
HETATM    1  C3  UNL     1     -15.011  -7.019  -5.950  1.00  0.00     0.190 A 
HETATM    2  C4  UNL     1     -16.116  -7.500  -5.316  1.00  0.00     0.160 A 
HETATM    3  N4  UNL     1     -16.113  -8.828  -4.836  1.00  0.00    -0.080 NA
HETATM    4  N5  UNL     1     -17.181  -6.699  -5.164  1.00  0.00    -0.177 N 
ATOM      5  H5  UNL     1     -18.006  -7.063  -4.689  1.00  0.00     0.185 HD
HETATM    6  C5  UNL     1     -17.200  -5.432  -5.615  1.00  0.00     0.680 A 
HETATM    7  N7  UNL     1     -16.124  -4.936  -6.243  1.00  0.00    -0.155 N 
ATOM      8  H7  UNL     1     -16.131  -3.977  -6.588  1.00  0.00     0.187 HD
HETATM    9  C6  UNL     1     -15.025  -5.716  -6.417  1.00  0.00     0.286 A 
HETATM   10  O3  UNL     1     -14.025  -5.208  -7.017  1.00  0.00    -0.266 OA
ENDROOT
BRANCH   1  11
HETATM   11  S1  UNL     1     -13.586  -8.005  -6.185  1.00  0.00     0.285 S 
HETATM   12  O1  UNL     1     -12.413  -7.160  -6.583  1.00  0.00    -0.199 OA
HETATM   13  O2  UNL     1     -13.296  -8.673  -4.857  1.00  0.00    -0.199 OA
BRANCH  11  14
HETATM   14  N3  UNL     1     -13.907  -9.139  -7.418  1.00  0.00    -0.222 N 
ATOM     15  H3  UNL     1     -13.440  -9.068  -8.323  1.00  0.00     0.200 HD
BRANCH  14  16
HETATM   16  N2  UNL     1     -14.817 -10.162  -7.168  1.00  0.00    -0.282 N 
HETATM   17  C2  UNL     1     -14.375 -11.296  -6.766  1.00  0.00     0.104 C 
HETATM   18  C1  UNL     1     -15.324 -12.407  -6.492  1.00  0.00     0.086 C 
HETATM   19  N1  UNL     1     -12.982 -11.473  -6.588  1.00  0.00    -0.087 NA
ATOM     20  H2  UNL     1     -15.817 -10.013  -7.304  1.00  0.00     0.188 HD
ENDBRANCH  14  16
ENDBRANCH  11  14
ENDBRANCH   1  11
BRANCH   6  21
HETATM   21  N6  UNL     1     -18.235  -4.686  -5.456  1.00  0.00    -0.234 N 
ATOM     22  H62 UNL     1     -18.941  -4.650  -6.191  1.00  0.00     0.174 HD
ATOM     23  H61 UNL     1     -18.360  -4.131  -4.609  1.00  0.00     0.174 HD
ENDBRANCH   6  21
TORSDOF 4
ENDMDL
