MODEL 1
REMARK VINA RESULT: -8.791738489      0.000      0.000
REMARK  11 active torsions:
REMARK  status: ('A' for Active; 'I' for Inactive)
REMARK    1  A    between atoms: C2_2  and  C3_3 
REMARK    2  A    between atoms: C3_3  and  C4_4 
REMARK    3  A    between atoms: C4_4  and  C5_5 
REMARK    4  A    between atoms: C5_5  and  C6_6 
REMARK    5  A    between atoms: C6_6  and  O1_7 
REMARK    6  A    between atoms: O1_7  and  C7_8 
REMARK    7  A    between atoms: C8_10  and  C9_11 
REMARK    8  A    between atoms: C9_11  and  O3_12 
REMARK    9  A    between atoms: C10_14  and  O4_15 
REMARK   10  A    between atoms: C11_17  and  O5_18 
REMARK   11  A    between atoms: C12_20  and  O6_21 
ROOT
HETATM    1  C7  UNL     1      48.718  26.804  14.632  1.00  0.00     0.291 C 
HETATM    2  O2  UNL     1      47.676  27.730  14.411  1.00  0.00    -0.348 OA
HETATM    3  C8  UNL     1      47.916  28.559  13.333  1.00  0.00     0.179 C 
HETATM    4  C10 UNL     1      49.366  28.980  13.242  1.00  0.00     0.180 C 
HETATM    5  C11 UNL     1      50.004  28.893  14.613  1.00  0.00     0.183 C 
HETATM    6  C12 UNL     1      49.910  27.507  15.203  1.00  0.00     0.204 C 
ENDROOT
BRANCH   1   7
HETATM    7  O1  UNL     1      48.210  25.818  15.418  1.00  0.00    -0.359 OA
BRANCH   7   8
HETATM    8  C6  UNL     1      49.022  24.814  15.845  1.00  0.00     0.171 C 
BRANCH   8   9
HETATM    9  C5  UNL     1      48.994  23.623  14.951  1.00  0.00     0.029 C 
BRANCH   9  10
HETATM   10  C4  UNL     1      49.752  22.432  15.388  1.00  0.00     0.046 C 
BRANCH  10  11
HETATM   11  C3  UNL     1      50.645  21.745  14.416  1.00  0.00     0.126 C 
HETATM   12  O7  UNL     1      50.066  21.378  13.221  1.00  0.00    -0.374 OA
HETATM   13  C13 UNL     1      50.714  20.212  12.802  1.00  0.00     0.175 C 
HETATM   14  C14 UNL     1      50.925  19.431  14.111  1.00  0.00     0.108 C 
HETATM   15  C15 UNL     1      51.434  20.597  14.969  1.00  0.00     0.276 C 
HETATM   16  F1  UNL     1      52.800  20.685  14.630  1.00  0.00    -0.203 F 
HETATM   17  F2  UNL     1      51.285  20.374  16.304  1.00  0.00    -0.203 F 
BRANCH  11  18
HETATM   18  C2  UNL     1      51.737  22.798  14.043  1.00  0.00     0.040 C 
HETATM   19  C1  UNL     1      52.155  23.595  15.235  1.00  0.00     0.008 C 
ENDBRANCH  11  18
ENDBRANCH  10  11
ENDBRANCH   9  10
ENDBRANCH   8   9
ENDBRANCH   7   8
ENDBRANCH   1   7
BRANCH   6  20
HETATM   20  O6  UNL     1      51.080  26.857  14.918  1.00  0.00    -0.388 OA
ATOM     21  H6  UNL     1      51.182  26.694  13.988  1.00  0.00     0.210 HD
ENDBRANCH   6  20
BRANCH   3  22
HETATM   22  C9  UNL     1      47.539  27.854  12.066  1.00  0.00     0.198 C 
BRANCH  22  23
HETATM   23  O3  UNL     1      46.151  27.666  11.984  1.00  0.00    -0.398 OA
ATOM     24  H3  UNL     1      45.940  26.891  11.477  1.00  0.00     0.209 HD
ENDBRANCH  22  23
ENDBRANCH   3  22
BRANCH   5  25
HETATM   25  O5  UNL     1      51.326  29.323  14.472  1.00  0.00    -0.390 OA
ATOM     26  H5  UNL     1      51.880  28.617  14.783  1.00  0.00     0.210 HD
ENDBRANCH   5  25
BRANCH   4  27
HETATM   27  O4  UNL     1      49.411  30.305  12.831  1.00  0.00    -0.390 OA
ATOM     28  H4  UNL     1      50.298  30.501  12.554  1.00  0.00     0.210 HD
ENDBRANCH   4  27
TORSDOF 11
ENDMDL
MODEL 2
REMARK VINA RESULT: -8.329271437      0.969      1.204
REMARK  11 active torsions:
REMARK  status: ('A' for Active; 'I' for Inactive)
REMARK    1  A    between atoms: C2_2  and  C3_3 
REMARK    2  A    between atoms: C3_3  and  C4_4 
REMARK    3  A    between atoms: C4_4  and  C5_5 
REMARK    4  A    between atoms: C5_5  and  C6_6 
REMARK    5  A    between atoms: C6_6  and  O1_7 
REMARK    6  A    between atoms: O1_7  and  C7_8 
REMARK    7  A    between atoms: C8_10  and  C9_11 
REMARK    8  A    between atoms: C9_11  and  O3_12 
REMARK    9  A    between atoms: C10_14  and  O4_15 
REMARK   10  A    between atoms: C11_17  and  O5_18 
REMARK   11  A    between atoms: C12_20  and  O6_21 
ROOT
HETATM    1  C7  UNL     1      49.158  26.205  14.521  1.00  0.00     0.291 C 
HETATM    2  O2  UNL     1      48.036  27.055  14.424  1.00  0.00    -0.348 OA
HETATM    3  C8  UNL     1      48.244  28.118  13.568  1.00  0.00     0.179 C 
HETATM    4  C10 UNL     1      49.643  28.682  13.679  1.00  0.00     0.180 C 
HETATM    5  C11 UNL     1      50.211  28.357  15.046  1.00  0.00     0.183 C 
HETATM    6  C12 UNL     1      50.235  26.873  15.319  1.00  0.00     0.204 C 
ENDROOT
BRANCH   1   7
HETATM    7  O1  UNL     1      48.718  25.027  15.040  1.00  0.00    -0.359 OA
BRANCH   7   8
HETATM    8  C6  UNL     1      49.615  24.131  15.530  1.00  0.00     0.171 C 
BRANCH   8   9
HETATM    9  C5  UNL     1      50.301  23.351  14.463  1.00  0.00     0.029 C 
BRANCH   9  10
HETATM   10  C4  UNL     1      49.894  21.940  14.288  1.00  0.00     0.046 C 
BRANCH  10  11
HETATM   11  C3  UNL     1      50.902  20.948  13.825  1.00  0.00     0.126 C 
HETATM   12  O7  UNL     1      50.510  20.131  12.786  1.00  0.00    -0.374 OA
HETATM   13  C13 UNL     1      51.163  18.908  12.969  1.00  0.00     0.175 C 
HETATM   14  C14 UNL     1      51.120  18.705  14.494  1.00  0.00     0.108 C 
HETATM   15  C15 UNL     1      51.535  20.124  14.905  1.00  0.00     0.276 C 
HETATM   16  F1  UNL     1      52.941  20.102  14.795  1.00  0.00    -0.203 F 
HETATM   17  F2  UNL     1      51.158  20.437  16.176  1.00  0.00    -0.203 F 
BRANCH  11  18
HETATM   18  C2  UNL     1      52.088  21.795  13.263  1.00  0.00     0.040 C 
HETATM   19  C1  UNL     1      52.483  21.340  11.896  1.00  0.00     0.008 C 
ENDBRANCH  11  18
ENDBRANCH  10  11
ENDBRANCH   9  10
ENDBRANCH   8   9
ENDBRANCH   7   8
ENDBRANCH   1   7
BRANCH   6  20
HETATM   20  O6  UNL     1      51.482  26.413  14.992  1.00  0.00    -0.388 OA
ATOM     21  H6  UNL     1      51.918  26.976  14.364  1.00  0.00     0.210 HD
ENDBRANCH   6  20
BRANCH   3  22
HETATM   22  C9  UNL     1      48.015  27.676  12.155  1.00  0.00     0.198 C 
BRANCH  22  23
HETATM   23  O3  UNL     1      46.645  27.626  11.855  1.00  0.00    -0.398 OA
ATOM     24  H3  UNL     1      46.452  28.099  11.054  1.00  0.00     0.209 HD
ENDBRANCH  22  23
ENDBRANCH   3  22
BRANCH   5  25
HETATM   25  O5  UNL     1      51.485  28.930  15.100  1.00  0.00    -0.390 OA
ATOM     26  H5  UNL     1      52.034  28.331  15.593  1.00  0.00     0.210 HD
ENDBRANCH   5  25
BRANCH   4  27
HETATM   27  O4  UNL     1      49.567  30.064  13.564  1.00  0.00    -0.390 OA
ATOM     28  H4  UNL     1      48.656  30.320  13.647  1.00  0.00     0.210 HD
ENDBRANCH   4  27
TORSDOF 11
ENDMDL
MODEL 3
REMARK VINA RESULT: -8.148103247      1.418      1.830
REMARK  11 active torsions:
REMARK  status: ('A' for Active; 'I' for Inactive)
REMARK    1  A    between atoms: C2_2  and  C3_3 
REMARK    2  A    between atoms: C3_3  and  C4_4 
REMARK    3  A    between atoms: C4_4  and  C5_5 
REMARK    4  A    between atoms: C5_5  and  C6_6 
REMARK    5  A    between atoms: C6_6  and  O1_7 
REMARK    6  A    between atoms: O1_7  and  C7_8 
REMARK    7  A    between atoms: C8_10  and  C9_11 
REMARK    8  A    between atoms: C9_11  and  O3_12 
REMARK    9  A    between atoms: C10_14  and  O4_15 
REMARK   10  A    between atoms: C11_17  and  O5_18 
REMARK   11  A    between atoms: C12_20  and  O6_21 
ROOT
HETATM    1  C7  UNL     1      49.296  26.228  14.433  1.00  0.00     0.291 C 
HETATM    2  O2  UNL     1      48.127  27.015  14.353  1.00  0.00    -0.348 OA
HETATM    3  C8  UNL     1      48.268  28.100  13.511  1.00  0.00     0.179 C 
HETATM    4  C10 UNL     1      49.634  28.740  13.621  1.00  0.00     0.180 C 
HETATM    5  C11 UNL     1      50.229  28.430  14.980  1.00  0.00     0.183 C 
HETATM    6  C12 UNL     1      50.338  26.946  15.232  1.00  0.00     0.204 C 
ENDROOT
BRANCH   1   7
HETATM    7  O1  UNL     1      48.926  25.021  14.937  1.00  0.00    -0.359 OA
BRANCH   7   8
HETATM    8  C6  UNL     1      49.857  24.227  15.532  1.00  0.00     0.171 C 
BRANCH   8   9
HETATM    9  C5  UNL     1      50.729  23.520  14.553  1.00  0.00     0.029 C 
BRANCH   9  10
HETATM   10  C4  UNL     1      50.386  22.119  14.230  1.00  0.00     0.046 C 
BRANCH  10  11
HETATM   11  C3  UNL     1      51.422  21.243  13.617  1.00  0.00     0.126 C 
HETATM   12  O7  UNL     1      52.411  21.887  12.905  1.00  0.00    -0.374 OA
HETATM   13  C13 UNL     1      52.794  21.019  11.878  1.00  0.00     0.175 C 
HETATM   14  C14 UNL     1      51.465  20.388  11.428  1.00  0.00     0.108 C 
HETATM   15  C15 UNL     1      50.895  20.087  12.821  1.00  0.00     0.276 C 
HETATM   16  F1  UNL     1      51.519  18.874  13.178  1.00  0.00    -0.203 F 
HETATM   17  F2  UNL     1      49.541  19.948  12.818  1.00  0.00    -0.203 F 
BRANCH  11  18
HETATM   18  C2  UNL     1      52.151  20.562  14.820  1.00  0.00     0.040 C 
HETATM   19  C1  UNL     1      51.188  20.186  15.898  1.00  0.00     0.008 C 
ENDBRANCH  11  18
ENDBRANCH  10  11
ENDBRANCH   9  10
ENDBRANCH   8   9
ENDBRANCH   7   8
ENDBRANCH   1   7
BRANCH   6  20
HETATM   20  O6  UNL     1      51.607  26.562  14.891  1.00  0.00    -0.388 OA
ATOM     21  H6  UNL     1      51.689  26.378  13.963  1.00  0.00     0.210 HD
ENDBRANCH   6  20
BRANCH   3  22
HETATM   22  C9  UNL     1      48.055  27.664  12.093  1.00  0.00     0.198 C 
BRANCH  22  23
HETATM   23  O3  UNL     1      46.690  27.648  11.768  1.00  0.00    -0.398 OA
ATOM     24  H3  UNL     1      46.155  27.522  12.543  1.00  0.00     0.209 HD
ENDBRANCH  22  23
ENDBRANCH   3  22
BRANCH   5  25
HETATM   25  O5  UNL     1      51.469  29.073  15.034  1.00  0.00    -0.390 OA
ATOM     26  H5  UNL     1      52.062  28.487  15.491  1.00  0.00     0.210 HD
ENDBRANCH   5  25
BRANCH   4  27
HETATM   27  O4  UNL     1      49.479  30.117  13.526  1.00  0.00    -0.390 OA
ATOM     28  H4  UNL     1      49.380  30.467  14.403  1.00  0.00     0.210 HD
ENDBRANCH   4  27
TORSDOF 11
ENDMDL
MODEL 4
REMARK VINA RESULT: -8.142661856      3.208      7.749
REMARK  11 active torsions:
REMARK  status: ('A' for Active; 'I' for Inactive)
REMARK    1  A    between atoms: C2_2  and  C3_3 
REMARK    2  A    between atoms: C3_3  and  C4_4 
REMARK    3  A    between atoms: C4_4  and  C5_5 
REMARK    4  A    between atoms: C5_5  and  C6_6 
REMARK    5  A    between atoms: C6_6  and  O1_7 
REMARK    6  A    between atoms: O1_7  and  C7_8 
REMARK    7  A    between atoms: C8_10  and  C9_11 
REMARK    8  A    between atoms: C9_11  and  O3_12 
REMARK    9  A    between atoms: C10_14  and  O4_15 
REMARK   10  A    between atoms: C11_17  and  O5_18 
REMARK   11  A    between atoms: C12_20  and  O6_21 
ROOT
HETATM    1  C7  UNL     1      51.579  21.596  13.868  1.00  0.00     0.291 C 
HETATM    2  O2  UNL     1      50.520  20.728  14.207  1.00  0.00    -0.348 OA
HETATM    3  C8  UNL     1      50.861  19.395  14.086  1.00  0.00     0.179 C 
HETATM    4  C10 UNL     1      51.730  19.131  12.876  1.00  0.00     0.180 C 
HETATM    5  C11 UNL     1      51.500  20.215  11.843  1.00  0.00     0.183 C 
HETATM    6  C12 UNL     1      51.783  21.595  12.385  1.00  0.00     0.204 C 
ENDROOT
BRANCH   1   7
HETATM    7  O1  UNL     1      51.278  22.812  14.397  1.00  0.00    -0.359 OA
BRANCH   7   8
HETATM    8  C6  UNL     1      50.371  22.900  15.407  1.00  0.00     0.171 C 
BRANCH   8   9
HETATM    9  C5  UNL     1      49.318  23.922  15.156  1.00  0.00     0.029 C 
BRANCH   9  10
HETATM   10  C4  UNL     1      49.730  25.165  14.472  1.00  0.00     0.046 C 
BRANCH  10  11
HETATM   11  C3  UNL     1      49.456  26.475  15.124  1.00  0.00     0.126 C 
HETATM   12  O7  UNL     1      48.795  26.421  16.332  1.00  0.00    -0.374 OA
HETATM   13  C13 UNL     1      48.019  27.581  16.416  1.00  0.00     0.175 C 
HETATM   14  C14 UNL     1      47.499  27.769  14.981  1.00  0.00     0.108 C 
HETATM   15  C15 UNL     1      48.820  27.509  14.245  1.00  0.00     0.276 C 
HETATM   16  F1  UNL     1      49.489  28.748  14.320  1.00  0.00    -0.203 F 
HETATM   17  F2  UNL     1      48.638  27.141  12.947  1.00  0.00    -0.203 F 
BRANCH  11  18
HETATM   18  C2  UNL     1      50.862  27.078  15.446  1.00  0.00     0.040 C 
HETATM   19  C1  UNL     1      51.953  26.103  15.146  1.00  0.00     0.008 C 
ENDBRANCH  11  18
ENDBRANCH  10  11
ENDBRANCH   9  10
ENDBRANCH   8   9
ENDBRANCH   7   8
ENDBRANCH   1   7
BRANCH   6  20
HETATM   20  O6  UNL     1      53.068  21.917  12.039  1.00  0.00    -0.388 OA
ATOM     21  H6  UNL     1      53.175  22.848  11.883  1.00  0.00     0.210 HD
ENDBRANCH   6  20
BRANCH   3  22
HETATM   22  C9  UNL     1      51.598  18.954  15.313  1.00  0.00     0.198 C 
BRANCH  22  23
HETATM   23  O3  UNL     1      51.446  17.575  15.526  1.00  0.00    -0.398 OA
ATOM     24  H3  UNL     1      51.753  17.327  16.391  1.00  0.00     0.209 HD
ENDBRANCH  22  23
ENDBRANCH   3  22
BRANCH   5  25
HETATM   25  O5  UNL     1      52.300  19.900  10.741  1.00  0.00    -0.390 OA
ATOM     26  H5  UNL     1      51.839  20.208   9.969  1.00  0.00     0.210 HD
ENDBRANCH   5  25
BRANCH   4  27
HETATM   27  O4  UNL     1      51.345  17.919  12.319  1.00  0.00    -0.390 OA
ATOM     28  H4  UNL     1      52.116  17.502  11.952  1.00  0.00     0.210 HD
ENDBRANCH   4  27
TORSDOF 11
ENDMDL
MODEL 5
REMARK VINA RESULT: -8.072575796      3.090      7.731
REMARK  11 active torsions:
REMARK  status: ('A' for Active; 'I' for Inactive)
REMARK    1  A    between atoms: C2_2  and  C3_3 
REMARK    2  A    between atoms: C3_3  and  C4_4 
REMARK    3  A    between atoms: C4_4  and  C5_5 
REMARK    4  A    between atoms: C5_5  and  C6_6 
REMARK    5  A    between atoms: C6_6  and  O1_7 
REMARK    6  A    between atoms: O1_7  and  C7_8 
REMARK    7  A    between atoms: C8_10  and  C9_11 
REMARK    8  A    between atoms: C9_11  and  O3_12 
REMARK    9  A    between atoms: C10_14  and  O4_15 
REMARK   10  A    between atoms: C11_17  and  O5_18 
REMARK   11  A    between atoms: C12_20  and  O6_21 
ROOT
HETATM    1  C7  UNL     1      51.884  21.513  13.351  1.00  0.00     0.291 C 
HETATM    2  O2  UNL     1      52.645  20.847  12.366  1.00  0.00    -0.348 OA
HETATM    3  C8  UNL     1      52.000  19.741  11.849  1.00  0.00     0.179 C 
HETATM    4  C10 UNL     1      51.247  18.967  12.908  1.00  0.00     0.180 C 
HETATM    5  C11 UNL     1      51.863  19.237  14.266  1.00  0.00     0.183 C 
HETATM    6  C12 UNL     1      51.868  20.706  14.612  1.00  0.00     0.204 C 
ENDROOT
BRANCH   1   7
HETATM    7  O1  UNL     1      52.412  22.759  13.483  1.00  0.00    -0.359 OA
BRANCH   7   8
HETATM    8  C6  UNL     1      52.067  23.525  14.552  1.00  0.00     0.171 C 
BRANCH   8   9
HETATM    9  C5  UNL     1      51.597  24.885  14.166  1.00  0.00     0.029 C 
BRANCH   9  10
HETATM   10  C4  UNL     1      51.012  25.726  15.232  1.00  0.00     0.046 C 
BRANCH  10  11
HETATM   11  C3  UNL     1      49.707  26.399  14.989  1.00  0.00     0.126 C 
HETATM   12  O7  UNL     1      49.174  26.243  13.728  1.00  0.00    -0.374 OA
HETATM   13  C13 UNL     1      48.460  27.412  13.446  1.00  0.00     0.175 C 
HETATM   14  C14 UNL     1      49.340  28.521  14.047  1.00  0.00     0.108 C 
HETATM   15  C15 UNL     1      49.645  27.843  15.389  1.00  0.00     0.276 C 
HETATM   16  F1  UNL     1      48.504  28.124  16.168  1.00  0.00    -0.203 F 
HETATM   17  F2  UNL     1      50.766  28.332  15.986  1.00  0.00    -0.203 F 
BRANCH  11  18
HETATM   18  C2  UNL     1      48.697  25.704  15.957  1.00  0.00     0.040 C 
HETATM   19  C1  UNL     1      48.814  24.216  15.889  1.00  0.00     0.008 C 
ENDBRANCH  11  18
ENDBRANCH  10  11
ENDBRANCH   9  10
ENDBRANCH   8   9
ENDBRANCH   7   8
ENDBRANCH   1   7
BRANCH   6  20
HETATM   20  O6  UNL     1      50.755  20.954  15.370  1.00  0.00    -0.388 OA
ATOM     21  H6  UNL     1      50.952  20.976  16.299  1.00  0.00     0.210 HD
ENDBRANCH   6  20
BRANCH   3  22
HETATM   22  C9  UNL     1      51.033  20.174  10.790  1.00  0.00     0.198 C 
BRANCH  22  23
HETATM   23  O3  UNL     1      51.519  19.877   9.508  1.00  0.00    -0.398 OA
ATOM     24  H3  UNL     1      50.955  19.256   9.063  1.00  0.00     0.209 HD
ENDBRANCH  22  23
ENDBRANCH   3  22
BRANCH   5  25
HETATM   25  O5  UNL     1      51.149  18.473  15.193  1.00  0.00    -0.390 OA
ATOM     26  H5  UNL     1      51.789  18.075  15.772  1.00  0.00     0.210 HD
ENDBRANCH   5  25
BRANCH   4  27
HETATM   27  O4  UNL     1      51.382  17.612  12.638  1.00  0.00    -0.390 OA
ATOM     28  H4  UNL     1      51.537  17.508  11.706  1.00  0.00     0.210 HD
ENDBRANCH   4  27
TORSDOF 11
ENDMDL
