MODEL 1
REMARK VINA RESULT: -5.066367271      0.000      0.000
REMARK  3 active torsions:
REMARK  status: ('A' for Active; 'I' for Inactive)
REMARK    1  A    between atoms: N1_2  and  C2_4 
REMARK    2  A    between atoms: C2_4  and  C3_5 
REMARK    3  A    between atoms: C3_5  and  N2_6 
ROOT
HETATM    1  N2  UNL     1      -1.542  29.664  -9.264  1.00  0.00     0.090 N 
HETATM    2  C4  UNL     1      -1.557  30.821 -10.071  1.00  0.00     0.273 C 
HETATM    3  C5  UNL     1      -1.903  30.435 -11.515  1.00  0.00     0.034 C 
HETATM    4  C6  UNL     1      -3.107  29.568 -11.622  1.00  0.00    -0.015 C 
HETATM    5  C7  UNL     1      -4.094  30.041 -12.679  1.00  0.00     0.010 C 
HETATM    6  C8  UNL     1      -3.759  29.519 -10.264  1.00  0.00     0.034 C 
HETATM    7  C9  UNL     1      -2.779  28.889  -9.328  1.00  0.00     0.273 C 
ENDROOT
BRANCH   1   8
HETATM    8  C3  UNL     1      -1.182  29.764  -7.909  1.00  0.00     0.291 C 
BRANCH   8   9
HETATM    9  C2  UNL     1      -2.117  29.301  -6.866  1.00  0.00     0.143 C 
BRANCH   9  10
HETATM   10  N1  UNL     1      -2.751  30.283  -6.059  1.00  0.00    -0.424 N 
HETATM   11  C1  UNL     1      -3.236  29.830  -4.804  1.00  0.00     0.139 C 
ATOM     12  H1  UNL     1      -2.851  31.252  -6.362  1.00  0.00     0.152 HD
ENDBRANCH   9  10
ENDBRANCH   8   9
ENDBRANCH   1   8
TORSDOF 3
ENDMDL
MODEL 2
REMARK VINA RESULT: -5.010334873      1.497      2.405
REMARK  3 active torsions:
REMARK  status: ('A' for Active; 'I' for Inactive)
REMARK    1  A    between atoms: N1_2  and  C2_4 
REMARK    2  A    between atoms: C2_4  and  C3_5 
REMARK    3  A    between atoms: C3_5  and  N2_6 
ROOT
HETATM    1  N2  UNL     1      -2.912  30.837 -10.764  1.00  0.00     0.090 N 
HETATM    2  C4  UNL     1      -3.639  29.639 -10.931  1.00  0.00     0.273 C 
HETATM    3  C5  UNL     1      -3.814  29.349 -12.428  1.00  0.00     0.034 C 
HETATM    4  C6  UNL     1      -2.544  29.436 -13.199  1.00  0.00    -0.015 C 
HETATM    5  C7  UNL     1      -2.319  28.248 -14.121  1.00  0.00     0.010 C 
HETATM    6  C8  UNL     1      -1.415  29.569 -12.210  1.00  0.00     0.034 C 
HETATM    7  C9  UNL     1      -1.630  30.847 -11.464  1.00  0.00     0.273 C 
ENDROOT
BRANCH   1   8
HETATM    8  C3  UNL     1      -2.686  31.341  -9.472  1.00  0.00     0.291 C 
BRANCH   8   9
HETATM    9  C2  UNL     1      -2.081  30.475  -8.442  1.00  0.00     0.143 C 
BRANCH   9  10
HETATM   10  N1  UNL     1      -2.694  30.438  -7.161  1.00  0.00    -0.424 N 
HETATM   11  C1  UNL     1      -2.321  29.349  -6.331  1.00  0.00     0.139 C 
ATOM     12  H1  UNL     1      -3.360  31.149  -6.858  1.00  0.00     0.152 HD
ENDBRANCH   9  10
ENDBRANCH   8   9
ENDBRANCH   1   8
TORSDOF 3
ENDMDL
MODEL 3
REMARK VINA RESULT: -4.857148118      0.435      1.505
REMARK  3 active torsions:
REMARK  status: ('A' for Active; 'I' for Inactive)
REMARK    1  A    between atoms: N1_2  and  C2_4 
REMARK    2  A    between atoms: C2_4  and  C3_5 
REMARK    3  A    between atoms: C3_5  and  N2_6 
ROOT
HETATM    1  N2  UNL     1      -2.141  29.963  -8.983  1.00  0.00     0.090 N 
HETATM    2  C4  UNL     1      -2.921  28.870  -9.415  1.00  0.00     0.273 C 
HETATM    3  C5  UNL     1      -3.875  29.328 -10.527  1.00  0.00     0.034 C 
HETATM    4  C6  UNL     1      -3.197  30.093 -11.608  1.00  0.00    -0.015 C 
HETATM    5  C7  UNL     1      -3.568  29.615 -13.004  1.00  0.00     0.010 C 
HETATM    6  C8  UNL     1      -1.711  29.988 -11.382  1.00  0.00     0.034 C 
HETATM    7  C9  UNL     1      -1.420  30.631 -10.064  1.00  0.00     0.273 C 
ENDROOT
BRANCH   1   8
HETATM    8  C3  UNL     1      -1.238  29.797  -7.919  1.00  0.00     0.291 C 
BRANCH   8   9
HETATM    9  C2  UNL     1      -1.742  29.453  -6.576  1.00  0.00     0.143 C 
BRANCH   9  10
HETATM   10  N1  UNL     1      -2.764  30.270  -6.022  1.00  0.00    -0.424 N 
HETATM   11  C1  UNL     1      -3.268  29.854  -4.761  1.00  0.00     0.139 C 
ATOM     12  H1  UNL     1      -3.113  31.101  -6.499  1.00  0.00     0.152 HD
ENDBRANCH   9  10
ENDBRANCH   8   9
ENDBRANCH   1   8
TORSDOF 3
ENDMDL
MODEL 4
REMARK VINA RESULT: -4.847869977      3.190      5.089
REMARK  3 active torsions:
REMARK  status: ('A' for Active; 'I' for Inactive)
REMARK    1  A    between atoms: N1_2  and  C2_4 
REMARK    2  A    between atoms: C2_4  and  C3_5 
REMARK    3  A    between atoms: C3_5  and  N2_6 
ROOT
HETATM    1  N2  UNL     1      -2.026  29.811 -12.778  1.00  0.00     0.090 N 
HETATM    2  C4  UNL     1      -1.095  30.081 -11.752  1.00  0.00     0.273 C 
HETATM    3  C5  UNL     1      -1.492  31.372 -11.025  1.00  0.00     0.034 C 
HETATM    4  C6  UNL     1      -2.921  31.402 -10.612  1.00  0.00    -0.015 C 
HETATM    5  C7  UNL     1      -3.118  31.832  -9.166  1.00  0.00     0.010 C 
HETATM    6  C8  UNL     1      -3.495  30.028 -10.845  1.00  0.00     0.034 C 
HETATM    7  C9  UNL     1      -3.410  29.760 -12.313  1.00  0.00     0.273 C 
ENDROOT
BRANCH   1   8
HETATM    8  C3  UNL     1      -1.828  28.709 -13.626  1.00  0.00     0.291 C 
BRANCH   8   9
HETATM    9  C2  UNL     1      -2.981  27.884 -14.037  1.00  0.00     0.143 C 
BRANCH   9  10
HETATM   10  N1  UNL     1      -2.965  26.505 -13.699  1.00  0.00    -0.424 N 
HETATM   11  C1  UNL     1      -3.772  26.132 -12.592  1.00  0.00     0.139 C 
ATOM     12  H1  UNL     1      -2.408  25.825 -14.218  1.00  0.00     0.152 HD
ENDBRANCH   9  10
ENDBRANCH   8   9
ENDBRANCH   1   8
TORSDOF 3
ENDMDL
MODEL 5
REMARK VINA RESULT: -4.722357418      1.291      2.029
REMARK  3 active torsions:
REMARK  status: ('A' for Active; 'I' for Inactive)
REMARK    1  A    between atoms: N1_2  and  C2_4 
REMARK    2  A    between atoms: C2_4  and  C3_5 
REMARK    3  A    between atoms: C3_5  and  N2_6 
ROOT
HETATM    1  N2  UNL     1      -2.534  30.634  -9.792  1.00  0.00     0.090 N 
HETATM    2  C4  UNL     1      -3.184  29.633 -10.546  1.00  0.00     0.273 C 
HETATM    3  C5  UNL     1      -3.081  29.967 -12.040  1.00  0.00     0.034 C 
HETATM    4  C6  UNL     1      -1.697  30.297 -12.477  1.00  0.00    -0.015 C 
HETATM    5  C7  UNL     1      -1.277  29.562 -13.741  1.00  0.00     0.010 C 
HETATM    6  C8  UNL     1      -0.766  29.977 -11.336  1.00  0.00     0.034 C 
HETATM    7  C9  UNL     1      -1.149  30.864 -10.194  1.00  0.00     0.273 C 
ENDROOT
BRANCH   1   8
HETATM    8  C3  UNL     1      -2.558  30.575  -8.388  1.00  0.00     0.291 C 
BRANCH   8   9
HETATM    9  C2  UNL     1      -1.860  29.480  -7.689  1.00  0.00     0.143 C 
BRANCH   9  10
HETATM   10  N1  UNL     1      -1.468  29.696  -6.341  1.00  0.00    -0.424 N 
HETATM   11  C1  UNL     1      -2.446  29.390  -5.358  1.00  0.00     0.139 C 
ATOM     12  H1  UNL     1      -0.542  30.048  -6.095  1.00  0.00     0.152 HD
ENDBRANCH   9  10
ENDBRANCH   8   9
ENDBRANCH   1   8
TORSDOF 3
ENDMDL
