MODEL 1
REMARK VINA RESULT: -7.441047204      0.000      0.000
REMARK  18 active torsions:
REMARK  status: ('A' for Active; 'I' for Inactive)
REMARK    1  A    between atoms: C2_2  and  N1_3 
REMARK    2  A    between atoms: N1_3  and  C4_5 
REMARK    3  A    between atoms: N1_3  and  C6_7 
REMARK    4  A    between atoms: C6_7  and  C7_8 
REMARK    5  A    between atoms: C7_8  and  C8_9 
REMARK    6  A    between atoms: C8_9  and  N2_10 
REMARK    7  A    between atoms: N2_10  and  C9_11 
REMARK    8  A    between atoms: C9_11  and  C10_12 
REMARK    9  A    between atoms: C10_12  and  N3_13 
REMARK   10  A    between atoms: N3_13  and  C11_16 
REMARK   11  A    between atoms: C11_16  and  C12_17 
REMARK   12  A    between atoms: C12_17  and  C13_18 
REMARK   13  A    between atoms: C13_18  and  C14_19 
REMARK   14  A    between atoms: C14_19  and  N4_20 
REMARK   15  A    between atoms: N4_20  and  C15_23 
REMARK   16  A    between atoms: C15_23  and  C16_24 
REMARK   17  A    between atoms: C16_24  and  C17_25 
REMARK   18  A    between atoms: C17_25  and  N5_26 
ROOT
HETATM    1  N2  UNL     1     -42.947  30.108 -17.729  1.00  0.00    -0.004 N 
HETATM    2  C19 UNL     1     -41.714  30.221 -18.439  1.00  0.00     0.372 C 
HETATM    3  N8  UNL     1     -41.584  29.315 -19.590  1.00  0.00    -0.319 N 
ATOM      4  H8  UNL     1     -40.826  28.639 -19.686  1.00  0.00     0.166 HD
HETATM    5  C20 UNL     1     -42.620  29.472 -20.560  1.00  0.00     0.319 C 
HETATM    6  O1  UNL     1     -42.507  29.135 -21.769  1.00  0.00    -0.247 OA
HETATM    7  N9  UNL     1     -43.804  30.057 -20.006  1.00  0.00    -0.310 N 
ATOM      8  H9  UNL     1     -44.433  30.647 -20.552  1.00  0.00     0.166 HD
HETATM    9  C21 UNL     1     -44.046  29.744 -18.589  1.00  0.00     0.204 C 
HETATM   10  C22 UNL     1     -45.369  30.382 -18.269  1.00  0.00     0.071 C 
HETATM   11  C23 UNL     1     -44.361  28.239 -18.611  1.00  0.00     0.071 C 
ENDROOT
BRANCH   1  12
HETATM   12  C8  UNL     1     -43.236  31.343 -17.036  1.00  0.00     0.209 C 
BRANCH  12  13
HETATM   13  C7  UNL     1     -43.590  31.423 -15.653  1.00  0.00     0.050 C 
BRANCH  13  14
HETATM   14  C6  UNL     1     -44.794  31.731 -14.925  1.00  0.00     0.203 C 
BRANCH  14  15
HETATM   15  N1  UNL     1     -44.804  32.292 -13.617  1.00  0.00    -0.052 N 
HETATM   16  C3  UNL     1     -45.489  33.577 -13.547  1.00  0.00     0.278 C 
BRANCH  15  17
HETATM   17  C2  UNL     1     -43.524  32.378 -13.021  1.00  0.00     0.238 C 
HETATM   18  C1  UNL     1     -43.388  31.721 -11.653  1.00  0.00     0.035 C 
ENDBRANCH  15  17
BRANCH  15  19
HETATM   19  C4  UNL     1     -45.687  31.417 -12.790  1.00  0.00     0.238 C 
HETATM   20  C5  UNL     1     -46.763  30.744 -13.540  1.00  0.00     0.035 C 
ENDBRANCH  15  19
ENDBRANCH  14  15
ENDBRANCH  13  14
ENDBRANCH  12  13
ENDBRANCH   1  12
BRANCH   1  21
HETATM   21  C9  UNL     1     -42.859  29.091 -16.668  1.00  0.00     0.275 C 
BRANCH  21  22
HETATM   22  C10 UNL     1     -41.508  28.569 -16.388  1.00  0.00     0.260 C 
BRANCH  22  23
HETATM   23  N3  UNL     1     -41.403  27.129 -16.780  1.00  0.00    -0.073 N 
ATOM     24  H32 UNL     1     -41.517  26.958 -17.778  1.00  0.00     0.277 HD
ATOM     25  H31 UNL     1     -40.462  26.743 -16.707  1.00  0.00     0.277 HD
BRANCH  23  26
HETATM   26  C11 UNL     1     -42.378  26.466 -15.953  1.00  0.00     0.232 C 
BRANCH  26  27
HETATM   27  C12 UNL     1     -41.939  25.315 -15.137  1.00  0.00     0.029 C 
BRANCH  27  28
HETATM   28  C13 UNL     1     -40.425  25.155 -15.041  1.00  0.00     0.029 C 
BRANCH  28  29
HETATM   29  C14 UNL     1     -40.128  24.235 -13.902  1.00  0.00     0.232 C 
BRANCH  29  30
HETATM   30  N4  UNL     1     -40.086  22.837 -14.188  1.00  0.00    -0.075 N 
ATOM     31  H42 UNL     1     -40.531  22.610 -15.077  1.00  0.00     0.277 HD
ATOM     32  H41 UNL     1     -39.145  22.515 -14.411  1.00  0.00     0.277 HD
BRANCH  30  33
HETATM   33  C15 UNL     1     -40.680  22.091 -13.057  1.00  0.00     0.234 C 
BRANCH  33  34
HETATM   34  C16 UNL     1     -42.168  22.212 -12.999  1.00  0.00     0.047 C 
BRANCH  34  35
HETATM   35  C17 UNL     1     -42.940  21.389 -13.972  1.00  0.00     0.123 C 
BRANCH  35  36
HETATM   36  N5  UNL     1     -43.864  20.519 -13.282  1.00  0.00    -0.367 N 
HETATM   37  C18 UNL     1     -43.661  19.330 -12.921  1.00  0.00     0.196 C 
HETATM   38  N6  UNL     1     -42.429  18.664 -13.166  1.00  0.00    -0.067 NA
HETATM   39  N7  UNL     1     -44.725  18.664 -12.222  1.00  0.00    -0.067 NA
ATOM     40  H5  UNL     1     -44.780  20.910 -13.064  1.00  0.00     0.161 HD
ENDBRANCH  35  36
ENDBRANCH  34  35
ENDBRANCH  33  34
ENDBRANCH  30  33
ENDBRANCH  29  30
ENDBRANCH  28  29
ENDBRANCH  27  28
ENDBRANCH  26  27
ENDBRANCH  23  26
ENDBRANCH  22  23
ENDBRANCH  21  22
ENDBRANCH   1  21
TORSDOF 18
ENDMDL
MODEL 2
REMARK VINA RESULT: -7.297329671      1.646      2.198
REMARK  18 active torsions:
REMARK  status: ('A' for Active; 'I' for Inactive)
REMARK    1  A    between atoms: C2_2  and  N1_3 
REMARK    2  A    between atoms: N1_3  and  C4_5 
REMARK    3  A    between atoms: N1_3  and  C6_7 
REMARK    4  A    between atoms: C6_7  and  C7_8 
REMARK    5  A    between atoms: C7_8  and  C8_9 
REMARK    6  A    between atoms: C8_9  and  N2_10 
REMARK    7  A    between atoms: N2_10  and  C9_11 
REMARK    8  A    between atoms: C9_11  and  C10_12 
REMARK    9  A    between atoms: C10_12  and  N3_13 
REMARK   10  A    between atoms: N3_13  and  C11_16 
REMARK   11  A    between atoms: C11_16  and  C12_17 
REMARK   12  A    between atoms: C12_17  and  C13_18 
REMARK   13  A    between atoms: C13_18  and  C14_19 
REMARK   14  A    between atoms: C14_19  and  N4_20 
REMARK   15  A    between atoms: N4_20  and  C15_23 
REMARK   16  A    between atoms: C15_23  and  C16_24 
REMARK   17  A    between atoms: C16_24  and  C17_25 
REMARK   18  A    between atoms: C17_25  and  N5_26 
ROOT
HETATM    1  N2  UNL     1     -43.635  29.520 -16.924  1.00  0.00    -0.004 N 
HETATM    2  C19 UNL     1     -42.279  29.951 -16.813  1.00  0.00     0.372 C 
HETATM    3  N8  UNL     1     -41.677  30.417 -18.070  1.00  0.00    -0.319 N 
ATOM      4  H8  UNL     1     -40.831  30.010 -18.469  1.00  0.00     0.166 HD
HETATM    5  C20 UNL     1     -42.390  31.494 -18.679  1.00  0.00     0.319 C 
HETATM    6  O1  UNL     1     -41.873  32.308 -19.491  1.00  0.00    -0.247 OA
HETATM    7  N9  UNL     1     -43.760  31.548 -18.263  1.00  0.00    -0.310 N 
ATOM      8  H9  UNL     1     -44.280  32.423 -18.198  1.00  0.00     0.166 HD
HETATM    9  C21 UNL     1     -44.360  30.246 -17.938  1.00  0.00     0.204 C 
HETATM   10  C22 UNL     1     -45.800  30.547 -17.625  1.00  0.00     0.071 C 
HETATM   11  C23 UNL     1     -44.423  29.537 -19.301  1.00  0.00     0.071 C 
ENDROOT
BRANCH   1  12
HETATM   12  C8  UNL     1     -44.301  29.635 -15.647  1.00  0.00     0.209 C 
BRANCH  12  13
HETATM   13  C7  UNL     1     -43.878  30.509 -14.597  1.00  0.00     0.050 C 
BRANCH  13  14
HETATM   14  C6  UNL     1     -44.185  31.862 -14.212  1.00  0.00     0.203 C 
BRANCH  14  15
HETATM   15  N1  UNL     1     -44.450  32.260 -12.872  1.00  0.00    -0.052 N 
HETATM   16  C3  UNL     1     -45.531  31.504 -12.250  1.00  0.00     0.278 C 
BRANCH  15  17
HETATM   17  C2  UNL     1     -44.665  33.651 -12.719  1.00  0.00     0.238 C 
HETATM   18  C1  UNL     1     -46.122  34.091 -12.664  1.00  0.00     0.035 C 
ENDBRANCH  15  17
BRANCH  15  19
HETATM   19  C4  UNL     1     -43.266  31.842 -12.065  1.00  0.00     0.238 C 
HETATM   20  C5  UNL     1     -43.574  31.446 -10.679  1.00  0.00     0.035 C 
ENDBRANCH  15  19
ENDBRANCH  14  15
ENDBRANCH  13  14
ENDBRANCH  12  13
ENDBRANCH   1  12
BRANCH   1  21
HETATM   21  C9  UNL     1     -43.712  28.090 -17.262  1.00  0.00     0.275 C 
BRANCH  21  22
HETATM   22  C10 UNL     1     -42.817  27.198 -16.500  1.00  0.00     0.260 C 
BRANCH  22  23
HETATM   23  N3  UNL     1     -43.512  25.920 -16.153  1.00  0.00    -0.073 N 
ATOM     24  H32 UNL     1     -44.395  26.044 -15.659  1.00  0.00     0.277 HD
ATOM     25  H31 UNL     1     -43.901  25.424 -16.955  1.00  0.00     0.277 HD
BRANCH  23  26
HETATM   26  C11 UNL     1     -42.525  25.171 -15.417  1.00  0.00     0.232 C 
BRANCH  26  27
HETATM   27  C12 UNL     1     -41.136  25.674 -15.397  1.00  0.00     0.029 C 
BRANCH  27  28
HETATM   28  C13 UNL     1     -40.162  24.798 -14.616  1.00  0.00     0.029 C 
BRANCH  28  29
HETATM   29  C14 UNL     1     -40.907  23.603 -14.120  1.00  0.00     0.232 C 
BRANCH  29  30
HETATM   30  N4  UNL     1     -40.667  23.198 -12.773  1.00  0.00    -0.075 N 
ATOM     31  H42 UNL     1     -40.019  23.820 -12.291  1.00  0.00     0.277 HD
ATOM     32  H41 UNL     1     -41.480  23.344 -12.174  1.00  0.00     0.277 HD
BRANCH  30  33
HETATM   33  C15 UNL     1     -40.208  21.792 -12.762  1.00  0.00     0.234 C 
BRANCH  33  34
HETATM   34  C16 UNL     1     -41.158  20.875 -12.062  1.00  0.00     0.047 C 
BRANCH  34  35
HETATM   35  C17 UNL     1     -42.326  20.399 -12.855  1.00  0.00     0.123 C 
BRANCH  35  36
HETATM   36  N5  UNL     1     -43.553  20.958 -12.338  1.00  0.00    -0.367 N 
HETATM   37  C18 UNL     1     -44.375  21.686 -12.955  1.00  0.00     0.196 C 
HETATM   38  N6  UNL     1     -44.179  22.068 -14.310  1.00  0.00    -0.067 NA
HETATM   39  N7  UNL     1     -45.547  22.108 -12.240  1.00  0.00    -0.067 NA
ATOM     40  H5  UNL     1     -43.779  20.740 -11.368  1.00  0.00     0.161 HD
ENDBRANCH  35  36
ENDBRANCH  34  35
ENDBRANCH  33  34
ENDBRANCH  30  33
ENDBRANCH  29  30
ENDBRANCH  28  29
ENDBRANCH  27  28
ENDBRANCH  26  27
ENDBRANCH  23  26
ENDBRANCH  22  23
ENDBRANCH  21  22
ENDBRANCH   1  21
TORSDOF 18
ENDMDL
MODEL 3
REMARK VINA RESULT: -7.277933492      1.750      2.635
REMARK  18 active torsions:
REMARK  status: ('A' for Active; 'I' for Inactive)
REMARK    1  A    between atoms: C2_2  and  N1_3 
REMARK    2  A    between atoms: N1_3  and  C4_5 
REMARK    3  A    between atoms: N1_3  and  C6_7 
REMARK    4  A    between atoms: C6_7  and  C7_8 
REMARK    5  A    between atoms: C7_8  and  C8_9 
REMARK    6  A    between atoms: C8_9  and  N2_10 
REMARK    7  A    between atoms: N2_10  and  C9_11 
REMARK    8  A    between atoms: C9_11  and  C10_12 
REMARK    9  A    between atoms: C10_12  and  N3_13 
REMARK   10  A    between atoms: N3_13  and  C11_16 
REMARK   11  A    between atoms: C11_16  and  C12_17 
REMARK   12  A    between atoms: C12_17  and  C13_18 
REMARK   13  A    between atoms: C13_18  and  C14_19 
REMARK   14  A    between atoms: C14_19  and  N4_20 
REMARK   15  A    between atoms: N4_20  and  C15_23 
REMARK   16  A    between atoms: C15_23  and  C16_24 
REMARK   17  A    between atoms: C16_24  and  C17_25 
REMARK   18  A    between atoms: C17_25  and  N5_26 
ROOT
HETATM    1  N2  UNL     1     -43.642  30.655 -18.091  1.00  0.00    -0.004 N 
HETATM    2  C19 UNL     1     -44.287  31.927 -18.067  1.00  0.00     0.372 C 
HETATM    3  N8  UNL     1     -44.986  32.285 -19.310  1.00  0.00    -0.319 N 
ATOM      4  H8  UNL     1     -44.778  33.129 -19.844  1.00  0.00     0.166 HD
HETATM    5  C20 UNL     1     -45.982  31.339 -19.697  1.00  0.00     0.319 C 
HETATM    6  O1  UNL     1     -46.957  31.613 -20.447  1.00  0.00    -0.247 OA
HETATM    7  N9  UNL     1     -45.751  30.040 -19.137  1.00  0.00    -0.310 N 
ATOM      8  H9  UNL     1     -46.510  29.399 -18.906  1.00  0.00     0.166 HD
HETATM    9  C21 UNL     1     -44.336  29.702 -18.922  1.00  0.00     0.204 C 
HETATM   10  C22 UNL     1     -44.346  28.283 -18.424  1.00  0.00     0.071 C 
HETATM   11  C23 UNL     1     -43.780  29.584 -20.350  1.00  0.00     0.071 C 
ENDROOT
BRANCH   1  12
HETATM   12  C8  UNL     1     -43.499  30.144 -16.747  1.00  0.00     0.209 C 
BRANCH  12  13
HETATM   13  C7  UNL     1     -43.657  30.934 -15.566  1.00  0.00     0.050 C 
BRANCH  13  14
HETATM   14  C6  UNL     1     -44.227  30.716 -14.262  1.00  0.00     0.203 C 
BRANCH  14  15
HETATM   15  N1  UNL     1     -45.172  31.591 -13.657  1.00  0.00    -0.052 N 
HETATM   16  C3  UNL     1     -45.580  32.689 -14.526  1.00  0.00     0.278 C 
BRANCH  15  17
HETATM   17  C2  UNL     1     -44.771  32.081 -12.392  1.00  0.00     0.238 C 
HETATM   18  C1  UNL     1     -43.304  31.872 -12.039  1.00  0.00     0.035 C 
ENDBRANCH  15  17
BRANCH  15  19
HETATM   19  C4  UNL     1     -46.438  30.812 -13.516  1.00  0.00     0.238 C 
HETATM   20  C5  UNL     1     -46.772  30.424 -12.134  1.00  0.00     0.035 C 
ENDBRANCH  15  19
ENDBRANCH  14  15
ENDBRANCH  13  14
ENDBRANCH  12  13
ENDBRANCH   1  12
BRANCH   1  21
HETATM   21  C9  UNL     1     -42.265  30.767 -18.600  1.00  0.00     0.275 C 
BRANCH  21  22
HETATM   22  C10 UNL     1     -41.232  30.053 -17.827  1.00  0.00     0.260 C 
BRANCH  22  23
HETATM   23  N3  UNL     1     -40.702  28.886 -18.599  1.00  0.00    -0.073 N 
ATOM     24  H32 UNL     1     -41.179  28.719 -19.484  1.00  0.00     0.277 HD
ATOM     25  H31 UNL     1     -39.775  29.035 -18.998  1.00  0.00     0.277 HD
BRANCH  23  26
HETATM   26  C11 UNL     1     -40.776  27.787 -17.671  1.00  0.00     0.232 C 
BRANCH  26  27
HETATM   27  C12 UNL     1     -40.635  28.076 -16.230  1.00  0.00     0.029 C 
BRANCH  27  28
HETATM   28  C13 UNL     1     -41.621  27.329 -15.338  1.00  0.00     0.029 C 
BRANCH  28  29
HETATM   29  C14 UNL     1     -42.297  26.286 -16.167  1.00  0.00     0.232 C 
BRANCH  29  30
HETATM   30  N4  UNL     1     -42.870  25.176 -15.478  1.00  0.00    -0.075 N 
ATOM     31  H42 UNL     1     -43.435  25.465 -14.679  1.00  0.00     0.277 HD
ATOM     32  H41 UNL     1     -43.606  24.722 -16.018  1.00  0.00     0.277 HD
BRANCH  30  33
HETATM   33  C15 UNL     1     -41.796  24.235 -15.093  1.00  0.00     0.234 C 
BRANCH  33  34
HETATM   34  C16 UNL     1     -41.696  24.039 -13.615  1.00  0.00     0.047 C 
BRANCH  34  35
HETATM   35  C17 UNL     1     -42.494  22.920 -13.038  1.00  0.00     0.123 C 
BRANCH  35  36
HETATM   36  N5  UNL     1     -41.705  22.170 -12.089  1.00  0.00    -0.367 N 
HETATM   37  C18 UNL     1     -41.549  20.921 -12.050  1.00  0.00     0.196 C 
HETATM   38  N6  UNL     1     -42.168  20.052 -12.989  1.00  0.00    -0.067 NA
HETATM   39  N7  UNL     1     -40.693  20.397 -11.023  1.00  0.00    -0.067 NA
ATOM     40  H5  UNL     1     -41.223  22.711 -11.371  1.00  0.00     0.161 HD
ENDBRANCH  35  36
ENDBRANCH  34  35
ENDBRANCH  33  34
ENDBRANCH  30  33
ENDBRANCH  29  30
ENDBRANCH  28  29
ENDBRANCH  27  28
ENDBRANCH  26  27
ENDBRANCH  23  26
ENDBRANCH  22  23
ENDBRANCH  21  22
ENDBRANCH   1  21
TORSDOF 18
ENDMDL
MODEL 4
REMARK VINA RESULT: -7.253596833      1.189      1.480
REMARK  18 active torsions:
REMARK  status: ('A' for Active; 'I' for Inactive)
REMARK    1  A    between atoms: C2_2  and  N1_3 
REMARK    2  A    between atoms: N1_3  and  C4_5 
REMARK    3  A    between atoms: N1_3  and  C6_7 
REMARK    4  A    between atoms: C6_7  and  C7_8 
REMARK    5  A    between atoms: C7_8  and  C8_9 
REMARK    6  A    between atoms: C8_9  and  N2_10 
REMARK    7  A    between atoms: N2_10  and  C9_11 
REMARK    8  A    between atoms: C9_11  and  C10_12 
REMARK    9  A    between atoms: C10_12  and  N3_13 
REMARK   10  A    between atoms: N3_13  and  C11_16 
REMARK   11  A    between atoms: C11_16  and  C12_17 
REMARK   12  A    between atoms: C12_17  and  C13_18 
REMARK   13  A    between atoms: C13_18  and  C14_19 
REMARK   14  A    between atoms: C14_19  and  N4_20 
REMARK   15  A    between atoms: N4_20  and  C15_23 
REMARK   16  A    between atoms: C15_23  and  C16_24 
REMARK   17  A    between atoms: C16_24  and  C17_25 
REMARK   18  A    between atoms: C17_25  and  N5_26 
ROOT
HETATM    1  N2  UNL     1     -42.934  30.126 -17.741  1.00  0.00    -0.004 N 
HETATM    2  C19 UNL     1     -41.695  30.218 -18.444  1.00  0.00     0.372 C 
HETATM    3  N8  UNL     1     -41.557  29.285 -19.571  1.00  0.00    -0.319 N 
ATOM      4  H8  UNL     1     -40.800  28.605 -19.645  1.00  0.00     0.166 HD
HETATM    5  C20 UNL     1     -42.584  29.422 -20.553  1.00  0.00     0.319 C 
HETATM    6  O1  UNL     1     -42.462  29.056 -21.753  1.00  0.00    -0.247 OA
HETATM    7  N9  UNL     1     -43.772  30.023 -20.023  1.00  0.00    -0.310 N 
ATOM      8  H9  UNL     1     -44.394  30.601 -20.588  1.00  0.00     0.166 HD
HETATM    9  C21 UNL     1     -44.026  29.744 -18.602  1.00  0.00     0.204 C 
HETATM   10  C22 UNL     1     -45.350  30.394 -18.308  1.00  0.00     0.071 C 
HETATM   11  C23 UNL     1     -44.346  28.240 -18.590  1.00  0.00     0.071 C 
ENDROOT
BRANCH   1  12
HETATM   12  C8  UNL     1     -43.225  31.377 -17.080  1.00  0.00     0.209 C 
BRANCH  12  13
HETATM   13  C7  UNL     1     -43.572  31.494 -15.698  1.00  0.00     0.050 C 
BRANCH  13  14
HETATM   14  C6  UNL     1     -44.765  31.847 -14.972  1.00  0.00     0.203 C 
BRANCH  14  15
HETATM   15  N1  UNL     1     -44.774  32.207 -13.596  1.00  0.00    -0.052 N 
HETATM   16  C3  UNL     1     -45.386  33.506 -13.344  1.00  0.00     0.278 C 
BRANCH  15  17
HETATM   17  C2  UNL     1     -43.506  32.126 -12.974  1.00  0.00     0.238 C 
HETATM   18  C1  UNL     1     -43.512  31.667 -11.522  1.00  0.00     0.035 C 
ENDBRANCH  15  17
BRANCH  15  19
HETATM   19  C4  UNL     1     -45.725  31.273 -12.923  1.00  0.00     0.238 C 
HETATM   20  C5  UNL     1     -46.815  30.779 -13.784  1.00  0.00     0.035 C 
ENDBRANCH  15  19
ENDBRANCH  14  15
ENDBRANCH  13  14
ENDBRANCH  12  13
ENDBRANCH   1  12
BRANCH   1  21
HETATM   21  C9  UNL     1     -42.857  29.134 -16.656  1.00  0.00     0.275 C 
BRANCH  21  22
HETATM   22  C10 UNL     1     -41.526  28.545 -16.415  1.00  0.00     0.260 C 
BRANCH  22  23
HETATM   23  N3  UNL     1     -41.612  27.428 -15.424  1.00  0.00    -0.073 N 
ATOM     24  H32 UNL     1     -41.513  27.721 -14.453  1.00  0.00     0.277 HD
ATOM     25  H31 UNL     1     -42.544  27.027 -15.326  1.00  0.00     0.277 HD
BRANCH  23  26
HETATM   26  C11 UNL     1     -40.609  26.491 -15.862  1.00  0.00     0.232 C 
BRANCH  26  27
HETATM   27  C12 UNL     1     -40.398  25.267 -15.062  1.00  0.00     0.029 C 
BRANCH  27  28
HETATM   28  C13 UNL     1     -41.651  24.749 -14.363  1.00  0.00     0.029 C 
BRANCH  28  29
HETATM   29  C14 UNL     1     -42.479  24.023 -15.373  1.00  0.00     0.232 C 
BRANCH  29  30
HETATM   30  N4  UNL     1     -43.443  23.094 -14.879  1.00  0.00    -0.075 N 
ATOM     31  H42 UNL     1     -44.385  23.486 -14.861  1.00  0.00     0.277 HD
ATOM     32  H41 UNL     1     -43.617  22.332 -15.534  1.00  0.00     0.277 HD
BRANCH  30  33
HETATM   33  C15 UNL     1     -43.013  22.606 -13.551  1.00  0.00     0.234 C 
BRANCH  33  34
HETATM   34  C16 UNL     1     -42.851  21.121 -13.501  1.00  0.00     0.047 C 
BRANCH  34  35
HETATM   35  C17 UNL     1     -41.678  20.607 -12.739  1.00  0.00     0.123 C 
BRANCH  35  36
HETATM   36  N5  UNL     1     -41.942  19.280 -12.235  1.00  0.00    -0.367 N 
HETATM   37  C18 UNL     1     -42.293  18.967 -11.067  1.00  0.00     0.196 C 
HETATM   38  N6  UNL     1     -42.479  19.940 -10.047  1.00  0.00    -0.067 NA
HETATM   39  N7  UNL     1     -42.524  17.575 -10.799  1.00  0.00    -0.067 NA
ATOM     40  H5  UNL     1     -41.831  18.512 -12.897  1.00  0.00     0.161 HD
ENDBRANCH  35  36
ENDBRANCH  34  35
ENDBRANCH  33  34
ENDBRANCH  30  33
ENDBRANCH  29  30
ENDBRANCH  28  29
ENDBRANCH  27  28
ENDBRANCH  26  27
ENDBRANCH  23  26
ENDBRANCH  22  23
ENDBRANCH  21  22
ENDBRANCH   1  21
TORSDOF 18
ENDMDL
MODEL 5
REMARK VINA RESULT: -7.092922364      1.480      1.826
REMARK  18 active torsions:
REMARK  status: ('A' for Active; 'I' for Inactive)
REMARK    1  A    between atoms: C2_2  and  N1_3 
REMARK    2  A    between atoms: N1_3  and  C4_5 
REMARK    3  A    between atoms: N1_3  and  C6_7 
REMARK    4  A    between atoms: C6_7  and  C7_8 
REMARK    5  A    between atoms: C7_8  and  C8_9 
REMARK    6  A    between atoms: C8_9  and  N2_10 
REMARK    7  A    between atoms: N2_10  and  C9_11 
REMARK    8  A    between atoms: C9_11  and  C10_12 
REMARK    9  A    between atoms: C10_12  and  N3_13 
REMARK   10  A    between atoms: N3_13  and  C11_16 
REMARK   11  A    between atoms: C11_16  and  C12_17 
REMARK   12  A    between atoms: C12_17  and  C13_18 
REMARK   13  A    between atoms: C13_18  and  C14_19 
REMARK   14  A    between atoms: C14_19  and  N4_20 
REMARK   15  A    between atoms: N4_20  and  C15_23 
REMARK   16  A    between atoms: C15_23  and  C16_24 
REMARK   17  A    between atoms: C16_24  and  C17_25 
REMARK   18  A    between atoms: C17_25  and  N5_26 
ROOT
HETATM    1  N2  UNL     1     -42.475  29.982 -17.684  1.00  0.00    -0.004 N 
HETATM    2  C19 UNL     1     -42.446  31.384 -17.950  1.00  0.00     0.372 C 
HETATM    3  N8  UNL     1     -42.560  31.742 -19.372  1.00  0.00    -0.319 N 
ATOM      4  H8  UNL     1     -41.860  32.294 -19.867  1.00  0.00     0.166 HD
HETATM    5  C20 UNL     1     -43.744  31.241 -19.993  1.00  0.00     0.319 C 
HETATM    6  O1  UNL     1     -44.257  31.739 -21.031  1.00  0.00    -0.247 OA
HETATM    7  N9  UNL     1     -44.286  30.107 -19.305  1.00  0.00    -0.310 N 
ATOM      8  H9  UNL     1     -45.285  29.903 -19.285  1.00  0.00     0.166 HD
HETATM    9  C21 UNL     1     -43.292  29.260 -18.628  1.00  0.00     0.204 C 
HETATM   10  C22 UNL     1     -44.079  28.108 -18.067  1.00  0.00     0.071 C 
HETATM   11  C23 UNL     1     -42.510  28.635 -19.795  1.00  0.00     0.071 C 
ENDROOT
BRANCH   1  12
HETATM   12  C8  UNL     1     -42.930  29.742 -16.334  1.00  0.00     0.209 C 
BRANCH  12  13
HETATM   13  C7  UNL     1     -43.583  30.719 -15.520  1.00  0.00     0.050 C 
BRANCH  13  14
HETATM   14  C6  UNL     1     -44.675  30.699 -14.581  1.00  0.00     0.203 C 
BRANCH  14  15
HETATM   15  N1  UNL     1     -44.798  31.610 -13.495  1.00  0.00    -0.052 N 
HETATM   16  C3  UNL     1     -45.551  32.812 -13.835  1.00  0.00     0.278 C 
BRANCH  15  17
HETATM   17  C2  UNL     1     -43.566  31.950 -12.889  1.00  0.00     0.238 C 
HETATM   18  C1  UNL     1     -43.492  31.738 -11.382  1.00  0.00     0.035 C 
ENDBRANCH  15  17
BRANCH  15  19
HETATM   19  C4  UNL     1     -45.688  30.952 -12.492  1.00  0.00     0.238 C 
HETATM   20  C5  UNL     1     -47.055  30.676 -12.971  1.00  0.00     0.035 C 
ENDBRANCH  15  19
ENDBRANCH  14  15
ENDBRANCH  13  14
ENDBRANCH  12  13
ENDBRANCH   1  12
BRANCH   1  21
HETATM   21  C9  UNL     1     -41.122  29.404 -17.735  1.00  0.00     0.275 C 
BRANCH  21  22
HETATM   22  C10 UNL     1     -40.733  28.572 -16.582  1.00  0.00     0.260 C 
BRANCH  22  23
HETATM   23  N3  UNL     1     -40.627  27.133 -16.976  1.00  0.00    -0.073 N 
ATOM     24  H32 UNL     1     -41.062  26.911 -17.871  1.00  0.00     0.277 HD
ATOM     25  H31 UNL     1     -39.685  26.839 -17.235  1.00  0.00     0.277 HD
BRANCH  23  26
HETATM   26  C11 UNL     1     -41.182  26.418 -15.856  1.00  0.00     0.232 C 
BRANCH  26  27
HETATM   27  C12 UNL     1     -40.342  25.403 -15.187  1.00  0.00     0.029 C 
BRANCH  27  28
HETATM   28  C13 UNL     1     -41.093  24.147 -14.759  1.00  0.00     0.029 C 
BRANCH  28  29
HETATM   29  C14 UNL     1     -42.500  24.259 -15.249  1.00  0.00     0.232 C 
BRANCH  29  30
HETATM   30  N4  UNL     1     -43.361  23.145 -15.016  1.00  0.00    -0.075 N 
ATOM     31  H42 UNL     1     -44.347  23.389 -15.116  1.00  0.00     0.277 HD
ATOM     32  H41 UNL     1     -43.309  22.452 -15.763  1.00  0.00     0.277 HD
BRANCH  30  33
HETATM   33  C15 UNL     1     -43.059  22.564 -13.690  1.00  0.00     0.234 C 
BRANCH  33  34
HETATM   34  C16 UNL     1     -42.852  21.085 -13.736  1.00  0.00     0.047 C 
BRANCH  34  35
HETATM   35  C17 UNL     1     -43.835  20.253 -12.986  1.00  0.00     0.123 C 
BRANCH  35  36
HETATM   36  N5  UNL     1     -43.584  20.327 -11.565  1.00  0.00    -0.367 N 
HETATM   37  C18 UNL     1     -42.988  19.476 -10.854  1.00  0.00     0.196 C 
HETATM   38  N6  UNL     1     -42.465  18.270 -11.396  1.00  0.00    -0.067 NA
HETATM   39  N7  UNL     1     -42.833  19.776  -9.458  1.00  0.00    -0.067 NA
ATOM     40  H5  UNL     1     -43.926  21.160 -11.086  1.00  0.00     0.161 HD
ENDBRANCH  35  36
ENDBRANCH  34  35
ENDBRANCH  33  34
ENDBRANCH  30  33
ENDBRANCH  29  30
ENDBRANCH  28  29
ENDBRANCH  27  28
ENDBRANCH  26  27
ENDBRANCH  23  26
ENDBRANCH  22  23
ENDBRANCH  21  22
ENDBRANCH   1  21
TORSDOF 18
ENDMDL
