MODEL 1
REMARK VINA RESULT: -7.508889754      0.000      0.000
REMARK  19 active torsions:
REMARK  status: ('A' for Active; 'I' for Inactive)
REMARK    1  A    between atoms: C2_2  and  C3_3 
REMARK    2  A    between atoms: C3_3  and  C4_4 
REMARK    3  A    between atoms: C4_4  and  C5_5 
REMARK    4  A    between atoms: C5_5  and  N1_6 
REMARK    5  A    between atoms: C9_12  and  C10_13 
REMARK    6  A    between atoms: C10_13  and  C11_14 
REMARK    7  A    between atoms: C11_14  and  N3_15 
REMARK    8  A    between atoms: N3_15  and  C12_16 
REMARK    9  A    between atoms: C12_16  and  C13_17 
REMARK   10  A    between atoms: C13_17  and  C14_18 
REMARK   11  A    between atoms: C14_18  and  N4_19 
REMARK   12  A    between atoms: N4_19  and  C15_21 
REMARK   13  A    between atoms: C15_21  and  C16_22 
REMARK   14  A    between atoms: C16_22  and  N5_23 
REMARK       I    between atoms: N5_23  and  C17_25 
REMARK   15  A    between atoms: N7_27  and  C18_29 
REMARK   16  A    between atoms: C18_29  and  C19_30 
REMARK   17  A    between atoms: C19_30  and  C20_31 
REMARK   18  A    between atoms: C20_31  and  C21_32 
REMARK   19  A    between atoms: C21_32  and  N8_33 
ROOT
HETATM    1  C12 UNL     1      26.751   2.865  14.188  1.00  0.00     0.253 C 
ENDROOT
BRANCH   1   2
HETATM    2  N3  UNL     1      25.295   3.103  14.087  1.00  0.00     0.030 N 
HETATM    3  C22 UNL     1      24.803   3.210  15.451  1.00  0.00     0.376 C 
HETATM    4  N9  UNL     1      24.444   1.809  15.294  1.00  0.00    -0.312 N 
HETATM    5  C23 UNL     1      24.635   1.893  13.873  1.00  0.00     0.418 C 
ATOM      6  H9  UNL     1      24.167   1.066  15.936  1.00  0.00     0.165 HD
HETATM    7  O1  UNL     1      24.284   1.108  12.963  1.00  0.00    -0.239 OA
BRANCH   2   8
HETATM    8  C11 UNL     1      25.050   4.228  13.276  1.00  0.00     0.259 C 
BRANCH   8   9
HETATM    9  C10 UNL     1      23.753   4.485  12.659  1.00  0.00     0.105 C 
BRANCH   9  10
HETATM   10  C9  UNL     1      22.730   5.252  13.440  1.00  0.00     0.089 A 
HETATM   11  N1  UNL     1      21.684   4.695  14.071  1.00  0.00    -0.321 N 
HETATM   12  C6  UNL     1      21.005   5.704  14.696  1.00  0.00     0.122 A 
HETATM   13  C7  UNL     1      21.661   6.860  14.429  1.00  0.00     0.022 A 
HETATM   14  C8  UNL     1      21.259   8.231  14.919  1.00  0.00     0.069 C 
HETATM   15  N2  UNL     1      22.716   6.572  13.659  1.00  0.00    -0.348 N 
ATOM     16  H2  UNL     1      23.394   7.244  13.301  1.00  0.00     0.167 HD
BRANCH  11  17
HETATM   17  C5  UNL     1      21.229   3.337  14.088  1.00  0.00     0.093 C 
BRANCH  17  18
HETATM   18  C4  UNL     1      20.220   2.837  13.157  1.00  0.00    -0.009 C 
BRANCH  18  19
HETATM   19  C3  UNL     1      19.857   3.475  11.897  1.00  0.00     0.028 C 
BRANCH  19  20
HETATM   20  C2  UNL     1      20.741   3.387  10.713  1.00  0.00    -0.001 C 
HETATM   21  C1  UNL     1      21.513   2.040  10.724  1.00  0.00     0.005 C 
ENDBRANCH  19  20
ENDBRANCH  18  19
ENDBRANCH  17  18
ENDBRANCH  11  17
ENDBRANCH   9  10
ENDBRANCH   8   9
ENDBRANCH   2   8
ENDBRANCH   1   2
BRANCH   1  22
HETATM   22  C13 UNL     1      27.415   3.848  15.112  1.00  0.00     0.048 C 
BRANCH  22  23
HETATM   23  C14 UNL     1      28.920   3.673  14.893  1.00  0.00     0.120 C 
BRANCH  23  24
HETATM   24  N4  UNL     1      29.446   4.886  14.392  1.00  0.00    -0.401 N 
ATOM     25  H4  UNL     1      30.126   4.881  13.632  1.00  0.00     0.158 HD
BRANCH  24  26
HETATM   26  C15 UNL     1      29.017   6.097  14.959  1.00  0.00     0.075 C 
BRANCH  26  27
HETATM   27  C16 UNL     1      30.006   6.845  15.791  1.00  0.00     0.166 C 
BRANCH  27  28
HETATM   28  N5  UNL     1      31.264   6.981  15.137  1.00  0.00    -0.360 N 
HETATM   29  C17 UNL     1      32.454   6.315  15.484  1.00  0.00     0.184 C 
HETATM   30  N6  UNL     1      32.561   4.881  15.465  1.00  0.00    -0.064 NA
HETATM   31  N7  UNL     1      33.502   6.989  15.813  1.00  0.00    -0.365 N 
ATOM     32  H7  UNL     1      34.352   6.483  16.062  1.00  0.00     0.162 HD
ATOM     33  H5  UNL     1      31.307   7.622  14.345  1.00  0.00     0.162 HD
BRANCH  31  34
HETATM   34  C18 UNL     1      33.519   8.426  15.842  1.00  0.00     0.122 C 
BRANCH  34  35
HETATM   35  C19 UNL     1      34.303   9.052  14.740  1.00  0.00     0.021 C 
BRANCH  35  36
HETATM   36  C20 UNL     1      33.849   8.811  13.353  1.00  0.00     0.029 C 
BRANCH  36  37
HETATM   37  C21 UNL     1      34.846   8.338  12.362  1.00  0.00     0.229 C 
BRANCH  37  38
HETATM   38  N8  UNL     1      34.534   6.914  12.095  1.00  0.00    -0.079 N 
ATOM     39  H83 UNL     1      35.239   6.272  12.458  1.00  0.00     0.274 HD
ATOM     40  H82 UNL     1      33.748   6.564  12.642  1.00  0.00     0.274 HD
ATOM     41  H81 UNL     1      34.394   6.831  11.088  1.00  0.00     0.274 HD
ENDBRANCH  37  38
ENDBRANCH  36  37
ENDBRANCH  35  36
ENDBRANCH  34  35
ENDBRANCH  31  34
ENDBRANCH  27  28
ENDBRANCH  26  27
ENDBRANCH  24  26
ENDBRANCH  23  24
ENDBRANCH  22  23
ENDBRANCH   1  22
TORSDOF 19
ENDMDL
MODEL 2
REMARK VINA RESULT: -7.415591084      1.272      2.076
REMARK  19 active torsions:
REMARK  status: ('A' for Active; 'I' for Inactive)
REMARK    1  A    between atoms: C2_2  and  C3_3 
REMARK    2  A    between atoms: C3_3  and  C4_4 
REMARK    3  A    between atoms: C4_4  and  C5_5 
REMARK    4  A    between atoms: C5_5  and  N1_6 
REMARK    5  A    between atoms: C9_12  and  C10_13 
REMARK    6  A    between atoms: C10_13  and  C11_14 
REMARK    7  A    between atoms: C11_14  and  N3_15 
REMARK    8  A    between atoms: N3_15  and  C12_16 
REMARK    9  A    between atoms: C12_16  and  C13_17 
REMARK   10  A    between atoms: C13_17  and  C14_18 
REMARK   11  A    between atoms: C14_18  and  N4_19 
REMARK   12  A    between atoms: N4_19  and  C15_21 
REMARK   13  A    between atoms: C15_21  and  C16_22 
REMARK   14  A    between atoms: C16_22  and  N5_23 
REMARK       I    between atoms: N5_23  and  C17_25 
REMARK   15  A    between atoms: N7_27  and  C18_29 
REMARK   16  A    between atoms: C18_29  and  C19_30 
REMARK   17  A    between atoms: C19_30  and  C20_31 
REMARK   18  A    between atoms: C20_31  and  C21_32 
REMARK   19  A    between atoms: C21_32  and  N8_33 
ROOT
HETATM    1  C12 UNL     1      26.041   2.301  14.857  1.00  0.00     0.253 C 
ENDROOT
BRANCH   1   2
HETATM    2  N3  UNL     1      24.748   2.910  14.477  1.00  0.00     0.030 N 
HETATM    3  C22 UNL     1      24.023   3.137  15.717  1.00  0.00     0.376 C 
HETATM    4  N9  UNL     1      23.361   1.878  15.409  1.00  0.00    -0.312 N 
HETATM    5  C23 UNL     1      23.864   1.915  14.063  1.00  0.00     0.418 C 
ATOM      6  H9  UNL     1      22.777   1.230  15.936  1.00  0.00     0.165 HD
HETATM    7  O1  UNL     1      23.525   1.251  13.057  1.00  0.00    -0.239 OA
BRANCH   2   8
HETATM    8  C11 UNL     1      24.974   4.063  13.700  1.00  0.00     0.259 C 
BRANCH   8   9
HETATM    9  C10 UNL     1      24.050   4.504  12.661  1.00  0.00     0.105 C 
BRANCH   9  10
HETATM   10  C9  UNL     1      22.894   5.373  13.056  1.00  0.00     0.089 A 
HETATM   11  N1  UNL     1      21.626   5.173  12.661  1.00  0.00    -0.321 N 
HETATM   12  C6  UNL     1      20.862   6.143  13.251  1.00  0.00     0.122 A 
HETATM   13  C7  UNL     1      21.691   6.915  13.996  1.00  0.00     0.022 A 
HETATM   14  C8  UNL     1      21.274   8.109  14.820  1.00  0.00     0.069 C 
HETATM   15  N2  UNL     1      22.933   6.434  13.870  1.00  0.00    -0.348 N 
ATOM     16  H2  UNL     1      23.767   6.813  14.317  1.00  0.00     0.167 HD
BRANCH  11  17
HETATM   17  C5  UNL     1      21.080   4.216  11.746  1.00  0.00     0.093 C 
BRANCH  17  18
HETATM   18  C4  UNL     1      20.537   2.933  12.188  1.00  0.00    -0.009 C 
BRANCH  18  19
HETATM   19  C3  UNL     1      20.442   1.736  11.360  1.00  0.00     0.028 C 
BRANCH  19  20
HETATM   20  C2  UNL     1      19.163   1.006  11.216  1.00  0.00    -0.001 C 
HETATM   21  C1  UNL     1      18.882   0.166  12.491  1.00  0.00     0.005 C 
ENDBRANCH  19  20
ENDBRANCH  18  19
ENDBRANCH  17  18
ENDBRANCH  11  17
ENDBRANCH   9  10
ENDBRANCH   8   9
ENDBRANCH   2   8
ENDBRANCH   1   2
BRANCH   1  22
HETATM   22  C13 UNL     1      27.180   2.862  14.052  1.00  0.00     0.048 C 
BRANCH  22  23
HETATM   23  C14 UNL     1      28.250   3.266  15.071  1.00  0.00     0.120 C 
BRANCH  23  24
HETATM   24  N4  UNL     1      28.885   4.443  14.614  1.00  0.00    -0.401 N 
ATOM     25  H4  UNL     1      29.645   4.391  13.936  1.00  0.00     0.158 HD
BRANCH  24  26
HETATM   26  C15 UNL     1      28.453   5.684  15.109  1.00  0.00     0.075 C 
BRANCH  26  27
HETATM   27  C16 UNL     1      29.502   6.717  15.359  1.00  0.00     0.166 C 
BRANCH  27  28
HETATM   28  N5  UNL     1      30.612   6.582  14.477  1.00  0.00    -0.360 N 
HETATM   29  C17 UNL     1      31.885   6.090  14.818  1.00  0.00     0.184 C 
HETATM   30  N6  UNL     1      32.082   4.758  15.322  1.00  0.00    -0.064 NA
HETATM   31  N7  UNL     1      32.929   6.830  14.661  1.00  0.00    -0.365 N 
ATOM     32  H7  UNL     1      33.841   6.451  14.917  1.00  0.00     0.162 HD
ATOM     33  H5  UNL     1      30.470   6.868  13.508  1.00  0.00     0.162 HD
BRANCH  31  34
HETATM   34  C18 UNL     1      32.856   8.168  14.139  1.00  0.00     0.122 C 
BRANCH  34  35
HETATM   35  C19 UNL     1      33.210   9.229  15.124  1.00  0.00     0.021 C 
BRANCH  35  36
HETATM   36  C20 UNL     1      33.410   8.819  16.531  1.00  0.00     0.029 C 
BRANCH  36  37
HETATM   37  C21 UNL     1      32.313   9.072  17.498  1.00  0.00     0.229 C 
BRANCH  37  38
HETATM   38  N8  UNL     1      31.867   7.747  17.987  1.00  0.00    -0.079 N 
ATOM     39  H83 UNL     1      32.638   7.108  18.181  1.00  0.00     0.274 HD
ATOM     40  H82 UNL     1      31.483   7.775  18.932  1.00  0.00     0.274 HD
ATOM     41  H81 UNL     1      31.209   7.387  17.295  1.00  0.00     0.274 HD
ENDBRANCH  37  38
ENDBRANCH  36  37
ENDBRANCH  35  36
ENDBRANCH  34  35
ENDBRANCH  31  34
ENDBRANCH  27  28
ENDBRANCH  26  27
ENDBRANCH  24  26
ENDBRANCH  23  24
ENDBRANCH  22  23
ENDBRANCH   1  22
TORSDOF 19
ENDMDL
MODEL 3
REMARK VINA RESULT: -7.415090333      1.749      2.958
REMARK  19 active torsions:
REMARK  status: ('A' for Active; 'I' for Inactive)
REMARK    1  A    between atoms: C2_2  and  C3_3 
REMARK    2  A    between atoms: C3_3  and  C4_4 
REMARK    3  A    between atoms: C4_4  and  C5_5 
REMARK    4  A    between atoms: C5_5  and  N1_6 
REMARK    5  A    between atoms: C9_12  and  C10_13 
REMARK    6  A    between atoms: C10_13  and  C11_14 
REMARK    7  A    between atoms: C11_14  and  N3_15 
REMARK    8  A    between atoms: N3_15  and  C12_16 
REMARK    9  A    between atoms: C12_16  and  C13_17 
REMARK   10  A    between atoms: C13_17  and  C14_18 
REMARK   11  A    between atoms: C14_18  and  N4_19 
REMARK   12  A    between atoms: N4_19  and  C15_21 
REMARK   13  A    between atoms: C15_21  and  C16_22 
REMARK   14  A    between atoms: C16_22  and  N5_23 
REMARK       I    between atoms: N5_23  and  C17_25 
REMARK   15  A    between atoms: N7_27  and  C18_29 
REMARK   16  A    between atoms: C18_29  and  C19_30 
REMARK   17  A    between atoms: C19_30  and  C20_31 
REMARK   18  A    between atoms: C20_31  and  C21_32 
REMARK   19  A    between atoms: C21_32  and  N8_33 
ROOT
HETATM    1  C12 UNL     1      25.969   2.221  14.761  1.00  0.00     0.253 C 
ENDROOT
BRANCH   1   2
HETATM    2  N3  UNL     1      24.685   2.874  14.424  1.00  0.00     0.030 N 
HETATM    3  C22 UNL     1      24.006   3.117  15.687  1.00  0.00     0.376 C 
HETATM    4  N9  UNL     1      23.295   1.882  15.394  1.00  0.00    -0.312 N 
HETATM    5  C23 UNL     1      23.757   1.909  14.034  1.00  0.00     0.418 C 
ATOM      6  H9  UNL     1      22.707   1.250  15.937  1.00  0.00     0.165 HD
HETATM    7  O1  UNL     1      23.366   1.262  13.036  1.00  0.00    -0.239 OA
BRANCH   2   8
HETATM    8  C11 UNL     1      24.923   4.023  13.646  1.00  0.00     0.259 C 
BRANCH   8   9
HETATM    9  C10 UNL     1      23.992   4.486  12.623  1.00  0.00     0.105 C 
BRANCH   9  10
HETATM   10  C9  UNL     1      22.847   5.357  13.042  1.00  0.00     0.089 A 
HETATM   11  N1  UNL     1      21.575   5.176  12.652  1.00  0.00    -0.321 N 
HETATM   12  C6  UNL     1      20.823   6.140  13.266  1.00  0.00     0.122 A 
HETATM   13  C7  UNL     1      21.663   6.890  14.021  1.00  0.00     0.022 A 
HETATM   14  C8  UNL     1      21.262   8.071  14.872  1.00  0.00     0.069 C 
HETATM   15  N2  UNL     1      22.900   6.401  13.877  1.00  0.00    -0.348 N 
ATOM     16  H2  UNL     1      23.740   6.764  14.327  1.00  0.00     0.167 HD
BRANCH  11  17
HETATM   17  C5  UNL     1      21.015   4.242  11.722  1.00  0.00     0.093 C 
BRANCH  17  18
HETATM   18  C4  UNL     1      19.874   3.391  12.057  1.00  0.00    -0.009 C 
BRANCH  18  19
HETATM   19  C3  UNL     1      19.905   2.292  13.015  1.00  0.00     0.028 C 
BRANCH  19  20
HETATM   20  C2  UNL     1      19.899   0.883  12.561  1.00  0.00    -0.001 C 
HETATM   21  C1  UNL     1      18.863   0.695  11.421  1.00  0.00     0.005 C 
ENDBRANCH  19  20
ENDBRANCH  18  19
ENDBRANCH  17  18
ENDBRANCH  11  17
ENDBRANCH   9  10
ENDBRANCH   8   9
ENDBRANCH   2   8
ENDBRANCH   1   2
BRANCH   1  22
HETATM   22  C13 UNL     1      27.122   2.843  14.023  1.00  0.00     0.048 C 
BRANCH  22  23
HETATM   23  C14 UNL     1      28.160   3.192  15.093  1.00  0.00     0.120 C 
BRANCH  23  24
HETATM   24  N4  UNL     1      29.351   3.598  14.448  1.00  0.00    -0.401 N 
ATOM     25  H4  UNL     1      29.755   3.033  13.701  1.00  0.00     0.158 HD
BRANCH  24  26
HETATM   26  C15 UNL     1      29.970   4.791  14.853  1.00  0.00     0.075 C 
BRANCH  26  27
HETATM   27  C16 UNL     1      29.264   6.067  14.528  1.00  0.00     0.166 C 
BRANCH  27  28
HETATM   28  N5  UNL     1      29.947   7.206  15.041  1.00  0.00    -0.360 N 
HETATM   29  C17 UNL     1      31.202   7.679  14.616  1.00  0.00     0.184 C 
HETATM   30  N6  UNL     1      31.443   8.104  13.264  1.00  0.00    -0.064 NA
HETATM   31  N7  UNL     1      32.179   7.766  15.453  1.00  0.00    -0.365 N 
ATOM     32  H7  UNL     1      33.080   8.111  15.121  1.00  0.00     0.162 HD
ATOM     33  H5  UNL     1      29.484   7.726  15.786  1.00  0.00     0.162 HD
BRANCH  31  34
HETATM   34  C18 UNL     1      32.047   7.396  16.836  1.00  0.00     0.122 C 
BRANCH  34  35
HETATM   35  C19 UNL     1      31.803   8.542  17.757  1.00  0.00     0.021 C 
BRANCH  35  36
HETATM   36  C20 UNL     1      30.459   8.659  18.364  1.00  0.00     0.029 C 
BRANCH  36  37
HETATM   37  C21 UNL     1      29.747   7.412  18.737  1.00  0.00     0.229 C 
BRANCH  37  38
HETATM   38  N8  UNL     1      29.818   7.311  20.214  1.00  0.00    -0.079 N 
ATOM     39  H83 UNL     1      30.460   6.588  20.538  1.00  0.00     0.274 HD
ATOM     40  H82 UNL     1      30.288   8.104  20.650  1.00  0.00     0.274 HD
ATOM     41  H81 UNL     1      28.861   7.178  20.543  1.00  0.00     0.274 HD
ENDBRANCH  37  38
ENDBRANCH  36  37
ENDBRANCH  35  36
ENDBRANCH  34  35
ENDBRANCH  31  34
ENDBRANCH  27  28
ENDBRANCH  26  27
ENDBRANCH  24  26
ENDBRANCH  23  24
ENDBRANCH  22  23
ENDBRANCH   1  22
TORSDOF 19
ENDMDL
MODEL 4
REMARK VINA RESULT: -7.386572827      3.725     10.363
REMARK  19 active torsions:
REMARK  status: ('A' for Active; 'I' for Inactive)
REMARK    1  A    between atoms: C2_2  and  C3_3 
REMARK    2  A    between atoms: C3_3  and  C4_4 
REMARK    3  A    between atoms: C4_4  and  C5_5 
REMARK    4  A    between atoms: C5_5  and  N1_6 
REMARK    5  A    between atoms: C9_12  and  C10_13 
REMARK    6  A    between atoms: C10_13  and  C11_14 
REMARK    7  A    between atoms: C11_14  and  N3_15 
REMARK    8  A    between atoms: N3_15  and  C12_16 
REMARK    9  A    between atoms: C12_16  and  C13_17 
REMARK   10  A    between atoms: C13_17  and  C14_18 
REMARK   11  A    between atoms: C14_18  and  N4_19 
REMARK   12  A    between atoms: N4_19  and  C15_21 
REMARK   13  A    between atoms: C15_21  and  C16_22 
REMARK   14  A    between atoms: C16_22  and  N5_23 
REMARK       I    between atoms: N5_23  and  C17_25 
REMARK   15  A    between atoms: N7_27  and  C18_29 
REMARK   16  A    between atoms: C18_29  and  C19_30 
REMARK   17  A    between atoms: C19_30  and  C20_31 
REMARK   18  A    between atoms: C20_31  and  C21_32 
REMARK   19  A    between atoms: C21_32  and  N8_33 
ROOT
HETATM    1  C12 UNL     1      30.888   4.703  15.485  1.00  0.00     0.253 C 
ENDROOT
BRANCH   1   2
HETATM    2  N3  UNL     1      31.017   6.151  15.755  1.00  0.00     0.030 N 
HETATM    3  C22 UNL     1      30.784   6.826  14.488  1.00  0.00     0.376 C 
HETATM    4  N9  UNL     1      32.235   6.858  14.386  1.00  0.00    -0.312 N 
HETATM    5  C23 UNL     1      32.365   6.508  15.773  1.00  0.00     0.418 C 
ATOM      6  H9  UNL     1      32.894   7.051  13.633  1.00  0.00     0.165 HD
HETATM    7  O1  UNL     1      33.361   6.565  16.530  1.00  0.00    -0.239 OA
BRANCH   2   8
HETATM    8  C11 UNL     1      30.144   6.522  16.796  1.00  0.00     0.259 C 
BRANCH   8   9
HETATM    9  C10 UNL     1      29.572   7.859  16.904  1.00  0.00     0.105 C 
BRANCH   9  10
HETATM   10  C9  UNL     1      30.201   8.828  17.860  1.00  0.00     0.089 A 
HETATM   11  N1  UNL     1      29.657   9.199  19.030  1.00  0.00    -0.321 N 
HETATM   12  C6  UNL     1      30.535  10.060  19.629  1.00  0.00     0.122 A 
HETATM   13  C7  UNL     1      31.601  10.193  18.802  1.00  0.00     0.022 A 
HETATM   14  C8  UNL     1      32.814  11.052  19.064  1.00  0.00     0.069 C 
HETATM   15  N2  UNL     1      31.386   9.434  17.721  1.00  0.00    -0.348 N 
ATOM     16  H2  UNL     1      32.017   9.334  16.927  1.00  0.00     0.167 HD
BRANCH  11  17
HETATM   17  C5  UNL     1      28.383   8.880  19.602  1.00  0.00     0.093 C 
BRANCH  17  18
HETATM   18  C4  UNL     1      28.188   7.736  20.491  1.00  0.00    -0.009 C 
BRANCH  18  19
HETATM   19  C3  UNL     1      29.179   6.698  20.745  1.00  0.00     0.028 C 
BRANCH  19  20
HETATM   20  C2  UNL     1      29.575   6.341  22.126  1.00  0.00    -0.001 C 
HETATM   21  C1  UNL     1      28.978   4.961  22.512  1.00  0.00     0.005 C 
ENDBRANCH  19  20
ENDBRANCH  18  19
ENDBRANCH  17  18
ENDBRANCH  11  17
ENDBRANCH   9  10
ENDBRANCH   8   9
ENDBRANCH   2   8
ENDBRANCH   1   2
BRANCH   1  22
HETATM   22  C13 UNL     1      29.551   4.170  15.918  1.00  0.00     0.048 C 
BRANCH  22  23
HETATM   23  C14 UNL     1      28.884   3.638  14.647  1.00  0.00     0.120 C 
BRANCH  23  24
HETATM   24  N4  UNL     1      27.885   2.710  15.018  1.00  0.00    -0.401 N 
ATOM     25  H4  UNL     1      28.064   2.018  15.746  1.00  0.00     0.158 HD
BRANCH  24  26
HETATM   26  C15 UNL     1      26.641   2.754  14.368  1.00  0.00     0.075 C 
BRANCH  26  27
HETATM   27  C16 UNL     1      25.763   3.927  14.660  1.00  0.00     0.166 C 
BRANCH  27  28
HETATM   28  N5  UNL     1      24.381   3.611  14.523  1.00  0.00    -0.360 N 
HETATM   29  C17 UNL     1      23.666   2.674  15.291  1.00  0.00     0.184 C 
HETATM   30  N6  UNL     1      23.532   2.796  16.717  1.00  0.00    -0.064 NA
HETATM   31  N7  UNL     1      23.085   1.675  14.719  1.00  0.00    -0.365 N 
ATOM     32  H7  UNL     1      22.574   1.008  15.297  1.00  0.00     0.162 HD
ATOM     33  H5  UNL     1      23.862   4.111  13.802  1.00  0.00     0.162 HD
BRANCH  31  34
HETATM   34  C18 UNL     1      23.130   1.467  13.297  1.00  0.00     0.122 C 
BRANCH  34  35
HETATM   35  C19 UNL     1      21.823   1.658  12.608  1.00  0.00     0.021 C 
BRANCH  35  36
HETATM   36  C20 UNL     1      21.831   2.360  11.306  1.00  0.00     0.029 C 
BRANCH  36  37
HETATM   37  C21 UNL     1      20.613   3.104  10.902  1.00  0.00     0.229 C 
BRANCH  37  38
HETATM   38  N8  UNL     1      20.416   2.841   9.458  1.00  0.00    -0.079 N 
ATOM     39  H83 UNL     1      21.166   3.210   8.875  1.00  0.00     0.274 HD
ATOM     40  H82 UNL     1      20.530   1.859   9.208  1.00  0.00     0.274 HD
ATOM     41  H81 UNL     1      19.497   3.214   9.217  1.00  0.00     0.274 HD
ENDBRANCH  37  38
ENDBRANCH  36  37
ENDBRANCH  35  36
ENDBRANCH  34  35
ENDBRANCH  31  34
ENDBRANCH  27  28
ENDBRANCH  26  27
ENDBRANCH  24  26
ENDBRANCH  23  24
ENDBRANCH  22  23
ENDBRANCH   1  22
TORSDOF 19
ENDMDL
MODEL 5
REMARK VINA RESULT: -7.283271259      1.408      1.838
REMARK  19 active torsions:
REMARK  status: ('A' for Active; 'I' for Inactive)
REMARK    1  A    between atoms: C2_2  and  C3_3 
REMARK    2  A    between atoms: C3_3  and  C4_4 
REMARK    3  A    between atoms: C4_4  and  C5_5 
REMARK    4  A    between atoms: C5_5  and  N1_6 
REMARK    5  A    between atoms: C9_12  and  C10_13 
REMARK    6  A    between atoms: C10_13  and  C11_14 
REMARK    7  A    between atoms: C11_14  and  N3_15 
REMARK    8  A    between atoms: N3_15  and  C12_16 
REMARK    9  A    between atoms: C12_16  and  C13_17 
REMARK   10  A    between atoms: C13_17  and  C14_18 
REMARK   11  A    between atoms: C14_18  and  N4_19 
REMARK   12  A    between atoms: N4_19  and  C15_21 
REMARK   13  A    between atoms: C15_21  and  C16_22 
REMARK   14  A    between atoms: C16_22  and  N5_23 
REMARK       I    between atoms: N5_23  and  C17_25 
REMARK   15  A    between atoms: N7_27  and  C18_29 
REMARK   16  A    between atoms: C18_29  and  C19_30 
REMARK   17  A    between atoms: C19_30  and  C20_31 
REMARK   18  A    between atoms: C20_31  and  C21_32 
REMARK   19  A    between atoms: C21_32  and  N8_33 
ROOT
HETATM    1  C12 UNL     1      25.969   2.501  14.680  1.00  0.00     0.253 C 
ENDROOT
BRANCH   1   2
HETATM    2  N3  UNL     1      24.617   2.894  14.226  1.00  0.00     0.030 N 
HETATM    3  C22 UNL     1      23.820   3.077  15.428  1.00  0.00     0.376 C 
HETATM    4  N9  UNL     1      23.359   1.721  15.174  1.00  0.00    -0.312 N 
HETATM    5  C23 UNL     1      23.902   1.759  13.844  1.00  0.00     0.418 C 
ATOM      6  H9  UNL     1      22.854   1.024  15.720  1.00  0.00     0.165 HD
HETATM    7  O1  UNL     1      23.702   1.000  12.868  1.00  0.00    -0.239 OA
BRANCH   2   8
HETATM    8  C11 UNL     1      24.704   4.024  13.390  1.00  0.00     0.259 C 
BRANCH   8   9
HETATM    9  C10 UNL     1      23.592   4.476  12.562  1.00  0.00     0.105 C 
BRANCH   9  10
HETATM   10  C9  UNL     1      22.517   5.303  13.200  1.00  0.00     0.089 A 
HETATM   11  N1  UNL     1      21.213   4.982  13.197  1.00  0.00    -0.321 N 
HETATM   12  C6  UNL     1      20.556   5.952  13.903  1.00  0.00     0.122 A 
HETATM   13  C7  UNL     1      21.485   6.847  14.322  1.00  0.00     0.022 A 
HETATM   14  C8  UNL     1      21.205   8.087  15.137  1.00  0.00     0.069 C 
HETATM   15  N2  UNL     1      22.682   6.439  13.886  1.00  0.00    -0.348 N 
ATOM     16  H2  UNL     1      23.570   6.914  14.049  1.00  0.00     0.167 HD
BRANCH  11  17
HETATM   17  C5  UNL     1      20.525   3.905  12.550  1.00  0.00     0.093 C 
BRANCH  17  18
HETATM   18  C4  UNL     1      20.343   2.600  13.183  1.00  0.00    -0.009 C 
BRANCH  18  19
HETATM   19  C3  UNL     1      20.314   1.325  12.475  1.00  0.00     0.028 C 
BRANCH  19  20
HETATM   20  C2  UNL     1      19.125   0.446  12.532  1.00  0.00    -0.001 C 
HETATM   21  C1  UNL     1      18.313   0.564  11.214  1.00  0.00     0.005 C 
ENDBRANCH  19  20
ENDBRANCH  18  19
ENDBRANCH  17  18
ENDBRANCH  11  17
ENDBRANCH   9  10
ENDBRANCH   8   9
ENDBRANCH   2   8
ENDBRANCH   1   2
BRANCH   1  22
HETATM   22  C13 UNL     1      26.789   3.693  15.088  1.00  0.00     0.048 C 
BRANCH  22  23
HETATM   23  C14 UNL     1      28.249   3.234  15.023  1.00  0.00     0.120 C 
BRANCH  23  24
HETATM   24  N4  UNL     1      28.999   4.216  14.337  1.00  0.00    -0.401 N 
ATOM     25  H4  UNL     1      29.862   3.966  13.854  1.00  0.00     0.158 HD
BRANCH  24  26
HETATM   26  C15 UNL     1      28.538   5.543  14.332  1.00  0.00     0.075 C 
BRANCH  26  27
HETATM   27  C16 UNL     1      29.525   6.606  14.685  1.00  0.00     0.166 C 
BRANCH  27  28
HETATM   28  N5  UNL     1      30.207   6.324  15.903  1.00  0.00    -0.360 N 
HETATM   29  C17 UNL     1      30.175   7.107  17.071  1.00  0.00     0.184 C 
HETATM   30  N6  UNL     1      28.953   7.376  17.779  1.00  0.00    -0.064 NA
HETATM   31  N7  UNL     1      31.266   7.594  17.555  1.00  0.00    -0.365 N 
ATOM     32  H7  UNL     1      31.217   8.160  18.402  1.00  0.00     0.162 HD
ATOM     33  H5  UNL     1      30.771   5.474  15.931  1.00  0.00     0.162 HD
BRANCH  31  34
HETATM   34  C18 UNL     1      32.549   7.368  16.947  1.00  0.00     0.122 C 
BRANCH  34  35
HETATM   35  C19 UNL     1      33.222   8.606  16.460  1.00  0.00     0.021 C 
BRANCH  35  36
HETATM   36  C20 UNL     1      33.767   8.594  15.085  1.00  0.00     0.029 C 
BRANCH  36  37
HETATM   37  C21 UNL     1      32.850   8.253  13.970  1.00  0.00     0.229 C 
BRANCH  37  38
HETATM   38  N8  UNL     1      33.192   6.874  13.549  1.00  0.00    -0.079 N 
ATOM     39  H83 UNL     1      33.925   6.839  12.841  1.00  0.00     0.274 HD
ATOM     40  H82 UNL     1      33.682   6.342  14.267  1.00  0.00     0.274 HD
ATOM     41  H81 UNL     1      32.320   6.437  13.248  1.00  0.00     0.274 HD
ENDBRANCH  37  38
ENDBRANCH  36  37
ENDBRANCH  35  36
ENDBRANCH  34  35
ENDBRANCH  31  34
ENDBRANCH  27  28
ENDBRANCH  26  27
ENDBRANCH  24  26
ENDBRANCH  23  24
ENDBRANCH  22  23
ENDBRANCH   1  22
TORSDOF 19
ENDMDL
