MODEL 1
REMARK VINA RESULT: -5.819774503      0.000      0.000
REMARK  11 active torsions:
REMARK  status: ('A' for Active; 'I' for Inactive)
REMARK    1  A    between atoms: C2_2  and  C3_3 
REMARK    2  A    between atoms: C3_3  and  C4_4 
REMARK    3  A    between atoms: C4_4  and  C5_5 
REMARK    4  A    between atoms: C5_5  and  C6_6 
REMARK    5  A    between atoms: C6_6  and  C7_7 
REMARK    6  A    between atoms: C8_8  and  C9_9 
REMARK    7  A    between atoms: C9_9  and  C10_10 
REMARK    8  A    between atoms: N3_18  and  N4_19 
REMARK    9  A    between atoms: N4_19  and  C14_21 
REMARK   10  A    between atoms: C14_21  and  N5_23 
REMARK   11  A    between atoms: N5_23  and  C15_25 
ROOT
HETATM    1  C10 UNL     1       8.370  34.403  79.020  1.00  0.00     0.010 C 
HETATM    2  C11 UNL     1       7.746  33.261  78.993  1.00  0.00     0.075 C 
HETATM    3  S1  UNL     1       5.953  33.049  79.350  1.00  0.00    -0.046 SA
HETATM    4  C12 UNL     1       5.806  31.556  78.372  1.00  0.00     0.183 C 
HETATM    5  N1  UNL     1       4.745  31.140  77.819  1.00  0.00    -0.272 N 
ATOM      6  H1  UNL     1       4.810  30.271  77.290  1.00  0.00     0.180 HD
HETATM    7  C13 UNL     1       3.511  31.752  77.864  1.00  0.00     0.183 C 
HETATM    8  N2  UNL     1       2.477  32.251  77.915  1.00  0.00    -0.172 NA
HETATM    9  N3  UNL     1       7.104  31.014  78.384  1.00  0.00    -0.193 N 
HETATM   10  C19 UNL     1       8.133  31.895  78.709  1.00  0.00     0.285 C 
HETATM   11  O1  UNL     1       9.375  31.548  78.765  1.00  0.00    -0.265 OA
ENDROOT
BRANCH   9  12
HETATM   12  N4  UNL     1       7.335  29.645  78.070  1.00  0.00    -0.265 N 
ATOM     13  H4  UNL     1       7.227  28.954  78.811  1.00  0.00     0.190 HD
BRANCH  12  14
HETATM   14  C14 UNL     1       7.706  29.197  76.786  1.00  0.00     0.187 C 
HETATM   15  S2  UNL     1       6.762  28.117  75.966  1.00  0.00    -0.040 SA
BRANCH  14  16
HETATM   16  N5  UNL     1       8.902  29.659  76.157  1.00  0.00    -0.358 N 
ATOM     17  H5  UNL     1       9.803  29.298  76.473  1.00  0.00     0.162 HD
BRANCH  16  18
HETATM   18  C15 UNL     1       8.866  30.627  75.081  1.00  0.00     0.021 C 
HETATM   19  C16 UNL     1       9.369  29.914  73.821  1.00  0.00     0.037 C 
HETATM   20  C17 UNL     1       9.787  31.806  75.373  1.00  0.00     0.037 C 
HETATM   21  C18 UNL     1       7.483  31.175  74.836  1.00  0.00     0.037 C 
ENDBRANCH  16  18
ENDBRANCH  14  16
ENDBRANCH  12  14
ENDBRANCH   9  12
BRANCH   1  22
HETATM   22  C9  UNL     1       9.789  34.654  78.749  1.00  0.00     0.122 C 
BRANCH  22  23
HETATM   23  C8  UNL     1       9.994  35.250  77.403  1.00  0.00    -0.103 C 
HETATM   24  C7  UNL     1      10.176  35.752  76.316  1.00  0.00    -0.106 C 
BRANCH  24  25
HETATM   25  C6  UNL     1      10.419  36.368  75.011  1.00  0.00     0.094 C 
BRANCH  25  26
HETATM   26  C5  UNL     1       9.379  37.496  74.828  1.00  0.00     0.012 C 
BRANCH  26  27
HETATM   27  C4  UNL     1       8.046  36.845  74.612  1.00  0.00     0.001 C 
BRANCH  27  28
HETATM   28  C3  UNL     1       7.005  37.078  75.625  1.00  0.00    -0.000 C 
BRANCH  28  29
HETATM   29  C2  UNL     1       6.348  35.931  76.289  1.00  0.00    -0.005 C 
HETATM   30  C1  UNL     1       6.522  34.586  75.691  1.00  0.00     0.005 C 
ENDBRANCH  28  29
ENDBRANCH  27  28
ENDBRANCH  26  27
ENDBRANCH  25  26
ENDBRANCH  24  25
ENDBRANCH  22  23
ENDBRANCH   1  22
TORSDOF 11
ENDMDL
MODEL 2
REMARK VINA RESULT: -5.694482684      3.329      6.361
REMARK  11 active torsions:
REMARK  status: ('A' for Active; 'I' for Inactive)
REMARK    1  A    between atoms: C2_2  and  C3_3 
REMARK    2  A    between atoms: C3_3  and  C4_4 
REMARK    3  A    between atoms: C4_4  and  C5_5 
REMARK    4  A    between atoms: C5_5  and  C6_6 
REMARK    5  A    between atoms: C6_6  and  C7_7 
REMARK    6  A    between atoms: C8_8  and  C9_9 
REMARK    7  A    between atoms: C9_9  and  C10_10 
REMARK    8  A    between atoms: N3_18  and  N4_19 
REMARK    9  A    between atoms: N4_19  and  C14_21 
REMARK   10  A    between atoms: C14_21  and  N5_23 
REMARK   11  A    between atoms: N5_23  and  C15_25 
ROOT
HETATM    1  C10 UNL     1       5.874  33.423  75.144  1.00  0.00     0.010 C 
HETATM    2  C11 UNL     1       6.108  34.125  76.215  1.00  0.00     0.075 C 
HETATM    3  S1  UNL     1       6.210  35.961  76.254  1.00  0.00    -0.046 SA
HETATM    4  C12 UNL     1       5.746  36.078  77.979  1.00  0.00     0.183 C 
HETATM    5  N1  UNL     1       5.185  37.075  78.524  1.00  0.00    -0.272 N 
ATOM      6  H1  UNL     1       4.978  37.000  79.520  1.00  0.00     0.180 HD
HETATM    7  C13 UNL     1       4.828  38.249  77.899  1.00  0.00     0.183 C 
HETATM    8  N2  UNL     1       4.546  39.237  77.384  1.00  0.00    -0.172 NA
HETATM    9  N3  UNL     1       6.145  34.843  78.521  1.00  0.00    -0.193 N 
HETATM   10  C19 UNL     1       6.341  33.808  77.610  1.00  0.00     0.285 C 
HETATM   11  O1  UNL     1       6.709  32.619  77.952  1.00  0.00    -0.265 OA
ENDROOT
BRANCH   9  12
HETATM   12  N4  UNL     1       6.325  34.676  79.923  1.00  0.00    -0.265 N 
ATOM     13  H4  UNL     1       5.557  34.284  80.466  1.00  0.00     0.190 HD
BRANCH  12  14
HETATM   14  C14 UNL     1       7.512  35.027  80.598  1.00  0.00     0.187 C 
HETATM   15  S2  UNL     1       7.723  34.634  82.189  1.00  0.00    -0.040 SA
BRANCH  14  16
HETATM   16  N5  UNL     1       8.563  35.729  79.934  1.00  0.00    -0.358 N 
ATOM     17  H5  UNL     1       8.559  36.749  79.934  1.00  0.00     0.162 HD
BRANCH  16  18
HETATM   18  C15 UNL     1       9.635  35.025  79.260  1.00  0.00     0.021 C 
HETATM   19  C16 UNL     1      10.951  35.575  79.819  1.00  0.00     0.037 C 
HETATM   20  C17 UNL     1       9.599  35.281  77.758  1.00  0.00     0.037 C 
HETATM   21  C18 UNL     1       9.576  33.533  79.472  1.00  0.00     0.037 C 
ENDBRANCH  16  18
ENDBRANCH  14  16
ENDBRANCH  12  14
ENDBRANCH   9  12
BRANCH   1  22
HETATM   22  C9  UNL     1       5.778  31.965  75.032  1.00  0.00     0.122 C 
BRANCH  22  23
HETATM   23  C8  UNL     1       7.073  31.358  74.627  1.00  0.00    -0.103 C 
HETATM   24  C7  UNL     1       8.135  30.865  74.319  1.00  0.00    -0.106 C 
BRANCH  24  25
HETATM   25  C6  UNL     1       9.423  30.262  73.973  1.00  0.00     0.094 C 
BRANCH  25  26
HETATM   26  C5  UNL     1      10.532  31.224  74.456  1.00  0.00     0.012 C 
BRANCH  26  27
HETATM   27  C4  UNL     1      11.843  30.518  74.283  1.00  0.00     0.001 C 
BRANCH  27  28
HETATM   28  C3  UNL     1      12.651  30.870  73.104  1.00  0.00    -0.000 C 
BRANCH  28  29
HETATM   29  C2  UNL     1      12.946  29.847  72.077  1.00  0.00    -0.005 C 
HETATM   30  C1  UNL     1      11.802  29.189  71.400  1.00  0.00     0.005 C 
ENDBRANCH  28  29
ENDBRANCH  27  28
ENDBRANCH  26  27
ENDBRANCH  25  26
ENDBRANCH  24  25
ENDBRANCH  22  23
ENDBRANCH   1  22
TORSDOF 11
ENDMDL
MODEL 3
REMARK VINA RESULT: -5.599157135      1.942      3.146
REMARK  11 active torsions:
REMARK  status: ('A' for Active; 'I' for Inactive)
REMARK    1  A    between atoms: C2_2  and  C3_3 
REMARK    2  A    between atoms: C3_3  and  C4_4 
REMARK    3  A    between atoms: C4_4  and  C5_5 
REMARK    4  A    between atoms: C5_5  and  C6_6 
REMARK    5  A    between atoms: C6_6  and  C7_7 
REMARK    6  A    between atoms: C8_8  and  C9_9 
REMARK    7  A    between atoms: C9_9  and  C10_10 
REMARK    8  A    between atoms: N3_18  and  N4_19 
REMARK    9  A    between atoms: N4_19  and  C14_21 
REMARK   10  A    between atoms: C14_21  and  N5_23 
REMARK   11  A    between atoms: N5_23  and  C15_25 
ROOT
HETATM    1  C10 UNL     1       6.197  36.512  77.181  1.00  0.00     0.010 C 
HETATM    2  C11 UNL     1       6.059  35.242  77.433  1.00  0.00     0.075 C 
HETATM    3  S1  UNL     1       5.766  34.540  79.108  1.00  0.00    -0.046 SA
HETATM    4  C12 UNL     1       4.950  33.072  78.490  1.00  0.00     0.183 C 
HETATM    5  N1  UNL     1       4.095  32.383  79.122  1.00  0.00    -0.272 N 
ATOM      6  H1  UNL     1       3.712  31.568  78.642  1.00  0.00     0.180 HD
HETATM    7  C13 UNL     1       3.635  32.630  80.397  1.00  0.00     0.183 C 
HETATM    8  N2  UNL     1       3.263  32.823  81.467  1.00  0.00    -0.172 NA
HETATM    9  N3  UNL     1       5.480  32.909  77.196  1.00  0.00    -0.193 N 
HETATM   10  C19 UNL     1       6.066  34.038  76.628  1.00  0.00     0.285 C 
HETATM   11  O1  UNL     1       6.597  34.047  75.452  1.00  0.00    -0.265 OA
ENDROOT
BRANCH   9  12
HETATM   12  N4  UNL     1       5.404  31.659  76.520  1.00  0.00    -0.265 N 
ATOM     13  H4  UNL     1       4.607  31.489  75.907  1.00  0.00     0.190 HD
BRANCH  12  14
HETATM   14  C14 UNL     1       6.375  30.646  76.654  1.00  0.00     0.187 C 
HETATM   15  S2  UNL     1       6.919  30.195  78.147  1.00  0.00    -0.040 SA
BRANCH  14  16
HETATM   16  N5  UNL     1       6.916  29.983  75.512  1.00  0.00    -0.358 N 
ATOM     17  H5  UNL     1       6.525  29.085  75.224  1.00  0.00     0.162 HD
BRANCH  16  18
HETATM   18  C15 UNL     1       8.010  30.554  74.753  1.00  0.00     0.021 C 
HETATM   19  C16 UNL     1       7.385  31.369  73.615  1.00  0.00     0.037 C 
HETATM   20  C17 UNL     1       8.885  29.465  74.147  1.00  0.00     0.037 C 
HETATM   21  C18 UNL     1       8.896  31.444  75.587  1.00  0.00     0.037 C 
ENDBRANCH  16  18
ENDBRANCH  14  16
ENDBRANCH  12  14
ENDBRANCH   9  12
BRANCH   1  22
HETATM   22  C9  UNL     1       6.431  37.147  75.881  1.00  0.00     0.122 C 
BRANCH  22  23
HETATM   23  C8  UNL     1       7.866  37.097  75.496  1.00  0.00    -0.103 C 
HETATM   24  C7  UNL     1       9.038  37.039  75.197  1.00  0.00    -0.106 C 
BRANCH  24  25
HETATM   25  C6  UNL     1      10.455  36.943  74.845  1.00  0.00     0.094 C 
BRANCH  25  26
HETATM   26  C5  UNL     1      11.092  35.878  75.766  1.00  0.00     0.012 C 
BRANCH  26  27
HETATM   27  C4  UNL     1      10.034  34.862  76.075  1.00  0.00     0.001 C 
BRANCH  27  28
HETATM   28  C3  UNL     1       9.876  34.453  77.480  1.00  0.00    -0.000 C 
BRANCH  28  29
HETATM   29  C2  UNL     1       9.596  35.468  78.519  1.00  0.00    -0.005 C 
HETATM   30  C1  UNL     1      10.366  35.402  79.784  1.00  0.00     0.005 C 
ENDBRANCH  28  29
ENDBRANCH  27  28
ENDBRANCH  26  27
ENDBRANCH  25  26
ENDBRANCH  24  25
ENDBRANCH  22  23
ENDBRANCH   1  22
TORSDOF 11
ENDMDL
MODEL 4
REMARK VINA RESULT: -5.557290288      2.256      3.006
REMARK  11 active torsions:
REMARK  status: ('A' for Active; 'I' for Inactive)
REMARK    1  A    between atoms: C2_2  and  C3_3 
REMARK    2  A    between atoms: C3_3  and  C4_4 
REMARK    3  A    between atoms: C4_4  and  C5_5 
REMARK    4  A    between atoms: C5_5  and  C6_6 
REMARK    5  A    between atoms: C6_6  and  C7_7 
REMARK    6  A    between atoms: C8_8  and  C9_9 
REMARK    7  A    between atoms: C9_9  and  C10_10 
REMARK    8  A    between atoms: N3_18  and  N4_19 
REMARK    9  A    between atoms: N4_19  and  C14_21 
REMARK   10  A    between atoms: C14_21  and  N5_23 
REMARK   11  A    between atoms: N5_23  and  C15_25 
ROOT
HETATM    1  C10 UNL     1       9.409  33.857  77.770  1.00  0.00     0.010 C 
HETATM    2  C11 UNL     1       9.123  32.823  77.032  1.00  0.00     0.075 C 
HETATM    3  S1  UNL     1       7.697  31.699  77.327  1.00  0.00    -0.046 SA
HETATM    4  C12 UNL     1       7.580  31.190  75.615  1.00  0.00     0.183 C 
HETATM    5  N1  UNL     1       6.530  30.776  75.040  1.00  0.00    -0.272 N 
ATOM      6  H1  UNL     1       6.612  30.520  74.056  1.00  0.00     0.180 HD
HETATM    7  C13 UNL     1       5.287  30.639  75.618  1.00  0.00     0.183 C 
HETATM    8  N2  UNL     1       4.253  30.506  76.103  1.00  0.00    -0.172 NA
HETATM    9  N3  UNL     1       8.885  31.368  75.119  1.00  0.00    -0.193 N 
HETATM   10  C19 UNL     1       9.708  32.221  75.852  1.00  0.00     0.285 C 
HETATM   11  O1  UNL     1      10.929  32.483  75.526  1.00  0.00    -0.265 OA
ENDROOT
BRANCH   9  12
HETATM   12  N4  UNL     1       9.318  30.715  73.931  1.00  0.00    -0.265 N 
ATOM     13  H4  UNL     1       9.152  31.175  73.037  1.00  0.00     0.190 HD
BRANCH  12  14
HETATM   14  C14 UNL     1       9.967  29.463  73.929  1.00  0.00     0.187 C 
HETATM   15  S2  UNL     1       9.597  28.322  75.065  1.00  0.00    -0.040 SA
BRANCH  14  16
HETATM   16  N5  UNL     1      10.958  29.144  72.953  1.00  0.00    -0.358 N 
ATOM     17  H5  UNL     1      10.702  28.566  72.152  1.00  0.00     0.162 HD
BRANCH  16  18
HETATM   18  C15 UNL     1      12.320  29.623  73.073  1.00  0.00     0.021 C 
HETATM   19  C16 UNL     1      13.204  28.661  72.272  1.00  0.00     0.037 C 
HETATM   20  C17 UNL     1      12.779  29.611  74.526  1.00  0.00     0.037 C 
HETATM   21  C18 UNL     1      12.492  31.026  72.549  1.00  0.00     0.037 C 
ENDBRANCH  16  18
ENDBRANCH  14  16
ENDBRANCH  12  14
ENDBRANCH   9  12
BRANCH   1  22
HETATM   22  C9  UNL     1      10.521  34.797  77.601  1.00  0.00     0.122 C 
BRANCH  22  23
HETATM   23  C8  UNL     1      10.333  35.662  76.406  1.00  0.00    -0.103 C 
HETATM   24  C7  UNL     1      10.192  36.383  75.444  1.00  0.00    -0.106 C 
BRANCH  24  25
HETATM   25  C6  UNL     1      10.042  37.270  74.289  1.00  0.00     0.094 C 
BRANCH  25  26
HETATM   26  C5  UNL     1       8.728  38.061  74.478  1.00  0.00     0.012 C 
BRANCH  26  27
HETATM   27  C4  UNL     1       7.614  37.063  74.575  1.00  0.00     0.001 C 
BRANCH  27  28
HETATM   28  C3  UNL     1       6.789  37.084  75.794  1.00  0.00    -0.000 C 
BRANCH  28  29
HETATM   29  C2  UNL     1       6.492  35.824  76.509  1.00  0.00    -0.005 C 
HETATM   30  C1  UNL     1       6.150  34.628  75.701  1.00  0.00     0.005 C 
ENDBRANCH  28  29
ENDBRANCH  27  28
ENDBRANCH  26  27
ENDBRANCH  25  26
ENDBRANCH  24  25
ENDBRANCH  22  23
ENDBRANCH   1  22
TORSDOF 11
ENDMDL
MODEL 5
REMARK VINA RESULT: -5.552688092      1.488      1.774
REMARK  11 active torsions:
REMARK  status: ('A' for Active; 'I' for Inactive)
REMARK    1  A    between atoms: C2_2  and  C3_3 
REMARK    2  A    between atoms: C3_3  and  C4_4 
REMARK    3  A    between atoms: C4_4  and  C5_5 
REMARK    4  A    between atoms: C5_5  and  C6_6 
REMARK    5  A    between atoms: C6_6  and  C7_7 
REMARK    6  A    between atoms: C8_8  and  C9_9 
REMARK    7  A    between atoms: C9_9  and  C10_10 
REMARK    8  A    between atoms: N3_18  and  N4_19 
REMARK    9  A    between atoms: N4_19  and  C14_21 
REMARK   10  A    between atoms: C14_21  and  N5_23 
REMARK   11  A    between atoms: N5_23  and  C15_25 
ROOT
HETATM    1  C10 UNL     1       8.851  34.954  79.910  1.00  0.00     0.010 C 
HETATM    2  C11 UNL     1       7.947  34.020  79.840  1.00  0.00     0.075 C 
HETATM    3  S1  UNL     1       6.269  34.139  80.585  1.00  0.00    -0.046 SA
HETATM    4  C12 UNL     1       5.534  32.987  79.429  1.00  0.00     0.183 C 
HETATM    5  N1  UNL     1       4.313  32.960  79.092  1.00  0.00    -0.272 N 
ATOM      6  H1  UNL     1       4.035  32.245  78.420  1.00  0.00     0.180 HD
HETATM    7  C13 UNL     1       3.326  33.806  79.547  1.00  0.00     0.183 C 
HETATM    8  N2  UNL     1       2.497  34.499  79.939  1.00  0.00    -0.172 NA
HETATM    9  N3  UNL     1       6.613  32.179  79.025  1.00  0.00    -0.193 N 
HETATM   10  C19 UNL     1       7.885  32.705  79.234  1.00  0.00     0.285 C 
HETATM   11  O1  UNL     1       8.972  32.084  78.919  1.00  0.00    -0.265 OA
ENDROOT
BRANCH   9  12
HETATM   12  N4  UNL     1       6.397  30.904  78.429  1.00  0.00    -0.265 N 
ATOM     13  H4  UNL     1       6.215  30.109  79.041  1.00  0.00     0.190 HD
BRANCH  12  14
HETATM   14  C14 UNL     1       6.423  30.686  77.037  1.00  0.00     0.187 C 
HETATM   15  S2  UNL     1       5.023  30.420  76.201  1.00  0.00    -0.040 SA
BRANCH  14  16
HETATM   16  N5  UNL     1       7.651  30.686  76.309  1.00  0.00    -0.358 N 
ATOM     17  H5  UNL     1       8.321  29.932  76.462  1.00  0.00     0.162 HD
BRANCH  16  18
HETATM   18  C15 UNL     1       7.968  31.733  75.359  1.00  0.00     0.021 C 
HETATM   19  C16 UNL     1       9.467  32.019  75.493  1.00  0.00     0.037 C 
HETATM   20  C17 UNL     1       7.199  33.010  75.675  1.00  0.00     0.037 C 
HETATM   21  C18 UNL     1       7.649  31.345  73.938  1.00  0.00     0.037 C 
ENDBRANCH  16  18
ENDBRANCH  14  16
ENDBRANCH  12  14
ENDBRANCH   9  12
BRANCH   1  22
HETATM   22  C9  UNL     1      10.203  34.935  79.345  1.00  0.00     0.122 C 
BRANCH  22  23
HETATM   23  C8  UNL     1      10.202  35.303  77.905  1.00  0.00    -0.103 C 
HETATM   24  C7  UNL     1      10.223  35.611  76.734  1.00  0.00    -0.106 C 
BRANCH  24  25
HETATM   25  C6  UNL     1      10.275  35.984  75.320  1.00  0.00     0.094 C 
BRANCH  25  26
HETATM   26  C5  UNL     1       9.314  37.177  75.118  1.00  0.00     0.012 C 
BRANCH  26  27
HETATM   27  C4  UNL     1       7.929  36.618  74.980  1.00  0.00     0.001 C 
BRANCH  27  28
HETATM   28  C3  UNL     1       6.904  37.108  75.916  1.00  0.00    -0.000 C 
BRANCH  28  29
HETATM   29  C2  UNL     1       6.620  36.360  77.160  1.00  0.00    -0.005 C 
HETATM   30  C1  UNL     1       5.732  36.991  78.166  1.00  0.00     0.005 C 
ENDBRANCH  28  29
ENDBRANCH  27  28
ENDBRANCH  26  27
ENDBRANCH  25  26
ENDBRANCH  24  25
ENDBRANCH  22  23
ENDBRANCH   1  22
TORSDOF 11
ENDMDL
