MODEL 1
REMARK VINA RESULT: -7.864433680      0.000      0.000
REMARK  6 active torsions:
REMARK  status: ('A' for Active; 'I' for Inactive)
REMARK    1  A    between atoms: C2_2  and  C4_4 
REMARK    2  A    between atoms: C6_9  and  N2_10 
REMARK       I    between atoms: N2_10  and  C7_12 
REMARK       I    between atoms: C7_12  and  N3_14 
REMARK    3  A    between atoms: N3_14  and  C8_16 
REMARK    4  A    between atoms: C8_16  and  C9_17 
REMARK    5  A    between atoms: C9_17  and  C10_18 
REMARK    6  A    between atoms: N4_21  and  C13_22 
ROOT
HETATM    1  N2  UNL     1       5.146  37.676  77.564  1.00  0.00    -0.289 N 
ATOM      2  H2  UNL     1       5.460  37.904  76.621  1.00  0.00     0.172 HD
HETATM    3  C7  UNL     1       5.655  36.564  78.292  1.00  0.00     0.322 C 
HETATM    4  O1  UNL     1       4.925  35.580  78.572  1.00  0.00    -0.247 OA
HETATM    5  N3  UNL     1       7.003  36.541  78.718  1.00  0.00    -0.343 N 
ATOM      6  H3  UNL     1       7.613  37.330  78.502  1.00  0.00     0.164 HD
ENDROOT
BRANCH   1   7
HETATM    7  C6  UNL     1       4.232  38.395  78.204  1.00  0.00     0.155 A 
HETATM    8  S1  UNL     1       4.174  40.076  78.452  1.00  0.00    -0.033 SA
HETATM    9  C5  UNL     1       2.674  40.140  79.359  1.00  0.00     0.112 A 
HETATM   10  N1  UNL     1       1.869  41.017  79.952  1.00  0.00    -0.345 N 
HETATM   11  C18 UNL     1       2.339  38.835  79.393  1.00  0.00     0.112 A 
HETATM   12  C4  UNL     1       0.784  40.606  80.549  1.00  0.00     0.057 A 
ATOM     13  H1  UNL     1       2.100  42.010  79.941  1.00  0.00     0.167 HD
HETATM   14  S2  UNL     1       0.842  38.922  80.300  1.00  0.00    -0.056 SA
HETATM   15  N5  UNL     1       3.146  37.956  78.799  1.00  0.00    -0.328 N 
ATOM     16  H5  UNL     1       2.923  36.960  78.806  1.00  0.00     0.168 HD
BRANCH  12  17
HETATM   17  C2  UNL     1      -0.260  41.427  81.277  1.00  0.00     0.035 C 
HETATM   18  C1  UNL     1      -0.377  41.002  82.723  1.00  0.00     0.016 C 
HETATM   19  C3  UNL     1       0.187  42.869  81.154  1.00  0.00     0.016 C 
ENDBRANCH  12  17
ENDBRANCH   1   7
BRANCH   5  20
HETATM   20  C8  UNL     1       7.524  35.421  79.452  1.00  0.00     0.125 C 
BRANCH  20  21
HETATM   21  C9  UNL     1       7.560  34.157  78.652  1.00  0.00     0.024 C 
BRANCH  21  22
HETATM   22  C10 UNL     1       8.790  33.976  77.823  1.00  0.00    -0.010 C 
HETATM   23  C11 UNL     1       8.407  33.807  76.374  1.00  0.00     0.035 C 
HETATM   24  C12 UNL     1       7.997  35.118  75.741  1.00  0.00     0.273 C 
HETATM   25  N4  UNL     1       8.810  36.218  76.195  1.00  0.00     0.092 N 
HETATM   26  C16 UNL     1      10.080  35.708  76.686  1.00  0.00     0.273 C 
HETATM   27  C17 UNL     1       9.784  35.070  78.042  1.00  0.00     0.035 C 
BRANCH  25  28
HETATM   28  C13 UNL     1       9.074  37.204  75.195  1.00  0.00     0.215 C 
HETATM   29  C14 UNL     1       8.073  37.175  74.061  1.00  0.00     0.042 C 
HETATM   30  C15 UNL     1      10.463  37.191  74.645  1.00  0.00     0.042 C 
ENDBRANCH  25  28
ENDBRANCH  21  22
ENDBRANCH  20  21
ENDBRANCH   5  20
TORSDOF 6
ENDMDL
MODEL 2
REMARK VINA RESULT: -7.515046188      2.031      2.774
REMARK  6 active torsions:
REMARK  status: ('A' for Active; 'I' for Inactive)
REMARK    1  A    between atoms: C2_2  and  C4_4 
REMARK    2  A    between atoms: C6_9  and  N2_10 
REMARK       I    between atoms: N2_10  and  C7_12 
REMARK       I    between atoms: C7_12  and  N3_14 
REMARK    3  A    between atoms: N3_14  and  C8_16 
REMARK    4  A    between atoms: C8_16  and  C9_17 
REMARK    5  A    between atoms: C9_17  and  C10_18 
REMARK    6  A    between atoms: N4_21  and  C13_22 
ROOT
HETATM    1  N2  UNL     1       3.138  34.899  81.069  1.00  0.00    -0.289 N 
ATOM      2  H2  UNL     1       2.654  34.092  81.461  1.00  0.00     0.172 HD
HETATM    3  C7  UNL     1       4.442  34.808  80.505  1.00  0.00     0.322 C 
HETATM    4  O1  UNL     1       5.426  35.371  81.047  1.00  0.00    -0.247 OA
HETATM    5  N3  UNL     1       4.660  34.078  79.314  1.00  0.00    -0.343 N 
ATOM      6  H3  UNL     1       3.875  33.614  78.857  1.00  0.00     0.164 HD
ENDROOT
BRANCH   1   7
HETATM    7  C6  UNL     1       2.599  36.111  81.046  1.00  0.00     0.155 A 
HETATM    8  S1  UNL     1       1.576  36.849  82.186  1.00  0.00    -0.033 SA
HETATM    9  C5  UNL     1       1.366  38.388  81.370  1.00  0.00     0.112 A 
HETATM   10  N1  UNL     1       0.745  39.553  81.520  1.00  0.00    -0.345 N 
HETATM   11  C18 UNL     1       2.117  38.198  80.267  1.00  0.00     0.112 A 
HETATM   12  C4  UNL     1       0.871  40.482  80.612  1.00  0.00     0.057 A 
ATOM     13  H1  UNL     1       0.170  39.722  82.345  1.00  0.00     0.167 HD
HETATM   14  S2  UNL     1       1.895  39.742  79.469  1.00  0.00    -0.056 SA
HETATM   15  N5  UNL     1       2.741  37.029  80.116  1.00  0.00    -0.328 N 
ATOM     16  H5  UNL     1       3.317  36.851  79.294  1.00  0.00     0.168 HD
BRANCH  12  17
HETATM   17  C2  UNL     1       0.255  41.866  80.587  1.00  0.00     0.035 C 
HETATM   18  C1  UNL     1      -0.277  42.251  81.949  1.00  0.00     0.016 C 
HETATM   19  C3  UNL     1       1.357  42.801  80.133  1.00  0.00     0.016 C 
ENDBRANCH  12  17
ENDBRANCH   1   7
BRANCH   5  20
HETATM   20  C8  UNL     1       5.973  33.982  78.740  1.00  0.00     0.125 C 
BRANCH  20  21
HETATM   21  C9  UNL     1       6.044  34.501  77.338  1.00  0.00     0.024 C 
BRANCH  21  22
HETATM   22  C10 UNL     1       6.366  35.956  77.226  1.00  0.00    -0.010 C 
HETATM   23  C11 UNL     1       7.685  36.238  77.900  1.00  0.00     0.035 C 
HETATM   24  C12 UNL     1       8.858  35.767  77.068  1.00  0.00     0.273 C 
HETATM   25  N4  UNL     1       8.651  35.996  75.660  1.00  0.00     0.092 N 
HETATM   26  C16 UNL     1       7.672  37.057  75.484  1.00  0.00     0.273 C 
HETATM   27  C17 UNL     1       6.315  36.440  75.814  1.00  0.00     0.035 C 
BRANCH  25  28
HETATM   28  C13 UNL     1       9.836  36.350  74.944  1.00  0.00     0.215 C 
HETATM   29  C14 UNL     1      11.103  35.965  75.675  1.00  0.00     0.042 C 
HETATM   30  C15 UNL     1       9.913  37.780  74.516  1.00  0.00     0.042 C 
ENDBRANCH  25  28
ENDBRANCH  21  22
ENDBRANCH  20  21
ENDBRANCH   5  20
TORSDOF 6
ENDMDL
MODEL 3
REMARK VINA RESULT: -7.456292854      1.572      2.605
REMARK  6 active torsions:
REMARK  status: ('A' for Active; 'I' for Inactive)
REMARK    1  A    between atoms: C2_2  and  C4_4 
REMARK    2  A    between atoms: C6_9  and  N2_10 
REMARK       I    between atoms: N2_10  and  C7_12 
REMARK       I    between atoms: C7_12  and  N3_14 
REMARK    3  A    between atoms: N3_14  and  C8_16 
REMARK    4  A    between atoms: C8_16  and  C9_17 
REMARK    5  A    between atoms: C9_17  and  C10_18 
REMARK    6  A    between atoms: N4_21  and  C13_22 
ROOT
HETATM    1  N2  UNL     1       4.977  37.850  77.492  1.00  0.00    -0.289 N 
ATOM      2  H2  UNL     1       5.258  37.986  76.521  1.00  0.00     0.172 HD
HETATM    3  C7  UNL     1       5.475  36.781  78.290  1.00  0.00     0.322 C 
HETATM    4  O1  UNL     1       4.720  35.855  78.682  1.00  0.00    -0.247 OA
HETATM    5  N3  UNL     1       6.838  36.736  78.660  1.00  0.00    -0.343 N 
ATOM      6  H3  UNL     1       7.469  37.477  78.353  1.00  0.00     0.164 HD
ENDROOT
BRANCH   1   7
HETATM    7  C6  UNL     1       4.122  38.657  78.105  1.00  0.00     0.155 A 
HETATM    8  S1  UNL     1       4.331  40.277  78.580  1.00  0.00    -0.033 SA
HETATM    9  C5  UNL     1       2.747  40.533  79.289  1.00  0.00     0.112 A 
HETATM   10  N1  UNL     1       2.033  41.478  79.893  1.00  0.00    -0.345 N 
HETATM   11  C18 UNL     1       2.181  39.325  79.096  1.00  0.00     0.112 A 
HETATM   12  C4  UNL     1       0.813  41.225  80.283  1.00  0.00     0.057 A 
ATOM     13  H1  UNL     1       2.438  42.400  80.052  1.00  0.00     0.167 HD
HETATM   14  S2  UNL     1       0.604  39.603  79.808  1.00  0.00    -0.056 SA
HETATM   15  N5  UNL     1       2.896  38.378  78.490  1.00  0.00    -0.328 N 
ATOM     16  H5  UNL     1       2.500  37.452  78.328  1.00  0.00     0.168 HD
BRANCH  12  17
HETATM   17  C2  UNL     1      -0.163  42.148  80.982  1.00  0.00     0.035 C 
HETATM   18  C1  UNL     1      -0.253  41.831  82.457  1.00  0.00     0.016 C 
HETATM   19  C3  UNL     1       0.351  43.553  80.743  1.00  0.00     0.016 C 
ENDBRANCH  12  17
ENDBRANCH   1   7
BRANCH   5  20
HETATM   20  C8  UNL     1       7.347  35.659  79.464  1.00  0.00     0.125 C 
BRANCH  20  21
HETATM   21  C9  UNL     1       8.028  34.595  78.662  1.00  0.00     0.024 C 
BRANCH  21  22
HETATM   22  C10 UNL     1       7.937  34.774  77.181  1.00  0.00    -0.010 C 
HETATM   23  C11 UNL     1       9.318  34.711  76.576  1.00  0.00     0.035 C 
HETATM   24  C12 UNL     1       9.845  33.294  76.518  1.00  0.00     0.273 C 
HETATM   25  N4  UNL     1       8.815  32.344  76.179  1.00  0.00     0.092 N 
HETATM   26  C16 UNL     1       7.737  33.031  75.485  1.00  0.00     0.273 C 
HETATM   27  C17 UNL     1       6.979  33.816  76.553  1.00  0.00     0.035 C 
BRANCH  25  28
HETATM   28  C13 UNL     1       9.262  31.262  75.362  1.00  0.00     0.215 C 
HETATM   29  C14 UNL     1      10.693  31.426  74.897  1.00  0.00     0.042 C 
HETATM   30  C15 UNL     1       8.384  30.945  74.194  1.00  0.00     0.042 C 
ENDBRANCH  25  28
ENDBRANCH  21  22
ENDBRANCH  20  21
ENDBRANCH   5  20
TORSDOF 6
ENDMDL
MODEL 4
REMARK VINA RESULT: -7.319960467      6.676     11.944
REMARK  6 active torsions:
REMARK  status: ('A' for Active; 'I' for Inactive)
REMARK    1  A    between atoms: C2_2  and  C4_4 
REMARK    2  A    between atoms: C6_9  and  N2_10 
REMARK       I    between atoms: N2_10  and  C7_12 
REMARK       I    between atoms: C7_12  and  N3_14 
REMARK    3  A    between atoms: N3_14  and  C8_16 
REMARK    4  A    between atoms: C8_16  and  C9_17 
REMARK    5  A    between atoms: C9_17  and  C10_18 
REMARK    6  A    between atoms: N4_21  and  C13_22 
ROOT
HETATM    1  N2  UNL     1       8.044  29.509  74.741  1.00  0.00    -0.289 N 
ATOM      2  H2  UNL     1       7.409  28.765  75.030  1.00  0.00     0.172 HD
HETATM    3  C7  UNL     1       7.648  30.876  74.693  1.00  0.00     0.322 C 
HETATM    4  O1  UNL     1       7.562  31.490  73.600  1.00  0.00    -0.247 OA
HETATM    5  N3  UNL     1       7.341  31.576  75.882  1.00  0.00    -0.343 N 
ATOM      6  H3  UNL     1       7.404  31.097  76.780  1.00  0.00     0.164 HD
ENDROOT
BRANCH   1   7
HETATM    7  C6  UNL     1       9.300  29.275  74.384  1.00  0.00     0.155 A 
HETATM    8  S1  UNL     1      10.284  27.938  74.748  1.00  0.00    -0.033 SA
HETATM    9  C5  UNL     1      11.728  28.454  73.897  1.00  0.00     0.112 A 
HETATM   10  N1  UNL     1      12.969  28.051  73.639  1.00  0.00    -0.345 N 
HETATM   11  C18 UNL     1      11.320  29.637  73.394  1.00  0.00     0.112 A 
HETATM   12  C4  UNL     1      13.759  28.794  72.914  1.00  0.00     0.057 A 
ATOM     13  H1  UNL     1      13.303  27.161  74.008  1.00  0.00     0.167 HD
HETATM   14  S2  UNL     1      12.773  30.134  72.549  1.00  0.00    -0.056 SA
HETATM   15  N5  UNL     1      10.077  30.042  73.652  1.00  0.00    -0.328 N 
ATOM     16  H5  UNL     1       9.734  30.931  73.288  1.00  0.00     0.168 HD
BRANCH  12  17
HETATM   17  C2  UNL     1      15.193  28.525  72.505  1.00  0.00     0.035 C 
HETATM   18  C1  UNL     1      16.165  29.151  73.479  1.00  0.00     0.016 C 
HETATM   19  C3  UNL     1      15.336  27.018  72.463  1.00  0.00     0.016 C 
ENDBRANCH  12  17
ENDBRANCH   1   7
BRANCH   5  20
HETATM   20  C8  UNL     1       6.940  32.955  75.840  1.00  0.00     0.125 C 
BRANCH  20  21
HETATM   21  C9  UNL     1       6.930  33.608  77.187  1.00  0.00     0.024 C 
BRANCH  21  22
HETATM   22  C10 UNL     1       6.462  35.027  77.190  1.00  0.00    -0.010 C 
HETATM   23  C11 UNL     1       7.474  35.895  77.896  1.00  0.00     0.035 C 
HETATM   24  C12 UNL     1       8.697  36.147  77.041  1.00  0.00     0.273 C 
HETATM   25  N4  UNL     1       8.358  36.338  75.653  1.00  0.00     0.092 N 
HETATM   26  C16 UNL     1       6.970  36.761  75.549  1.00  0.00     0.273 C 
HETATM   27  C17 UNL     1       6.128  35.515  75.819  1.00  0.00     0.035 C 
BRANCH  25  28
HETATM   28  C13 UNL     1       9.174  37.296  74.978  1.00  0.00     0.215 C 
HETATM   29  C14 UNL     1       8.655  37.647  73.601  1.00  0.00     0.042 C 
HETATM   30  C15 UNL     1      10.626  36.948  74.897  1.00  0.00     0.042 C 
ENDBRANCH  25  28
ENDBRANCH  21  22
ENDBRANCH  20  21
ENDBRANCH   5  20
TORSDOF 6
ENDMDL
MODEL 5
REMARK VINA RESULT: -7.298560975      1.754      2.537
REMARK  6 active torsions:
REMARK  status: ('A' for Active; 'I' for Inactive)
REMARK    1  A    between atoms: C2_2  and  C4_4 
REMARK    2  A    between atoms: C6_9  and  N2_10 
REMARK       I    between atoms: N2_10  and  C7_12 
REMARK       I    between atoms: C7_12  and  N3_14 
REMARK    3  A    between atoms: N3_14  and  C8_16 
REMARK    4  A    between atoms: C8_16  and  C9_17 
REMARK    5  A    between atoms: C9_17  and  C10_18 
REMARK    6  A    between atoms: N4_21  and  C13_22 
ROOT
HETATM    1  N2  UNL     1       5.196  37.926  77.235  1.00  0.00    -0.289 N 
ATOM      2  H2  UNL     1       5.473  38.216  76.297  1.00  0.00     0.172 HD
HETATM    3  C7  UNL     1       5.760  36.789  77.881  1.00  0.00     0.322 C 
HETATM    4  O1  UNL     1       5.067  35.770  78.126  1.00  0.00    -0.247 OA
HETATM    5  N3  UNL     1       7.121  36.782  78.263  1.00  0.00    -0.343 N 
ATOM      6  H3  UNL     1       7.702  37.600  78.073  1.00  0.00     0.164 HD
ENDROOT
BRANCH   1   7
HETATM    7  C6  UNL     1       4.285  38.580  77.943  1.00  0.00     0.155 A 
HETATM    8  S1  UNL     1       4.268  40.211  78.420  1.00  0.00    -0.033 SA
HETATM    9  C5  UNL     1       2.743  40.200  79.287  1.00  0.00     0.112 A 
HETATM   10  N1  UNL     1       1.946  41.013  79.974  1.00  0.00    -0.345 N 
HETATM   11  C18 UNL     1       2.369  38.915  79.131  1.00  0.00     0.112 A 
HETATM   12  C4  UNL     1       0.831  40.561  80.478  1.00  0.00     0.057 A 
ATOM     13  H1  UNL     1       2.206  41.990  80.106  1.00  0.00     0.167 HD
HETATM   14  S2  UNL     1       0.847  38.926  80.001  1.00  0.00    -0.056 SA
HETATM   15  N5  UNL     1       3.168  38.099  78.442  1.00  0.00    -0.328 N 
ATOM     16  H5  UNL     1       2.916  37.120  78.305  1.00  0.00     0.168 HD
BRANCH  12  17
HETATM   17  C2  UNL     1      -0.210  41.309  81.286  1.00  0.00     0.035 C 
HETATM   18  C1  UNL     1      -0.313  40.756  82.689  1.00  0.00     0.016 C 
HETATM   19  C3  UNL     1       0.228  42.758  81.286  1.00  0.00     0.016 C 
ENDBRANCH  12  17
ENDBRANCH   1   7
BRANCH   5  20
HETATM   20  C8  UNL     1       7.697  35.638  78.914  1.00  0.00     0.125 C 
BRANCH  20  21
HETATM   21  C9  UNL     1       8.697  34.918  78.065  1.00  0.00     0.024 C 
BRANCH  21  22
HETATM   22  C10 UNL     1       8.624  33.427  78.143  1.00  0.00    -0.010 C 
HETATM   23  C11 UNL     1       7.190  32.982  78.003  1.00  0.00     0.035 C 
HETATM   24  C12 UNL     1       6.705  33.076  76.573  1.00  0.00     0.273 C 
HETATM   25  N4  UNL     1       7.723  32.692  75.628  1.00  0.00     0.092 N 
HETATM   26  C16 UNL     1       8.698  31.840  76.291  1.00  0.00     0.273 C 
HETATM   27  C17 UNL     1       9.540  32.765  77.167  1.00  0.00     0.035 C 
BRANCH  25  28
HETATM   28  C13 UNL     1       7.225  32.002  74.480  1.00  0.00     0.215 C 
HETATM   29  C14 UNL     1       5.798  31.530  74.649  1.00  0.00     0.042 C 
HETATM   30  C15 UNL     1       8.079  30.872  74.001  1.00  0.00     0.042 C 
ENDBRANCH  25  28
ENDBRANCH  21  22
ENDBRANCH  20  21
ENDBRANCH   5  20
TORSDOF 6
ENDMDL
