MODEL 1
REMARK VINA RESULT: -8.897962662      0.000      0.000
REMARK  19 active torsions:
REMARK  status: ('A' for Active; 'I' for Inactive)
REMARK    1  A    between atoms: O1_2  and  C2_3 
REMARK    2  A    between atoms: C4_5  and  O2_6 
REMARK    3  A    between atoms: C7_10  and  O3_11 
REMARK       I    between atoms: N1_15  and  C9_16 
REMARK       I    between atoms: C9_16  and  N2_18 
REMARK    4  A    between atoms: N2_18  and  C10_20 
REMARK    5  A    between atoms: C10_20  and  C11_21 
REMARK    6  A    between atoms: C11_21  and  S1_22 
REMARK    7  A    between atoms: S1_22  and  C12_25 
REMARK    8  A    between atoms: C14_27  and  O8_28 
REMARK    9  A    between atoms: C15_30  and  O9_31 
REMARK   10  A    between atoms: C16_33  and  O10_34 
REMARK   11  A    between atoms: C18_36  and  N3_37 
REMARK   12  A    between atoms: C19_40  and  O13_41 
REMARK   13  A    between atoms: O13_41  and  C20_42 
REMARK   14  A    between atoms: C20_42  and  C21_43 
REMARK   15  A    between atoms: C20_42  and  C22_46 
REMARK   16  A    between atoms: C21_43  and  O14_44 
REMARK   17  A    between atoms: C22_46  and  O15_47 
REMARK   18  A    between atoms: C22_46  and  C23_49 
REMARK   19  A    between atoms: C23_49  and  O16_50 
ROOT
HETATM    1  C2  UNL     1      17.693 -10.953  -2.586  1.00  0.00     0.104 A 
HETATM    2  C3  UNL     1      18.943 -10.579  -3.025  1.00  0.00     0.076 A 
HETATM    3  C4  UNL     1      19.223  -9.273  -3.322  1.00  0.00     0.079 A 
HETATM    4  C5  UNL     1      18.213  -8.312  -3.176  1.00  0.00     0.035 A 
HETATM    5  C6  UNL     1      16.980  -8.709  -2.740  1.00  0.00     0.081 A 
HETATM    6  C7  UNL     1      16.684 -10.031  -2.433  1.00  0.00     0.115 A 
HETATM    7  C8  UNL     1      15.924  -7.701  -2.628  1.00  0.00     0.267 C 
HETATM    8  O4  UNL     1      14.799  -8.036  -2.229  1.00  0.00    -0.267 OA
HETATM    9  N1  UNL     1      16.259  -6.317  -2.998  1.00  0.00    -0.234 N 
HETATM   10  C9  UNL     1      15.585  -5.322  -2.289  1.00  0.00     0.327 C 
HETATM   11  O5  UNL     1      14.662  -5.705  -1.464  1.00  0.00    -0.247 OA
HETATM   12  N2  UNL     1      15.750  -3.924  -2.321  1.00  0.00    -0.342 N 
ATOM     13  H2  UNL     1      16.464  -3.555  -2.949  1.00  0.00     0.164 HD
HETATM   14  C19 UNL     1      17.285  -6.187  -4.018  1.00  0.00     0.278 C 
HETATM   15  C24 UNL     1      18.492  -6.899  -3.460  1.00  0.00     0.157 A 
HETATM   16  C25 UNL     1      19.240  -6.070  -2.433  1.00  0.00     0.217 A 
HETATM   17  O17 UNL     1      19.772  -6.496  -3.652  1.00  0.00    -0.365 OA
ENDROOT
BRANCH  14  18
HETATM   18  O13 UNL     1      17.441  -4.929  -4.431  1.00  0.00    -0.352 OA
BRANCH  18  19
HETATM   19  C20 UNL     1      17.619  -4.786  -5.825  1.00  0.00     0.178 C 
BRANCH  19  20
HETATM   20  C21 UNL     1      17.081  -6.080  -6.384  1.00  0.00     0.198 C 
BRANCH  20  21
HETATM   21  O14 UNL     1      17.118  -6.203  -7.750  1.00  0.00    -0.398 OA
ATOM     22  H14 UNL     1      17.465  -7.022  -8.083  1.00  0.00     0.209 HD
ENDBRANCH  20  21
ENDBRANCH  19  20
BRANCH  19  23
HETATM   23  C22 UNL     1      19.046  -4.629  -6.193  1.00  0.00     0.172 C 
BRANCH  23  24
HETATM   24  O15 UNL     1      19.667  -5.774  -6.680  1.00  0.00    -0.391 OA
ATOM     25  H15 UNL     1      19.649  -5.878  -7.625  1.00  0.00     0.210 HD
ENDBRANCH  23  24
BRANCH  23  26
HETATM   26  C23 UNL     1      19.248  -3.512  -7.168  1.00  0.00     0.198 C 
BRANCH  26  27
HETATM   27  O16 UNL     1      18.339  -3.622  -8.245  1.00  0.00    -0.398 OA
ATOM     28  H16 UNL     1      18.445  -2.894  -8.846  1.00  0.00     0.209 HD
ENDBRANCH  26  27
ENDBRANCH  23  26
ENDBRANCH  19  23
ENDBRANCH  18  19
ENDBRANCH  14  18
BRANCH  12  29
HETATM   29  C10 UNL     1      15.001  -2.972  -1.550  1.00  0.00     0.140 C 
BRANCH  29  30
HETATM   30  C11 UNL     1      15.367  -1.525  -1.797  1.00  0.00     0.165 C 
BRANCH  30  31
HETATM   31  S1  UNL     1      16.337  -0.911  -0.487  1.00  0.00     0.179 S 
HETATM   32  O6  UNL     1      16.953  -2.135   0.187  1.00  0.00    -0.222 OA
HETATM   33  O7  UNL     1      15.387  -0.370   0.580  1.00  0.00    -0.222 OA
BRANCH  31  34
HETATM   34  C12 UNL     1      17.540   0.224  -0.782  1.00  0.00     0.098 A 
HETATM   35  C13 UNL     1      18.872  -0.144  -0.575  1.00  0.00     0.065 A 
HETATM   36  C14 UNL     1      19.920   0.731  -0.803  1.00  0.00     0.103 A 
HETATM   37  C15 UNL     1      19.671   2.000  -1.245  1.00  0.00     0.135 A 
HETATM   38  C16 UNL     1      18.366   2.362  -1.449  1.00  0.00     0.139 A 
HETATM   39  C18 UNL     1      17.326   1.484  -1.219  1.00  0.00     0.160 A 
BRANCH  36  40
HETATM   40  O8  UNL     1      21.227   0.321  -0.583  1.00  0.00    -0.358 OA
ATOM     41  H8  UNL     1      21.854   0.329  -1.297  1.00  0.00     0.217 HD
ENDBRANCH  36  40
BRANCH  37  42
HETATM   42  O9  UNL     1      20.714   2.882  -1.477  1.00  0.00    -0.356 OA
ATOM     43  H9  UNL     1      20.568   3.820  -1.449  1.00  0.00     0.218 HD
ENDBRANCH  37  42
BRANCH  38  44
HETATM   44  O10 UNL     1      18.102   3.648  -1.898  1.00  0.00    -0.351 OA
HETATM   45  C17 UNL     1      18.032   4.710  -0.984  1.00  0.00     0.210 C 
ENDBRANCH  38  44
BRANCH  39  46
HETATM   46  N3  UNL     1      16.026   1.931  -1.447  1.00  0.00    -0.111 N 
HETATM   47  O11 UNL     1      15.392   2.492  -0.556  1.00  0.00    -0.532 OA
HETATM   48  O12 UNL     1      15.440   1.760  -2.660  1.00  0.00    -0.532 OA
ENDBRANCH  39  46
ENDBRANCH  31  34
ENDBRANCH  30  31
ENDBRANCH  29  30
ENDBRANCH  12  29
BRANCH   6  49
HETATM   49  O3  UNL     1      15.409 -10.335  -1.999  1.00  0.00    -0.357 OA
ATOM     50  H3  UNL     1      15.153 -10.400  -1.087  1.00  0.00     0.217 HD
ENDBRANCH   6  49
BRANCH   3  51
HETATM   51  O2  UNL     1      20.458  -8.820  -3.769  1.00  0.00    -0.360 OA
ATOM     52  H2  UNL     1      20.574  -8.134  -4.416  1.00  0.00     0.217 HD
ENDBRANCH   3  51
BRANCH   1  53
HETATM   53  O1  UNL     1      17.418 -12.292  -2.283  1.00  0.00    -0.353 OA
HETATM   54  C1  UNL     1      17.058 -13.172  -3.356  1.00  0.00     0.210 C 
ENDBRANCH   1  53
TORSDOF 19
ENDMDL
MODEL 2
REMARK VINA RESULT: -8.770028289      1.872      3.843
REMARK  19 active torsions:
REMARK  status: ('A' for Active; 'I' for Inactive)
REMARK    1  A    between atoms: O1_2  and  C2_3 
REMARK    2  A    between atoms: C4_5  and  O2_6 
REMARK    3  A    between atoms: C7_10  and  O3_11 
REMARK       I    between atoms: N1_15  and  C9_16 
REMARK       I    between atoms: C9_16  and  N2_18 
REMARK    4  A    between atoms: N2_18  and  C10_20 
REMARK    5  A    between atoms: C10_20  and  C11_21 
REMARK    6  A    between atoms: C11_21  and  S1_22 
REMARK    7  A    between atoms: S1_22  and  C12_25 
REMARK    8  A    between atoms: C14_27  and  O8_28 
REMARK    9  A    between atoms: C15_30  and  O9_31 
REMARK   10  A    between atoms: C16_33  and  O10_34 
REMARK   11  A    between atoms: C18_36  and  N3_37 
REMARK   12  A    between atoms: C19_40  and  O13_41 
REMARK   13  A    between atoms: O13_41  and  C20_42 
REMARK   14  A    between atoms: C20_42  and  C21_43 
REMARK   15  A    between atoms: C20_42  and  C22_46 
REMARK   16  A    between atoms: C21_43  and  O14_44 
REMARK   17  A    between atoms: C22_46  and  O15_47 
REMARK   18  A    between atoms: C22_46  and  C23_49 
REMARK   19  A    between atoms: C23_49  and  O16_50 
ROOT
HETATM    1  C2  UNL     1      20.061  -9.105  -5.913  1.00  0.00     0.104 A 
HETATM    2  C3  UNL     1      19.268  -8.584  -6.910  1.00  0.00     0.076 A 
HETATM    3  C4  UNL     1      18.365  -7.591  -6.644  1.00  0.00     0.079 A 
HETATM    4  C5  UNL     1      18.254  -7.107  -5.333  1.00  0.00     0.035 A 
HETATM    5  C6  UNL     1      19.051  -7.642  -4.361  1.00  0.00     0.081 A 
HETATM    6  C7  UNL     1      19.973  -8.649  -4.618  1.00  0.00     0.115 A 
HETATM    7  C8  UNL     1      18.898  -7.154  -2.990  1.00  0.00     0.267 C 
HETATM    8  O4  UNL     1      19.614  -7.619  -2.091  1.00  0.00    -0.267 OA
HETATM    9  N1  UNL     1      17.885  -6.115  -2.744  1.00  0.00    -0.234 N 
HETATM   10  C9  UNL     1      18.184  -5.209  -1.725  1.00  0.00     0.327 C 
HETATM   11  O5  UNL     1      19.254  -5.433  -1.028  1.00  0.00    -0.247 OA
HETATM   12  N2  UNL     1      17.493  -4.054  -1.316  1.00  0.00    -0.342 N 
ATOM     13  H2  UNL     1      16.641  -3.817  -1.825  1.00  0.00     0.164 HD
HETATM   14  C19 UNL     1      16.740  -6.152  -3.636  1.00  0.00     0.278 C 
HETATM   15  C24 UNL     1      17.314  -6.022  -5.025  1.00  0.00     0.157 A 
HETATM   16  C25 UNL     1      17.690  -4.595  -5.374  1.00  0.00     0.217 A 
HETATM   17  O17 UNL     1      16.717  -5.347  -6.036  1.00  0.00    -0.365 OA
ENDROOT
BRANCH  14  18
HETATM   18  O13 UNL     1      15.782  -5.297  -3.277  1.00  0.00    -0.352 OA
BRANCH  18  19
HETATM   19  C20 UNL     1      14.605  -5.907  -2.787  1.00  0.00     0.178 C 
BRANCH  19  20
HETATM   20  C21 UNL     1      14.274  -5.098  -1.557  1.00  0.00     0.198 C 
BRANCH  20  21
HETATM   21  O14 UNL     1      14.288  -3.735  -1.716  1.00  0.00    -0.398 OA
ATOM     22  H14 UNL     1      14.664  -3.238  -0.999  1.00  0.00     0.209 HD
ENDBRANCH  20  21
ENDBRANCH  19  20
BRANCH  19  23
HETATM   23  C22 UNL     1      14.822  -7.325  -2.417  1.00  0.00     0.172 C 
BRANCH  23  24
HETATM   24  O15 UNL     1      14.547  -7.646  -1.092  1.00  0.00    -0.391 OA
ATOM     25  H15 UNL     1      15.001  -8.409  -0.755  1.00  0.00     0.210 HD
ENDBRANCH  23  24
BRANCH  23  26
HETATM   26  C23 UNL     1      14.064  -8.255  -3.312  1.00  0.00     0.198 C 
BRANCH  26  27
HETATM   27  O16 UNL     1      14.666  -9.533  -3.325  1.00  0.00    -0.398 OA
ATOM     28  H16 UNL     1      14.017 -10.206  -3.494  1.00  0.00     0.209 HD
ENDBRANCH  26  27
ENDBRANCH  23  26
ENDBRANCH  19  23
ENDBRANCH  18  19
ENDBRANCH  14  18
BRANCH  12  29
HETATM   29  C10 UNL     1      17.879  -3.178  -0.245  1.00  0.00     0.140 C 
BRANCH  29  30
HETATM   30  C11 UNL     1      16.735  -2.451   0.427  1.00  0.00     0.165 C 
BRANCH  30  31
HETATM   31  S1  UNL     1      16.316  -1.017  -0.469  1.00  0.00     0.179 S 
HETATM   32  O6  UNL     1      15.107  -0.416   0.243  1.00  0.00    -0.222 OA
HETATM   33  O7  UNL     1      15.740  -1.461  -1.812  1.00  0.00    -0.222 OA
BRANCH  31  34
HETATM   34  C12 UNL     1      17.461   0.185  -0.730  1.00  0.00     0.098 A 
HETATM   35  C13 UNL     1      18.803  -0.101  -0.465  1.00  0.00     0.065 A 
HETATM   36  C14 UNL     1      19.805   0.832  -0.662  1.00  0.00     0.103 A 
HETATM   37  C15 UNL     1      19.500   2.079  -1.130  1.00  0.00     0.135 A 
HETATM   38  C16 UNL     1      18.185   2.361  -1.391  1.00  0.00     0.139 A 
HETATM   39  C18 UNL     1      17.191   1.425  -1.192  1.00  0.00     0.160 A 
BRANCH  36  40
HETATM   40  O8  UNL     1      21.124   0.504  -0.384  1.00  0.00    -0.358 OA
ATOM     41  H8  UNL     1      21.747   0.396  -1.093  1.00  0.00     0.217 HD
ENDBRANCH  36  40
BRANCH  37  42
HETATM   42  O9  UNL     1      20.498   3.020  -1.332  1.00  0.00    -0.356 OA
ATOM     43  H9  UNL     1      21.174   3.154  -0.677  1.00  0.00     0.218 HD
ENDBRANCH  37  42
BRANCH  38  44
HETATM   44  O10 UNL     1      17.865   3.624  -1.867  1.00  0.00    -0.351 OA
HETATM   45  C17 UNL     1      17.737   4.699  -0.975  1.00  0.00     0.210 C 
ENDBRANCH  38  44
BRANCH  39  46
HETATM   46  N3  UNL     1      15.877   1.791  -1.478  1.00  0.00    -0.111 N 
HETATM   47  O11 UNL     1      15.163   2.290  -0.610  1.00  0.00    -0.532 OA
HETATM   48  O12 UNL     1      15.365   1.610  -2.722  1.00  0.00    -0.532 OA
ENDBRANCH  39  46
ENDBRANCH  31  34
ENDBRANCH  30  31
ENDBRANCH  29  30
ENDBRANCH  12  29
BRANCH   6  49
HETATM   49  O3  UNL     1      20.735  -9.125  -3.569  1.00  0.00    -0.357 OA
ATOM     50  H3  UNL     1      20.849  -8.675  -2.740  1.00  0.00     0.217 HD
ENDBRANCH   6  49
BRANCH   3  51
HETATM   51  O2  UNL     1      17.532  -7.017  -7.597  1.00  0.00    -0.360 OA
ATOM     52  H2  UNL     1      16.611  -7.226  -7.698  1.00  0.00     0.217 HD
ENDBRANCH   3  51
BRANCH   1  53
HETATM   53  O1  UNL     1      20.983 -10.121  -6.195  1.00  0.00    -0.353 OA
HETATM   54  C1  UNL     1      20.484 -11.438  -6.463  1.00  0.00     0.210 C 
ENDBRANCH   1  53
TORSDOF 19
ENDMDL
MODEL 3
REMARK VINA RESULT: -8.682427067      6.091     13.160
REMARK  19 active torsions:
REMARK  status: ('A' for Active; 'I' for Inactive)
REMARK    1  A    between atoms: O1_2  and  C2_3 
REMARK    2  A    between atoms: C4_5  and  O2_6 
REMARK    3  A    between atoms: C7_10  and  O3_11 
REMARK       I    between atoms: N1_15  and  C9_16 
REMARK       I    between atoms: C9_16  and  N2_18 
REMARK    4  A    between atoms: N2_18  and  C10_20 
REMARK    5  A    between atoms: C10_20  and  C11_21 
REMARK    6  A    between atoms: C11_21  and  S1_22 
REMARK    7  A    between atoms: S1_22  and  C12_25 
REMARK    8  A    between atoms: C14_27  and  O8_28 
REMARK    9  A    between atoms: C15_30  and  O9_31 
REMARK   10  A    between atoms: C16_33  and  O10_34 
REMARK   11  A    between atoms: C18_36  and  N3_37 
REMARK   12  A    between atoms: C19_40  and  O13_41 
REMARK   13  A    between atoms: O13_41  and  C20_42 
REMARK   14  A    between atoms: C20_42  and  C21_43 
REMARK   15  A    between atoms: C20_42  and  C22_46 
REMARK   16  A    between atoms: C21_43  and  O14_44 
REMARK   17  A    between atoms: C22_46  and  O15_47 
REMARK   18  A    between atoms: C22_46  and  C23_49 
REMARK   19  A    between atoms: C23_49  and  O16_50 
ROOT
HETATM    1  C2  UNL     1      25.764   9.407  -4.704  1.00  0.00     0.104 A 
HETATM    2  C3  UNL     1      25.092   9.914  -5.794  1.00  0.00     0.076 A 
HETATM    3  C4  UNL     1      23.873   9.415  -6.164  1.00  0.00     0.079 A 
HETATM    4  C5  UNL     1      23.311   8.371  -5.416  1.00  0.00     0.035 A 
HETATM    5  C6  UNL     1      23.998   7.885  -4.340  1.00  0.00     0.081 A 
HETATM    6  C7  UNL     1      25.236   8.383  -3.953  1.00  0.00     0.115 A 
HETATM    7  C8  UNL     1      23.417   6.769  -3.590  1.00  0.00     0.267 C 
HETATM    8  O4  UNL     1      24.018   6.314  -2.606  1.00  0.00    -0.267 OA
HETATM    9  N1  UNL     1      22.124   6.238  -4.049  1.00  0.00    -0.234 N 
HETATM   10  C9  UNL     1      21.288   5.736  -3.051  1.00  0.00     0.327 C 
HETATM   11  O5  UNL     1      21.768   5.683  -1.848  1.00  0.00    -0.247 OA
HETATM   12  N2  UNL     1      19.966   5.263  -3.137  1.00  0.00    -0.342 N 
ATOM     13  H2  UNL     1      19.526   5.279  -4.057  1.00  0.00     0.164 HD
HETATM   14  C19 UNL     1      21.884   6.360  -5.476  1.00  0.00     0.278 C 
HETATM   15  C24 UNL     1      21.991   7.836  -5.772  1.00  0.00     0.157 A 
HETATM   16  C25 UNL     1      20.747   8.607  -5.375  1.00  0.00     0.217 A 
HETATM   17  O17 UNL     1      21.228   8.489  -6.681  1.00  0.00    -0.365 OA
ENDROOT
BRANCH  14  18
HETATM   18  O13 UNL     1      20.777   5.728  -5.866  1.00  0.00    -0.352 OA
BRANCH  18  19
HETATM   19  C20 UNL     1      20.937   4.916  -7.011  1.00  0.00     0.178 C 
BRANCH  19  20
HETATM   20  C21 UNL     1      20.891   3.513  -6.459  1.00  0.00     0.198 C 
BRANCH  20  21
HETATM   21  O14 UNL     1      20.680   2.516  -7.378  1.00  0.00    -0.398 OA
ATOM     22  H14 UNL     1      21.036   1.664  -7.153  1.00  0.00     0.209 HD
ENDBRANCH  20  21
ENDBRANCH  19  20
BRANCH  19  23
HETATM   23  C22 UNL     1      22.234   5.154  -7.688  1.00  0.00     0.172 C 
BRANCH  23  24
HETATM   24  O15 UNL     1      23.003   4.018  -7.919  1.00  0.00    -0.391 OA
ATOM     25  H15 UNL     1      23.935   4.171  -8.018  1.00  0.00     0.210 HD
ENDBRANCH  23  24
BRANCH  23  26
HETATM   26  C23 UNL     1      22.061   5.896  -8.976  1.00  0.00     0.198 C 
BRANCH  26  27
HETATM   27  O16 UNL     1      22.675   7.167  -8.902  1.00  0.00    -0.398 OA
ATOM     28  H16 UNL     1      22.024   7.845  -8.765  1.00  0.00     0.209 HD
ENDBRANCH  26  27
ENDBRANCH  23  26
ENDBRANCH  19  23
ENDBRANCH  18  19
ENDBRANCH  14  18
BRANCH  12  29
HETATM   29  C10 UNL     1      19.180   4.759  -2.046  1.00  0.00     0.140 C 
BRANCH  29  30
HETATM   30  C11 UNL     1      19.049   3.252  -1.999  1.00  0.00     0.165 C 
BRANCH  30  31
HETATM   31  S1  UNL     1      17.823   2.785  -0.853  1.00  0.00     0.179 S 
HETATM   32  O6  UNL     1      16.809   3.927  -0.836  1.00  0.00    -0.222 OA
HETATM   33  O7  UNL     1      18.442   2.852   0.542  1.00  0.00    -0.222 OA
BRANCH  31  34
HETATM   34  C12 UNL     1      17.011   1.325  -1.028  1.00  0.00     0.098 A 
HETATM   35  C13 UNL     1      15.688   1.344  -1.477  1.00  0.00     0.065 A 
HETATM   36  C14 UNL     1      14.956   0.184  -1.655  1.00  0.00     0.103 A 
HETATM   37  C15 UNL     1      15.520  -1.032  -1.390  1.00  0.00     0.135 A 
HETATM   38  C16 UNL     1      16.817  -1.054  -0.949  1.00  0.00     0.139 A 
HETATM   39  C18 UNL     1      17.541   0.108  -0.774  1.00  0.00     0.160 A 
BRANCH  36  40
HETATM   40  O8  UNL     1      13.645   0.252  -2.103  1.00  0.00    -0.358 OA
ATOM     41  H8  UNL     1      13.168  -0.545  -2.303  1.00  0.00     0.217 HD
ENDBRANCH  36  40
BRANCH  37  42
HETATM   42  O9  UNL     1      14.794  -2.199  -1.566  1.00  0.00    -0.356 OA
ATOM     43  H9  UNL     1      14.971  -2.963  -1.030  1.00  0.00     0.218 HD
ENDBRANCH  37  42
BRANCH  38  44
HETATM   44  O10 UNL     1      17.400  -2.283  -0.677  1.00  0.00    -0.351 OA
HETATM   45  C17 UNL     1      17.093  -2.957   0.515  1.00  0.00     0.210 C 
ENDBRANCH  38  44
BRANCH  39  46
HETATM   46  N3  UNL     1      18.854   0.002  -0.319  1.00  0.00    -0.111 N 
HETATM   47  O11 UNL     1      19.092  -0.156   0.877  1.00  0.00    -0.532 OA
HETATM   48  O12 UNL     1      19.894   0.063  -1.190  1.00  0.00    -0.532 OA
ENDBRANCH  39  46
ENDBRANCH  31  34
ENDBRANCH  30  31
ENDBRANCH  29  30
ENDBRANCH  12  29
BRANCH   6  49
HETATM   49  O3  UNL     1      25.853   7.826  -2.850  1.00  0.00    -0.357 OA
ATOM     50  H3  UNL     1      25.560   7.035  -2.413  1.00  0.00     0.217 HD
ENDBRANCH   6  49
BRANCH   3  51
HETATM   51  O2  UNL     1      23.137   9.875  -7.249  1.00  0.00    -0.360 OA
ATOM     52  H2  UNL     1      22.246   9.607  -7.443  1.00  0.00     0.217 HD
ENDBRANCH   3  51
BRANCH   1  53
HETATM   53  O1  UNL     1      27.011   9.926  -4.333  1.00  0.00    -0.353 OA
HETATM   54  C1  UNL     1      27.702  10.767  -5.266  1.00  0.00     0.210 C 
ENDBRANCH   1  53
TORSDOF 19
ENDMDL
MODEL 4
REMARK VINA RESULT: -8.676017230      2.290      4.017
REMARK  19 active torsions:
REMARK  status: ('A' for Active; 'I' for Inactive)
REMARK    1  A    between atoms: O1_2  and  C2_3 
REMARK    2  A    between atoms: C4_5  and  O2_6 
REMARK    3  A    between atoms: C7_10  and  O3_11 
REMARK       I    between atoms: N1_15  and  C9_16 
REMARK       I    between atoms: C9_16  and  N2_18 
REMARK    4  A    between atoms: N2_18  and  C10_20 
REMARK    5  A    between atoms: C10_20  and  C11_21 
REMARK    6  A    between atoms: C11_21  and  S1_22 
REMARK    7  A    between atoms: S1_22  and  C12_25 
REMARK    8  A    between atoms: C14_27  and  O8_28 
REMARK    9  A    between atoms: C15_30  and  O9_31 
REMARK   10  A    between atoms: C16_33  and  O10_34 
REMARK   11  A    between atoms: C18_36  and  N3_37 
REMARK   12  A    between atoms: C19_40  and  O13_41 
REMARK   13  A    between atoms: O13_41  and  C20_42 
REMARK   14  A    between atoms: C20_42  and  C21_43 
REMARK   15  A    between atoms: C20_42  and  C22_46 
REMARK   16  A    between atoms: C21_43  and  O14_44 
REMARK   17  A    between atoms: C22_46  and  O15_47 
REMARK   18  A    between atoms: C22_46  and  C23_49 
REMARK   19  A    between atoms: C23_49  and  O16_50 
ROOT
HETATM    1  C2  UNL     1      20.117  -8.836  -6.472  1.00  0.00     0.104 A 
HETATM    2  C3  UNL     1      19.056  -8.529  -7.293  1.00  0.00     0.076 A 
HETATM    3  C4  UNL     1      18.035  -7.731  -6.855  1.00  0.00     0.079 A 
HETATM    4  C5  UNL     1      18.081  -7.226  -5.548  1.00  0.00     0.035 A 
HETATM    5  C6  UNL     1      19.144  -7.546  -4.753  1.00  0.00     0.081 A 
HETATM    6  C7  UNL     1      20.188  -8.354  -5.186  1.00  0.00     0.115 A 
HETATM    7  C8  UNL     1      19.162  -7.043  -3.378  1.00  0.00     0.267 C 
HETATM    8  O4  UNL     1      20.119  -7.315  -2.639  1.00  0.00    -0.267 OA
HETATM    9  N1  UNL     1      18.022  -6.223  -2.937  1.00  0.00    -0.234 N 
HETATM   10  C9  UNL     1      18.317  -5.234  -1.997  1.00  0.00     0.327 C 
HETATM   11  O5  UNL     1      19.524  -5.206  -1.526  1.00  0.00    -0.247 OA
HETATM   12  N2  UNL     1      17.494  -4.227  -1.460  1.00  0.00    -0.342 N 
ATOM     13  H2  UNL     1      16.529  -4.191  -1.791  1.00  0.00     0.164 HD
HETATM   14  C19 UNL     1      16.759  -6.530  -3.585  1.00  0.00     0.278 C 
HETATM   15  C24 UNL     1      17.014  -6.343  -5.060  1.00  0.00     0.157 A 
HETATM   16  C25 UNL     1      17.010  -4.885  -5.477  1.00  0.00     0.217 A 
HETATM   17  O17 UNL     1      16.106  -5.846  -5.934  1.00  0.00    -0.365 OA
ENDROOT
BRANCH  14  18
HETATM   18  O13 UNL     1      15.732  -5.874  -3.044  1.00  0.00    -0.352 OA
BRANCH  18  19
HETATM   19  C20 UNL     1      14.826  -6.689  -2.330  1.00  0.00     0.178 C 
BRANCH  19  20
HETATM   20  C21 UNL     1      13.570  -6.636  -3.164  1.00  0.00     0.198 C 
BRANCH  20  21
HETATM   21  O14 UNL     1      13.579  -5.740  -4.202  1.00  0.00    -0.398 OA
ATOM     22  H14 UNL     1      13.529  -6.114  -5.074  1.00  0.00     0.209 HD
ENDBRANCH  20  21
ENDBRANCH  19  20
BRANCH  19  23
HETATM   23  C22 UNL     1      14.555  -6.166  -0.970  1.00  0.00     0.172 C 
BRANCH  23  24
HETATM   24  O15 UNL     1      15.678  -5.952  -0.178  1.00  0.00    -0.391 OA
ATOM     25  H15 UNL     1      16.116  -5.119  -0.308  1.00  0.00     0.210 HD
ENDBRANCH  23  24
BRANCH  23  26
HETATM   26  C23 UNL     1      13.739  -4.913  -1.009  1.00  0.00     0.198 C 
BRANCH  26  27
HETATM   27  O16 UNL     1      14.392  -3.919  -1.772  1.00  0.00    -0.398 OA
ATOM     28  H16 UNL     1      13.820  -3.172  -1.907  1.00  0.00     0.209 HD
ENDBRANCH  26  27
ENDBRANCH  23  26
ENDBRANCH  19  23
ENDBRANCH  18  19
ENDBRANCH  14  18
BRANCH  12  29
HETATM   29  C10 UNL     1      17.889  -3.248  -0.488  1.00  0.00     0.140 C 
BRANCH  29  30
HETATM   30  C11 UNL     1      16.745  -2.567   0.232  1.00  0.00     0.165 C 
BRANCH  30  31
HETATM   31  S1  UNL     1      16.303  -1.094  -0.586  1.00  0.00     0.179 S 
HETATM   32  O6  UNL     1      15.088  -0.548   0.161  1.00  0.00    -0.222 OA
HETATM   33  O7  UNL     1      15.727  -1.476  -1.948  1.00  0.00    -0.222 OA
BRANCH  31  34
HETATM   34  C12 UNL     1      17.430   0.135  -0.787  1.00  0.00     0.098 A 
HETATM   35  C13 UNL     1      18.769  -0.129  -0.487  1.00  0.00     0.065 A 
HETATM   36  C14 UNL     1      19.757   0.827  -0.635  1.00  0.00     0.103 A 
HETATM   37  C15 UNL     1      19.441   2.078  -1.086  1.00  0.00     0.135 A 
HETATM   38  C16 UNL     1      18.129   2.339  -1.381  1.00  0.00     0.139 A 
HETATM   39  C18 UNL     1      17.149   1.379  -1.231  1.00  0.00     0.160 A 
BRANCH  36  40
HETATM   40  O8  UNL     1      21.074   0.519  -0.324  1.00  0.00    -0.358 OA
ATOM     41  H8  UNL     1      21.709   1.215  -0.203  1.00  0.00     0.217 HD
ENDBRANCH  36  40
BRANCH  37  42
HETATM   42  O9  UNL     1      20.425   3.042  -1.238  1.00  0.00    -0.356 OA
ATOM     43  H9  UNL     1      21.226   2.998  -0.729  1.00  0.00     0.218 HD
ENDBRANCH  37  42
BRANCH  38  44
HETATM   44  O10 UNL     1      17.797   3.605  -1.841  1.00  0.00    -0.351 OA
HETATM   45  C17 UNL     1      17.617   4.657  -0.930  1.00  0.00     0.210 C 
ENDBRANCH  38  44
BRANCH  39  46
HETATM   46  N3  UNL     1      15.837   1.725  -1.550  1.00  0.00    -0.111 N 
HETATM   47  O11 UNL     1      15.088   2.194  -0.695  1.00  0.00    -0.532 OA
HETATM   48  O12 UNL     1      15.365   1.557  -2.812  1.00  0.00    -0.532 OA
ENDBRANCH  39  46
ENDBRANCH  31  34
ENDBRANCH  30  31
ENDBRANCH  29  30
ENDBRANCH  12  29
BRANCH   6  49
HETATM   49  O3  UNL     1      21.220  -8.622  -4.309  1.00  0.00    -0.357 OA
ATOM     50  H3  UNL     1      21.581  -7.991  -3.696  1.00  0.00     0.217 HD
ENDBRANCH   6  49
BRANCH   3  51
HETATM   51  O2  UNL     1      16.933  -7.378  -7.625  1.00  0.00    -0.360 OA
ATOM     52  H2  UNL     1      16.931  -6.678  -8.267  1.00  0.00     0.217 HD
ENDBRANCH   3  51
BRANCH   1  53
HETATM   53  O1  UNL     1      21.158  -9.653  -6.931  1.00  0.00    -0.353 OA
HETATM   54  C1  UNL     1      21.737  -9.362  -8.210  1.00  0.00     0.210 C 
ENDBRANCH   1  53
TORSDOF 19
ENDMDL
MODEL 5
REMARK VINA RESULT: -8.508989096      2.256      4.396
REMARK  19 active torsions:
REMARK  status: ('A' for Active; 'I' for Inactive)
REMARK    1  A    between atoms: O1_2  and  C2_3 
REMARK    2  A    between atoms: C4_5  and  O2_6 
REMARK    3  A    between atoms: C7_10  and  O3_11 
REMARK       I    between atoms: N1_15  and  C9_16 
REMARK       I    between atoms: C9_16  and  N2_18 
REMARK    4  A    between atoms: N2_18  and  C10_20 
REMARK    5  A    between atoms: C10_20  and  C11_21 
REMARK    6  A    between atoms: C11_21  and  S1_22 
REMARK    7  A    between atoms: S1_22  and  C12_25 
REMARK    8  A    between atoms: C14_27  and  O8_28 
REMARK    9  A    between atoms: C15_30  and  O9_31 
REMARK   10  A    between atoms: C16_33  and  O10_34 
REMARK   11  A    between atoms: C18_36  and  N3_37 
REMARK   12  A    between atoms: C19_40  and  O13_41 
REMARK   13  A    between atoms: O13_41  and  C20_42 
REMARK   14  A    between atoms: C20_42  and  C21_43 
REMARK   15  A    between atoms: C20_42  and  C22_46 
REMARK   16  A    between atoms: C21_43  and  O14_44 
REMARK   17  A    between atoms: C22_46  and  O15_47 
REMARK   18  A    between atoms: C22_46  and  C23_49 
REMARK   19  A    between atoms: C23_49  and  O16_50 
ROOT
HETATM    1  C2  UNL     1      21.340  -7.415  -7.283  1.00  0.00     0.104 A 
HETATM    2  C3  UNL     1      20.488  -6.756  -8.141  1.00  0.00     0.076 A 
HETATM    3  C4  UNL     1      19.316  -6.214  -7.690  1.00  0.00     0.079 A 
HETATM    4  C5  UNL     1      18.988  -6.338  -6.333  1.00  0.00     0.035 A 
HETATM    5  C6  UNL     1      19.849  -6.997  -5.502  1.00  0.00     0.081 A 
HETATM    6  C7  UNL     1      21.043  -7.552  -5.947  1.00  0.00     0.115 A 
HETATM    7  C8  UNL     1      19.477  -7.153  -4.095  1.00  0.00     0.267 C 
HETATM    8  O4  UNL     1      20.244  -7.742  -3.320  1.00  0.00    -0.267 OA
HETATM    9  N1  UNL     1      18.188  -6.589  -3.664  1.00  0.00    -0.234 N 
HETATM   10  C9  UNL     1      18.141  -6.122  -2.349  1.00  0.00     0.327 C 
HETATM   11  O5  UNL     1      19.186  -6.329  -1.611  1.00  0.00    -0.247 OA
HETATM   12  N2  UNL     1      17.115  -5.440  -1.671  1.00  0.00    -0.342 N 
ATOM     13  H2  UNL     1      16.263  -5.242  -2.197  1.00  0.00     0.164 HD
HETATM   14  C19 UNL     1      17.161  -6.554  -4.690  1.00  0.00     0.278 C 
HETATM   15  C24 UNL     1      17.751  -5.740  -5.815  1.00  0.00     0.157 A 
HETATM   16  C25 UNL     1      17.705  -4.248  -5.548  1.00  0.00     0.217 A 
HETATM   17  O17 UNL     1      17.041  -4.891  -6.596  1.00  0.00    -0.365 OA
ENDROOT
BRANCH  14  18
HETATM   18  O13 UNL     1      15.972  -6.184  -4.213  1.00  0.00    -0.352 OA
BRANCH  18  19
HETATM   19  C20 UNL     1      14.994  -7.203  -4.220  1.00  0.00     0.178 C 
BRANCH  19  20
HETATM   20  C21 UNL     1      14.073  -6.801  -5.346  1.00  0.00     0.198 C 
BRANCH  20  21
HETATM   21  O14 UNL     1      14.380  -7.311  -6.581  1.00  0.00    -0.398 OA
ATOM     22  H14 UNL     1      14.144  -6.769  -7.325  1.00  0.00     0.209 HD
ENDBRANCH  20  21
ENDBRANCH  19  20
BRANCH  19  23
HETATM   23  C22 UNL     1      14.240  -7.264  -2.946  1.00  0.00     0.172 C 
BRANCH  23  24
HETATM   24  O15 UNL     1      15.005  -7.519  -1.812  1.00  0.00    -0.391 OA
ATOM     25  H15 UNL     1      15.275  -8.423  -1.697  1.00  0.00     0.210 HD
ENDBRANCH  23  24
BRANCH  23  26
HETATM   26  C23 UNL     1      13.429  -6.027  -2.719  1.00  0.00     0.198 C 
BRANCH  26  27
HETATM   27  O16 UNL     1      14.270  -4.928  -2.434  1.00  0.00    -0.398 OA
ATOM     28  H16 UNL     1      14.104  -4.215  -3.039  1.00  0.00     0.209 HD
ENDBRANCH  26  27
ENDBRANCH  23  26
ENDBRANCH  19  23
ENDBRANCH  18  19
ENDBRANCH  14  18
BRANCH  12  29
HETATM   29  C10 UNL     1      17.158  -4.998  -0.306  1.00  0.00     0.140 C 
BRANCH  29  30
HETATM   30  C11 UNL     1      17.935  -3.720  -0.075  1.00  0.00     0.165 C 
BRANCH  30  31
HETATM   31  S1  UNL     1      16.907  -2.333  -0.308  1.00  0.00     0.179 S 
HETATM   32  O6  UNL     1      16.015  -2.261   0.930  1.00  0.00    -0.222 OA
HETATM   33  O7  UNL     1      15.921  -2.671  -1.425  1.00  0.00    -0.222 OA
BRANCH  31  34
HETATM   34  C12 UNL     1      17.575  -0.821  -0.600  1.00  0.00     0.098 A 
HETATM   35  C13 UNL     1      18.948  -0.647  -0.405  1.00  0.00     0.065 A 
HETATM   36  C14 UNL     1      19.575   0.565  -0.632  1.00  0.00     0.103 A 
HETATM   37  C15 UNL     1      18.851   1.643  -1.061  1.00  0.00     0.135 A 
HETATM   38  C16 UNL     1      17.505   1.475  -1.252  1.00  0.00     0.139 A 
HETATM   39  C18 UNL     1      16.888   0.262  -1.023  1.00  0.00     0.160 A 
BRANCH  36  40
HETATM   40  O8  UNL     1      20.941   0.690  -0.425  1.00  0.00    -0.358 OA
ATOM     41  H8  UNL     1      21.548   0.503  -1.131  1.00  0.00     0.217 HD
ENDBRANCH  36  40
BRANCH  37  42
HETATM   42  O9  UNL     1      19.471   2.861  -1.291  1.00  0.00    -0.356 OA
ATOM     43  H9  UNL     1      20.369   2.894  -1.602  1.00  0.00     0.218 HD
ENDBRANCH  37  42
BRANCH  38  44
HETATM   44  O10 UNL     1      16.762   2.562  -1.687  1.00  0.00    -0.351 OA
HETATM   45  C17 UNL     1      16.408   3.577  -0.785  1.00  0.00     0.210 C 
ENDBRANCH  38  44
BRANCH  39  46
HETATM   46  N3  UNL     1      15.514   0.174  -1.238  1.00  0.00    -0.111 N 
HETATM   47  O11 UNL     1      14.724   0.323  -0.308  1.00  0.00    -0.532 OA
HETATM   48  O12 UNL     1      15.023  -0.071  -2.481  1.00  0.00    -0.532 OA
ENDBRANCH  39  46
ENDBRANCH  31  34
ENDBRANCH  30  31
ENDBRANCH  29  30
ENDBRANCH  12  29
BRANCH   6  49
HETATM   49  O3  UNL     1      21.848  -8.199  -5.031  1.00  0.00    -0.357 OA
ATOM     50  H3  UNL     1      22.718  -7.909  -4.780  1.00  0.00     0.217 HD
ENDBRANCH   6  49
BRANCH   3  51
HETATM   51  O2  UNL     1      18.408  -5.536  -8.494  1.00  0.00    -0.360 OA
ATOM     52  H2  UNL     1      17.856  -4.823  -8.194  1.00  0.00     0.217 HD
ENDBRANCH   3  51
BRANCH   1  53
HETATM   53  O1  UNL     1      22.538  -7.966  -7.754  1.00  0.00    -0.353 OA
HETATM   54  C1  UNL     1      23.089  -7.452  -8.974  1.00  0.00     0.210 C 
ENDBRANCH   1  53
TORSDOF 19
ENDMDL
