MODEL 1
REMARK VINA RESULT: -4.888930483      0.000      0.000
REMARK  1 active torsions:
REMARK  status: ('A' for Active; 'I' for Inactive)
REMARK    1  A    between atoms: O1_1  and  N1_3 
ROOT
HETATM    1  N1  UNL     1      46.961  26.405  45.598  1.00  0.00    -0.062 N 
HETATM    2  N2  UNL     1      46.322  26.623  44.453  1.00  0.00    -0.178 N 
ATOM      3  H2  UNL     1      45.875  25.848  43.962  1.00  0.00     0.214 HD
HETATM    4  N3  UNL     1      46.265  27.852  43.945  1.00  0.00    -0.163 N 
ATOM      5  H3  UNL     1      45.770  27.999  43.066  1.00  0.00     0.220 HD
HETATM    6  O2  UNL     1      46.818  28.872  44.533  1.00  0.00    -0.123 OA
HETATM    7  N4  UNL     1      47.449  28.683  45.655  1.00  0.00    -0.163 N 
ATOM      8  H4  UNL     1      47.892  29.465  46.137  1.00  0.00     0.220 HD
HETATM    9  N5  UNL     1      47.509  27.461  46.164  1.00  0.00    -0.178 N 
ATOM     10  H5  UNL     1      48.007  27.331  47.044  1.00  0.00     0.214 HD
ENDROOT
BRANCH   1  11
HETATM   11  O1  UNL     1      47.048  25.149  46.165  1.00  0.00    -0.251 OA
ATOM     12  H1  UNL     1      47.820  24.603  46.071  1.00  0.00     0.248 HD
ENDBRANCH   1  11
TORSDOF 1
ENDMDL
MODEL 2
REMARK VINA RESULT: -4.880268042      0.043      1.695
REMARK  1 active torsions:
REMARK  status: ('A' for Active; 'I' for Inactive)
REMARK    1  A    between atoms: O1_1  and  N1_3 
ROOT
HETATM    1  N1  UNL     1      46.953  26.402  45.598  1.00  0.00    -0.062 N 
HETATM    2  N2  UNL     1      47.494  27.447  46.216  1.00  0.00    -0.178 N 
ATOM      3  H2  UNL     1      47.977  27.319  47.106  1.00  0.00     0.214 HD
HETATM    4  N3  UNL     1      47.406  28.660  45.676  1.00  0.00    -0.163 N 
ATOM      5  H3  UNL     1      47.828  29.449  46.166  1.00  0.00     0.220 HD
HETATM    6  O2  UNL     1      46.802  28.874  44.545  1.00  0.00    -0.123 OA
HETATM    7  N4  UNL     1      46.265  27.866  43.921  1.00  0.00    -0.163 N 
ATOM      8  H4  UNL     1      45.784  28.006  43.032  1.00  0.00     0.220 HD
HETATM    9  N5  UNL     1      46.349  26.657  44.455  1.00  0.00    -0.178 N 
ATOM     10  H5  UNL     1      45.922  25.878  43.952  1.00  0.00     0.214 HD
ENDROOT
BRANCH   1  11
HETATM   11  O1  UNL     1      47.016  25.124  46.117  1.00  0.00    -0.251 OA
ATOM     12  H1  UNL     1      46.260  24.550  46.145  1.00  0.00     0.248 HD
ENDBRANCH   1  11
TORSDOF 1
ENDMDL
MODEL 3
REMARK VINA RESULT: -4.780597790      9.331      9.650
REMARK  1 active torsions:
REMARK  status: ('A' for Active; 'I' for Inactive)
REMARK    1  A    between atoms: O1_1  and  N1_3 
ROOT
HETATM    1  N1  UNL     1      53.808  25.057  41.065  1.00  0.00    -0.062 N 
HETATM    2  N2  UNL     1      54.996  25.621  41.259  1.00  0.00    -0.178 N 
ATOM      3  H2  UNL     1      55.055  26.576  41.611  1.00  0.00     0.214 HD
HETATM    4  N3  UNL     1      56.108  24.940  40.994  1.00  0.00    -0.163 N 
ATOM      5  H3  UNL     1      57.010  25.390  41.149  1.00  0.00     0.220 HD
HETATM    6  O2  UNL     1      56.085  23.720  40.544  1.00  0.00    -0.123 OA
HETATM    7  N4  UNL     1      54.933  23.147  40.346  1.00  0.00    -0.163 N 
ATOM      8  H4  UNL     1      54.886  22.191  39.993  1.00  0.00     0.220 HD
HETATM    9  N5  UNL     1      53.823  23.821  40.608  1.00  0.00    -0.178 N 
ATOM     10  H5  UNL     1      52.929  23.357  40.447  1.00  0.00     0.214 HD
ENDROOT
BRANCH   1  11
HETATM   11  O1  UNL     1      52.626  25.721  41.325  1.00  0.00    -0.251 OA
ATOM     12  H1  UNL     1      51.867  25.282  41.691  1.00  0.00     0.248 HD
ENDBRANCH   1  11
TORSDOF 1
ENDMDL
MODEL 4
REMARK VINA RESULT: -4.775923681      9.313      9.513
REMARK  1 active torsions:
REMARK  status: ('A' for Active; 'I' for Inactive)
REMARK    1  A    between atoms: O1_1  and  N1_3 
ROOT
HETATM    1  N1  UNL     1      53.782  25.046  41.063  1.00  0.00    -0.062 N 
HETATM    2  N2  UNL     1      53.777  23.797  40.608  1.00  0.00    -0.178 N 
ATOM      3  H2  UNL     1      52.891  23.319  40.440  1.00  0.00     0.214 HD
HETATM    4  N3  UNL     1      54.926  23.169  40.370  1.00  0.00    -0.163 N 
ATOM      5  H3  UNL     1      54.900  22.211  40.022  1.00  0.00     0.220 HD
HETATM    6  O2  UNL     1      56.080  23.735  40.568  1.00  0.00    -0.123 OA
HETATM    7  N4  UNL     1      56.110  24.957  41.013  1.00  0.00    -0.163 N 
ATOM      8  H4  UNL     1      57.002  25.425  41.177  1.00  0.00     0.220 HD
HETATM    9  N5  UNL     1      54.969  25.587  41.251  1.00  0.00    -0.178 N 
ATOM     10  H5  UNL     1      55.012  26.544  41.600  1.00  0.00     0.214 HD
ENDROOT
BRANCH   1  11
HETATM   11  O1  UNL     1      52.618  25.740  41.325  1.00  0.00    -0.251 OA
ATOM     12  H1  UNL     1      52.614  26.566  41.795  1.00  0.00     0.248 HD
ENDBRANCH   1  11
TORSDOF 1
ENDMDL
MODEL 5
REMARK VINA RESULT: -4.695746336      1.155      3.176
REMARK  1 active torsions:
REMARK  status: ('A' for Active; 'I' for Inactive)
REMARK    1  A    between atoms: O1_1  and  N1_3 
ROOT
HETATM    1  N1  UNL     1      46.809  27.397  45.430  1.00  0.00    -0.062 N 
HETATM    2  N2  UNL     1      46.725  27.737  46.712  1.00  0.00    -0.178 N 
ATOM      3  H2  UNL     1      46.559  28.709  46.971  1.00  0.00     0.214 HD
HETATM    4  N3  UNL     1      46.858  26.810  47.658  1.00  0.00    -0.163 N 
ATOM      5  H3  UNL     1      46.791  27.092  48.636  1.00  0.00     0.220 HD
HETATM    6  O2  UNL     1      47.071  25.558  47.378  1.00  0.00    -0.123 OA
HETATM    7  N4  UNL     1      47.157  25.201  46.130  1.00  0.00    -0.163 N 
ATOM      8  H4  UNL     1      47.323  24.226  45.882  1.00  0.00     0.220 HD
HETATM    9  N5  UNL     1      47.025  26.120  45.184  1.00  0.00    -0.178 N 
ATOM     10  H5  UNL     1      47.095  25.822  44.211  1.00  0.00     0.214 HD
ENDROOT
BRANCH   1  11
HETATM   11  O1  UNL     1      46.678  28.320  44.412  1.00  0.00    -0.251 OA
ATOM     12  H1  UNL     1      47.421  28.796  44.060  1.00  0.00     0.248 HD
ENDBRANCH   1  11
TORSDOF 1
ENDMDL
