MODEL 1
REMARK VINA RESULT: -4.437502027      0.000      0.000
REMARK  1 active torsions:
REMARK  status: ('A' for Active; 'I' for Inactive)
REMARK    1  A    between atoms: N5_8  and  O1_9 
ROOT
HETATM    1  C1  UNL     1      46.264  29.250  44.936  1.00  0.00     0.202 C 
HETATM    2  N1  UNL     1      46.802  27.985  45.377  1.00  0.00    -0.178 N 
HETATM    3  N2  UNL     1      47.386  27.687  46.536  1.00  0.00     0.016 NA
HETATM    4  N3  UNL     1      47.725  26.408  46.508  1.00  0.00    -0.207 N 
ATOM      5  H3  UNL     1      48.191  25.901  47.260  1.00  0.00     0.207 HD
HETATM    6  N4  UNL     1      47.361  25.898  45.352  1.00  0.00    -0.186 N 
ATOM      7  H4  UNL     1      47.492  24.934  45.046  1.00  0.00     0.214 HD
HETATM    8  N5  UNL     1      46.787  26.885  44.650  1.00  0.00    -0.064 N 
ENDROOT
BRANCH   8   9
HETATM    9  O1  UNL     1      46.266  26.782  43.382  1.00  0.00    -0.251 OA
ATOM     10  H1  UNL     1      45.360  26.580  43.178  1.00  0.00     0.248 HD
ENDBRANCH   8   9
TORSDOF 1
ENDMDL
MODEL 2
REMARK VINA RESULT: -4.424677470      8.840      9.270
REMARK  1 active torsions:
REMARK  status: ('A' for Active; 'I' for Inactive)
REMARK    1  A    between atoms: N5_8  and  O1_9 
ROOT
HETATM    1  C1  UNL     1      53.356  22.709  41.384  1.00  0.00     0.202 C 
HETATM    2  N1  UNL     1      54.326  23.775  41.319  1.00  0.00    -0.178 N 
HETATM    3  N2  UNL     1      55.655  23.692  41.285  1.00  0.00     0.016 NA
HETATM    4  N3  UNL     1      56.142  24.920  41.227  1.00  0.00    -0.207 N 
ATOM      5  H3  UNL     1      57.132  25.165  41.192  1.00  0.00     0.207 HD
HETATM    6  N4  UNL     1      55.142  25.774  41.223  1.00  0.00    -0.186 N 
ATOM      7  H4  UNL     1      55.213  26.790  41.183  1.00  0.00     0.214 HD
HETATM    8  N5  UNL     1      54.012  25.055  41.281  1.00  0.00    -0.064 N 
ENDROOT
BRANCH   8   9
HETATM    9  O1  UNL     1      52.732  25.557  41.298  1.00  0.00    -0.251 OA
ATOM     10  H1  UNL     1      52.199  25.669  42.077  1.00  0.00     0.248 HD
ENDBRANCH   8   9
TORSDOF 1
ENDMDL
MODEL 3
REMARK VINA RESULT: -4.305360308      6.940      7.406
REMARK  1 active torsions:
REMARK  status: ('A' for Active; 'I' for Inactive)
REMARK    1  A    between atoms: N5_8  and  O1_9 
ROOT
HETATM    1  C1  UNL     1      51.867  21.208  42.051  1.00  0.00     0.202 C 
HETATM    2  N1  UNL     1      50.652  21.048  42.812  1.00  0.00    -0.178 N 
HETATM    3  N2  UNL     1      50.432  20.282  43.880  1.00  0.00     0.016 NA
HETATM    4  N3  UNL     1      49.173  20.447  44.251  1.00  0.00    -0.207 N 
ATOM      5  H3  UNL     1      48.721  19.985  45.040  1.00  0.00     0.207 HD
HETATM    6  N4  UNL     1      48.599  21.304  43.436  1.00  0.00    -0.186 N 
ATOM      7  H4  UNL     1      47.632  21.625  43.477  1.00  0.00     0.214 HD
HETATM    8  N5  UNL     1      49.524  21.676  42.540  1.00  0.00    -0.064 N 
ENDROOT
BRANCH   8   9
HETATM    9  O1  UNL     1      49.342  22.562  41.505  1.00  0.00    -0.251 OA
ATOM     10  H1  UNL     1      48.859  22.380  40.707  1.00  0.00     0.248 HD
ENDBRANCH   8   9
TORSDOF 1
ENDMDL
MODEL 4
REMARK VINA RESULT: -4.235249483      1.187      1.353
REMARK  1 active torsions:
REMARK  status: ('A' for Active; 'I' for Inactive)
REMARK    1  A    between atoms: N5_8  and  O1_9 
ROOT
HETATM    1  C1  UNL     1      46.494  28.611  45.131  1.00  0.00     0.202 C 
HETATM    2  N1  UNL     1      46.760  27.564  46.087  1.00  0.00    -0.178 N 
HETATM    3  N2  UNL     1      46.577  27.573  47.406  1.00  0.00     0.016 NA
HETATM    4  N3  UNL     1      46.957  26.399  47.882  1.00  0.00    -0.207 N 
ATOM      5  H3  UNL     1      46.931  26.119  48.863  1.00  0.00     0.207 HD
HETATM    6  N4  UNL     1      47.375  25.652  46.884  1.00  0.00    -0.186 N 
ATOM      7  H4  UNL     1      47.726  24.697  46.947  1.00  0.00     0.214 HD
HETATM    8  N5  UNL     1      47.251  26.382  45.767  1.00  0.00    -0.064 N 
ENDROOT
BRANCH   8   9
HETATM    9  O1  UNL     1      47.577  25.979  44.494  1.00  0.00    -0.251 OA
ATOM     10  H1  UNL     1      47.811  25.093  44.243  1.00  0.00     0.248 HD
ENDBRANCH   8   9
TORSDOF 1
ENDMDL
MODEL 5
REMARK VINA RESULT: -4.208062118      5.909      6.551
REMARK  1 active torsions:
REMARK  status: ('A' for Active; 'I' for Inactive)
REMARK    1  A    between atoms: N5_8  and  O1_9 
ROOT
HETATM    1  C1  UNL     1      47.603  19.221  45.457  1.00  0.00     0.202 C 
HETATM    2  N1  UNL     1      47.757  20.656  45.439  1.00  0.00    -0.178 N 
HETATM    3  N2  UNL     1      47.214  21.563  46.250  1.00  0.00     0.016 NA
HETATM    4  N3  UNL     1      47.630  22.758  45.866  1.00  0.00    -0.207 N 
ATOM      5  H3  UNL     1      47.375  23.644  46.303  1.00  0.00     0.207 HD
HETATM    6  N4  UNL     1      48.426  22.618  44.829  1.00  0.00    -0.186 N 
ATOM      7  H4  UNL     1      48.897  23.366  44.320  1.00  0.00     0.214 HD
HETATM    8  N5  UNL     1      48.502  21.306  44.566  1.00  0.00    -0.064 N 
ENDROOT
BRANCH   8   9
HETATM    9  O1  UNL     1      49.230  20.721  43.557  1.00  0.00    -0.251 OA
ATOM     10  H1  UNL     1      49.437  21.129  42.724  1.00  0.00     0.248 HD
ENDBRANCH   8   9
TORSDOF 1
ENDMDL
