MODEL 1
REMARK VINA RESULT: -4.343350488      0.000      0.000
REMARK  5 active torsions:
REMARK  status: ('A' for Active; 'I' for Inactive)
REMARK    1  A    between atoms: C2_2  and  O1_3 
REMARK    2  A    between atoms: O1_3  and  C3_4 
REMARK    3  A    between atoms: C3_4  and  C4_5 
REMARK    4  A    between atoms: C5_9  and  N2_10 
REMARK    5  A    between atoms: N2_10  and  N3_11 
ROOT
HETATM    1  C4  UNL     1       8.419  36.100  10.744  1.00  0.00     0.353 C 
HETATM    2  N1  UNL     1       7.169  36.117  11.482  1.00  0.00    -0.004 N 
ATOM      3  H11 UNL     1       7.113  36.101  12.500  1.00  0.00     0.285 HD
ATOM      4  H12 UNL     1       6.520  35.330  11.510  1.00  0.00     0.285 HD
HETATM    5  C5  UNL     1       6.950  37.312  10.682  1.00  0.00     0.442 C 
HETATM    6  O2  UNL     1       7.679  36.640   9.673  1.00  0.00    -0.310 OA
ENDROOT
BRANCH   1   7
HETATM    7  C3  UNL     1       9.000  34.745  10.495  1.00  0.00     0.235 C 
BRANCH   7   8
HETATM    8  O1  UNL     1       8.869  33.857  11.573  1.00  0.00    -0.360 OA
BRANCH   8   9
HETATM    9  C2  UNL     1       8.479  32.560  11.284  1.00  0.00     0.124 C 
HETATM   10  C1  UNL     1       7.469  32.270  10.484  1.00  0.00     0.037 C 
ENDBRANCH   8   9
ENDBRANCH   7   8
ENDBRANCH   1   7
BRANCH   5  11
HETATM   11  N2  UNL     1       5.574  37.571  10.349  1.00  0.00    -0.087 NA
BRANCH  11  12
HETATM   12  N3  UNL     1       5.573  38.552   9.339  1.00  0.00    -0.344 N 
ATOM     13  H32 UNL     1       6.400  38.951   8.895  1.00  0.00     0.172 HD
ATOM     14  H31 UNL     1       4.598  38.778   9.144  1.00  0.00     0.172 HD
ENDBRANCH  11  12
ENDBRANCH   5  11
TORSDOF 5
ENDMDL
MODEL 2
REMARK VINA RESULT: -4.136254939      2.750      4.782
REMARK  5 active torsions:
REMARK  status: ('A' for Active; 'I' for Inactive)
REMARK    1  A    between atoms: C2_2  and  O1_3 
REMARK    2  A    between atoms: O1_3  and  C3_4 
REMARK    3  A    between atoms: C3_4  and  C4_5 
REMARK    4  A    between atoms: C5_9  and  N2_10 
REMARK    5  A    between atoms: N2_10  and  N3_11 
ROOT
HETATM    1  C4  UNL     1       8.661  34.876  10.965  1.00  0.00     0.353 C 
HETATM    2  N1  UNL     1       9.153  34.134   9.819  1.00  0.00    -0.004 N 
ATOM      3  H11 UNL     1      10.105  34.215   9.459  1.00  0.00     0.285 HD
ATOM      4  H12 UNL     1       8.858  34.315   8.860  1.00  0.00     0.285 HD
HETATM    5  C5  UNL     1       8.684  33.004  10.606  1.00  0.00     0.442 C 
HETATM    6  O2  UNL     1       7.668  33.880  11.058  1.00  0.00    -0.310 OA
ENDROOT
BRANCH   1   7
HETATM    7  C3  UNL     1       8.155  36.252  10.672  1.00  0.00     0.235 C 
BRANCH   7   8
HETATM    8  O1  UNL     1       6.758  36.367  10.699  1.00  0.00    -0.360 OA
BRANCH   8   9
HETATM    9  C2  UNL     1       6.223  37.641  10.599  1.00  0.00     0.124 C 
HETATM   10  C1  UNL     1       5.878  38.192   9.450  1.00  0.00     0.037 C 
ENDBRANCH   8   9
ENDBRANCH   7   8
ENDBRANCH   1   7
BRANCH   5  11
HETATM   11  N2  UNL     1       8.206  31.888   9.833  1.00  0.00    -0.087 NA
BRANCH  11  12
HETATM   12  N3  UNL     1       7.452  31.078  10.704  1.00  0.00    -0.344 N 
ATOM     13  H32 UNL     1       6.461  30.858  10.605  1.00  0.00     0.172 HD
ATOM     14  H31 UNL     1       8.085  30.762  11.439  1.00  0.00     0.172 HD
ENDBRANCH  11  12
ENDBRANCH   5  11
TORSDOF 5
ENDMDL
MODEL 3
REMARK VINA RESULT: -3.361967111      2.532      4.946
REMARK  5 active torsions:
REMARK  status: ('A' for Active; 'I' for Inactive)
REMARK    1  A    between atoms: C2_2  and  O1_3 
REMARK    2  A    between atoms: O1_3  and  C3_4 
REMARK    3  A    between atoms: C3_4  and  C4_5 
REMARK    4  A    between atoms: C5_9  and  N2_10 
REMARK    5  A    between atoms: N2_10  and  N3_11 
ROOT
HETATM    1  C4  UNL     1       8.851  34.738  10.799  1.00  0.00     0.353 C 
HETATM    2  N1  UNL     1       7.957  33.742  10.237  1.00  0.00    -0.004 N 
ATOM      3  H11 UNL     1       7.830  33.598   9.235  1.00  0.00     0.285 HD
ATOM      4  H12 UNL     1       6.940  33.808  10.279  1.00  0.00     0.285 HD
HETATM    5  C5  UNL     1       8.742  32.857  11.083  1.00  0.00     0.442 C 
HETATM    6  O2  UNL     1       8.825  33.956  11.971  1.00  0.00    -0.310 OA
ENDROOT
BRANCH   1   7
HETATM    7  C3  UNL     1       8.277  36.111  10.939  1.00  0.00     0.235 C 
BRANCH   7   8
HETATM    8  O1  UNL     1       6.889  36.175  10.747  1.00  0.00    -0.360 OA
BRANCH   8   9
HETATM    9  C2  UNL     1       6.302  37.430  10.760  1.00  0.00     0.124 C 
HETATM   10  C1  UNL     1       5.914  38.057   9.665  1.00  0.00     0.037 C 
ENDBRANCH   8   9
ENDBRANCH   7   8
ENDBRANCH   1   7
BRANCH   5  11
HETATM   11  N2  UNL     1       8.021  31.725  11.604  1.00  0.00    -0.087 NA
BRANCH  11  12
HETATM   12  N3  UNL     1       8.946  30.943  12.321  1.00  0.00    -0.344 N 
ATOM     13  H32 UNL     1       9.954  31.097  12.359  1.00  0.00     0.172 HD
ATOM     14  H31 UNL     1       8.416  30.205  12.784  1.00  0.00     0.172 HD
ENDBRANCH  11  12
ENDBRANCH   5  11
TORSDOF 5
ENDMDL
MODEL 4
REMARK VINA RESULT: -3.307306241      2.442      4.643
REMARK  5 active torsions:
REMARK  status: ('A' for Active; 'I' for Inactive)
REMARK    1  A    between atoms: C2_2  and  O1_3 
REMARK    2  A    between atoms: O1_3  and  C3_4 
REMARK    3  A    between atoms: C3_4  and  C4_5 
REMARK    4  A    between atoms: C5_9  and  N2_10 
REMARK    5  A    between atoms: N2_10  and  N3_11 
ROOT
HETATM    1  C4  UNL     1       8.176  35.815  11.168  1.00  0.00     0.353 C 
HETATM    2  N1  UNL     1       8.967  35.742   9.952  1.00  0.00    -0.004 N 
ATOM      3  H11 UNL     1       9.838  36.255   9.813  1.00  0.00     0.285 HD
ATOM      4  H12 UNL     1       8.675  36.149   9.064  1.00  0.00     0.285 HD
HETATM    5  C5  UNL     1       8.909  34.318  10.243  1.00  0.00     0.442 C 
HETATM    6  O2  UNL     1       7.619  34.586  10.761  1.00  0.00    -0.310 OA
ENDROOT
BRANCH   1   7
HETATM    7  C3  UNL     1       7.213  36.956  11.241  1.00  0.00     0.235 C 
BRANCH   7   8
HETATM    8  O1  UNL     1       6.261  36.970  10.210  1.00  0.00    -0.360 OA
BRANCH   8   9
HETATM    9  C2  UNL     1       5.921  38.202   9.676  1.00  0.00     0.124 C 
HETATM   10  C1  UNL     1       5.608  38.377   8.406  1.00  0.00     0.037 C 
ENDBRANCH   8   9
ENDBRANCH   7   8
ENDBRANCH   1   7
BRANCH   5  11
HETATM   11  N2  UNL     1       8.919  33.465   9.084  1.00  0.00    -0.087 NA
BRANCH  11  12
HETATM   12  N3  UNL     1       8.440  32.207   9.495  1.00  0.00    -0.344 N 
ATOM     13  H32 UNL     1       8.519  31.338   8.968  1.00  0.00     0.172 HD
ATOM     14  H31 UNL     1       8.005  32.338  10.408  1.00  0.00     0.172 HD
ENDBRANCH  11  12
ENDBRANCH   5  11
TORSDOF 5
ENDMDL
MODEL 5
REMARK VINA RESULT: -3.215262498      1.146      1.507
REMARK  5 active torsions:
REMARK  status: ('A' for Active; 'I' for Inactive)
REMARK    1  A    between atoms: C2_2  and  O1_3 
REMARK    2  A    between atoms: O1_3  and  C3_4 
REMARK    3  A    between atoms: C3_4  and  C4_5 
REMARK    4  A    between atoms: C5_9  and  N2_10 
REMARK    5  A    between atoms: N2_10  and  N3_11 
ROOT
HETATM    1  C4  UNL     1       9.004  34.744  10.262  1.00  0.00     0.353 C 
HETATM    2  N1  UNL     1       9.007  35.683  11.370  1.00  0.00    -0.004 N 
ATOM      3  H11 UNL     1       9.823  36.231  11.643  1.00  0.00     0.285 HD
ATOM      4  H12 UNL     1       8.964  35.401  12.349  1.00  0.00     0.285 HD
HETATM    5  C5  UNL     1       7.875  36.233  10.640  1.00  0.00     0.442 C 
HETATM    6  O2  UNL     1       7.602  34.895  10.269  1.00  0.00    -0.310 OA
ENDROOT
BRANCH   1   7
HETATM    7  C3  UNL     1       9.496  33.369  10.583  1.00  0.00     0.235 C 
BRANCH   7   8
HETATM    8  O1  UNL     1       8.808  32.744  11.634  1.00  0.00    -0.360 OA
BRANCH   8   9
HETATM    9  C2  UNL     1       7.947  31.710  11.305  1.00  0.00     0.124 C 
HETATM   10  C1  UNL     1       7.315  31.637  10.148  1.00  0.00     0.037 C 
ENDBRANCH   8   9
ENDBRANCH   7   8
ENDBRANCH   1   7
BRANCH   5  11
HETATM   11  N2  UNL     1       6.863  36.839  11.465  1.00  0.00    -0.087 NA
BRANCH  11  12
HETATM   12  N3  UNL     1       5.949  37.467  10.598  1.00  0.00    -0.344 N 
ATOM     13  H32 UNL     1       5.457  38.342  10.783  1.00  0.00     0.172 HD
ATOM     14  H31 UNL     1       5.878  36.883   9.766  1.00  0.00     0.172 HD
ENDBRANCH  11  12
ENDBRANCH   5  11
TORSDOF 5
ENDMDL
