MODEL 1
REMARK VINA RESULT: -5.920170211      0.000      0.000
REMARK  3 active torsions:
REMARK  status: ('A' for Active; 'I' for Inactive)
REMARK    1  A    between atoms: N1_1  and  C1_4 
REMARK    2  A    between atoms: C2_7  and  N3_8 
REMARK    3  A    between atoms: N4_11  and  C3_12 
ROOT
HETATM    1  C1  UNL     1      19.716  60.007   7.149  1.00  0.00     0.159 C 
HETATM    2  N2  UNL     1      18.360  60.166   7.165  1.00  0.00    -0.173 N 
ATOM      3  H2  UNL     1      18.000  61.030   6.760  1.00  0.00     0.186 HD
HETATM    4  C2  UNL     1      17.430  59.297   7.662  1.00  0.00     0.690 C 
HETATM    5  N4  UNL     1      17.603  58.072   8.205  1.00  0.00    -0.071 N 
HETATM    6  C4  UNL     1      18.763  57.421   8.391  1.00  0.00     0.349 C 
HETATM    7  O2  UNL     1      18.681  56.177   8.632  1.00  0.00    -0.245 OA
HETATM    8  N5  UNL     1      20.034  57.894   8.361  1.00  0.00    -0.291 N 
ATOM      9  H5  UNL     1      20.770  57.256   8.664  1.00  0.00     0.172 HD
HETATM   10  C5  UNL     1      20.425  59.148   7.963  1.00  0.00     0.147 C 
HETATM   11  N6  UNL     1      21.545  59.571   8.382  1.00  0.00    -0.382 N 
ATOM     12  H61 UNL     1      22.069  58.935   8.983  1.00  0.00     0.157 HD
ATOM     13  H62 UNL     1      21.835  60.503   8.086  1.00  0.00     0.157 HD
ENDROOT
BRANCH   1  14
HETATM   14  N1  UNL     1      20.380  60.712   6.310  1.00  0.00    -0.382 N 
ATOM     15  H12 UNL     1      20.218  60.540   5.317  1.00  0.00     0.157 HD
ATOM     16  H11 UNL     1      21.026  61.404   6.688  1.00  0.00     0.157 HD
ENDBRANCH   1  14
BRANCH   4  17
HETATM   17  N3  UNL     1      16.217  59.674   7.619  1.00  0.00    -0.234 N 
ATOM     18  H32 UNL     1      16.100  60.670   7.439  1.00  0.00     0.174 HD
ATOM     19  H31 UNL     1      15.509  58.955   7.765  1.00  0.00     0.174 HD
ENDBRANCH   4  17
BRANCH   5  20
HETATM   20  C3  UNL     1      16.420  57.403   8.624  1.00  0.00     0.381 C 
HETATM   21  O1  UNL     1      15.950  57.694   9.753  1.00  0.00    -0.282 OA
ENDBRANCH   5  20
TORSDOF 3
ENDMDL
MODEL 2
REMARK VINA RESULT: -5.721025778      1.391      1.574
REMARK  3 active torsions:
REMARK  status: ('A' for Active; 'I' for Inactive)
REMARK    1  A    between atoms: N1_1  and  C1_4 
REMARK    2  A    between atoms: C2_7  and  N3_8 
REMARK    3  A    between atoms: N4_11  and  C3_12 
ROOT
HETATM    1  C1  UNL     1      19.821  59.189   7.041  1.00  0.00     0.159 C 
HETATM    2  N2  UNL     1      18.902  60.196   7.113  1.00  0.00    -0.173 N 
ATOM      3  H2  UNL     1      19.183  61.094   6.719  1.00  0.00     0.186 HD
HETATM    4  C2  UNL     1      17.648  60.138   7.652  1.00  0.00     0.690 C 
HETATM    5  N4  UNL     1      16.995  59.086   8.193  1.00  0.00    -0.071 N 
HETATM    6  C4  UNL     1      17.450  57.830   8.334  1.00  0.00     0.349 C 
HETATM    7  O2  UNL     1      16.581  56.939   8.584  1.00  0.00    -0.245 OA
HETATM    8  N5  UNL     1      18.717  57.356   8.248  1.00  0.00    -0.291 N 
ATOM      9  H5  UNL     1      18.866  56.384   8.523  1.00  0.00     0.172 HD
HETATM   10  C5  UNL     1      19.821  58.056   7.828  1.00  0.00     0.147 C 
HETATM   11  N6  UNL     1      20.958  57.632   8.197  1.00  0.00    -0.382 N 
ATOM     12  H61 UNL     1      20.957  56.794   8.779  1.00  0.00     0.157 HD
ATOM     13  H62 UNL     1      21.777  58.153   7.885  1.00  0.00     0.157 HD
ENDROOT
BRANCH   1  14
HETATM   14  N1  UNL     1      20.754  59.307   6.170  1.00  0.00    -0.382 N 
ATOM     15  H12 UNL     1      21.665  59.629   6.496  1.00  0.00     0.157 HD
ATOM     16  H11 UNL     1      20.526  59.067   5.205  1.00  0.00     0.157 HD
ENDBRANCH   1  14
BRANCH   4  17
HETATM   17  N3  UNL     1      16.979  61.218   7.658  1.00  0.00    -0.234 N 
ATOM     18  H32 UNL     1      17.361  61.937   8.271  1.00  0.00     0.174 HD
ATOM     19  H31 UNL     1      16.152  61.247   7.062  1.00  0.00     0.174 HD
ENDBRANCH   4  17
BRANCH   5  20
HETATM   20  C3  UNL     1      15.678  59.346   8.664  1.00  0.00     0.381 C 
HETATM   21  O1  UNL     1      15.556  59.894   9.790  1.00  0.00    -0.282 OA
ENDBRANCH   5  20
TORSDOF 3
ENDMDL
MODEL 3
REMARK VINA RESULT: -5.683388706      1.896      2.985
REMARK  3 active torsions:
REMARK  status: ('A' for Active; 'I' for Inactive)
REMARK    1  A    between atoms: N1_1  and  C1_4 
REMARK    2  A    between atoms: C2_7  and  N3_8 
REMARK    3  A    between atoms: N4_11  and  C3_12 
ROOT
HETATM    1  C1  UNL     1      19.065  58.381   7.915  1.00  0.00     0.159 C 
HETATM    2  N2  UNL     1      18.062  57.532   8.286  1.00  0.00    -0.173 N 
ATOM      3  H2  UNL     1      18.322  56.555   8.417  1.00  0.00     0.186 HD
HETATM    4  C2  UNL     1      16.749  57.845   8.503  1.00  0.00     0.690 C 
HETATM    5  N4  UNL     1      16.134  59.046   8.455  1.00  0.00    -0.071 N 
HETATM    6  C4  UNL     1      16.690  60.235   8.166  1.00  0.00     0.349 C 
HETATM    7  O2  UNL     1      16.012  61.264   8.469  1.00  0.00    -0.245 OA
HETATM    8  N5  UNL     1      17.886  60.512   7.590  1.00  0.00    -0.291 N 
ATOM      9  H5  UNL     1      18.060  61.485   7.335  1.00  0.00     0.172 HD
HETATM   10  C5  UNL     1      18.885  59.611   7.316  1.00  0.00     0.147 C 
HETATM   11  N6  UNL     1      19.727  59.927   6.423  1.00  0.00    -0.382 N 
ATOM     12  H61 UNL     1      19.594  60.836   5.980  1.00  0.00     0.157 HD
ATOM     13  H62 UNL     1      20.469  59.257   6.219  1.00  0.00     0.157 HD
ENDROOT
BRANCH   1  14
HETATM   14  N1  UNL     1      20.268  58.005   8.146  1.00  0.00    -0.382 N 
ATOM     15  H12 UNL     1      20.657  57.275   7.548  1.00  0.00     0.157 HD
ATOM     16  H11 UNL     1      20.762  58.461   8.912  1.00  0.00     0.157 HD
ENDBRANCH   1  14
BRANCH   4  17
HETATM   17  N3  UNL     1      15.974  56.881   8.793  1.00  0.00    -0.234 N 
ATOM     18  H32 UNL     1      15.396  56.567   8.014  1.00  0.00     0.174 HD
ATOM     19  H31 UNL     1      16.015  56.533   9.750  1.00  0.00     0.174 HD
ENDBRANCH   4  17
BRANCH   5  20
HETATM   20  C3  UNL     1      14.741  59.045   8.745  1.00  0.00     0.381 C 
HETATM   21  O1  UNL     1      14.394  59.054   9.953  1.00  0.00    -0.282 OA
ENDBRANCH   5  20
TORSDOF 3
ENDMDL
MODEL 4
REMARK VINA RESULT: -5.667324467      4.236      5.956
REMARK  3 active torsions:
REMARK  status: ('A' for Active; 'I' for Inactive)
REMARK    1  A    between atoms: N1_1  and  C1_4 
REMARK    2  A    between atoms: C2_7  and  N3_8 
REMARK    3  A    between atoms: N4_11  and  C3_12 
ROOT
HETATM    1  C1  UNL     1      16.022  54.383  12.140  1.00  0.00     0.159 C 
HETATM    2  N2  UNL     1      15.522  54.923  10.989  1.00  0.00    -0.173 N 
ATOM      3  H2  UNL     1      14.686  54.480  10.608  1.00  0.00     0.186 HD
HETATM    4  C2  UNL     1      16.013  55.991  10.293  1.00  0.00     0.690 C 
HETATM    5  N4  UNL     1      17.061  56.794  10.580  1.00  0.00    -0.071 N 
HETATM    6  C4  UNL     1      17.882  56.713  11.639  1.00  0.00     0.349 C 
HETATM    7  O2  UNL     1      18.602  57.732  11.875  1.00  0.00    -0.245 OA
HETATM    8  N5  UNL     1      18.067  55.693  12.514  1.00  0.00    -0.291 N 
ATOM      9  H5  UNL     1      18.841  55.785  13.172  1.00  0.00     0.172 HD
HETATM   10  C5  UNL     1      17.312  54.549  12.600  1.00  0.00     0.147 C 
HETATM   11  N6  UNL     1      17.844  53.538  13.149  1.00  0.00    -0.382 N 
ATOM     12  H61 UNL     1      18.798  53.662  13.490  1.00  0.00     0.157 HD
ATOM     13  H62 UNL     1      17.284  52.689  13.213  1.00  0.00     0.157 HD
ENDROOT
BRANCH   1  14
HETATM   14  N1  UNL     1      15.228  53.668  12.846  1.00  0.00    -0.382 N 
ATOM     15  H12 UNL     1      14.250  53.623  12.558  1.00  0.00     0.157 HD
ATOM     16  H11 UNL     1      15.626  53.185  13.652  1.00  0.00     0.157 HD
ENDBRANCH   1  14
BRANCH   4  17
HETATM   17  N3  UNL     1      15.415  56.292   9.213  1.00  0.00    -0.234 N 
ATOM     18  H32 UNL     1      15.524  55.599   8.473  1.00  0.00     0.174 HD
ATOM     19  H31 UNL     1      14.900  57.172   9.205  1.00  0.00     0.174 HD
ENDBRANCH   4  17
BRANCH   5  20
HETATM   20  C3  UNL     1      17.317  57.840   9.650  1.00  0.00     0.381 C 
HETATM   21  O1  UNL     1      16.663  58.907   9.775  1.00  0.00    -0.282 OA
ENDBRANCH   5  20
TORSDOF 3
ENDMDL
MODEL 5
REMARK VINA RESULT: -5.529736206      2.769      4.507
REMARK  3 active torsions:
REMARK  status: ('A' for Active; 'I' for Inactive)
REMARK    1  A    between atoms: N1_1  and  C1_4 
REMARK    2  A    between atoms: C2_7  and  N3_8 
REMARK    3  A    between atoms: N4_11  and  C3_12 
ROOT
HETATM    1  C1  UNL     1      17.997  58.619   7.793  1.00  0.00     0.159 C 
HETATM    2  N2  UNL     1      18.962  57.695   8.077  1.00  0.00    -0.173 N 
ATOM      3  H2  UNL     1      18.664  56.880   8.613  1.00  0.00     0.186 HD
HETATM    4  C2  UNL     1      20.281  57.739   7.724  1.00  0.00     0.690 C 
HETATM    5  N4  UNL     1      20.941  58.656   6.982  1.00  0.00    -0.071 N 
HETATM    6  C4  UNL     1      20.435  59.765   6.419  1.00  0.00     0.349 C 
HETATM    7  O2  UNL     1      21.145  60.320   5.525  1.00  0.00    -0.245 OA
HETATM    8  N5  UNL     1      19.260  60.398   6.661  1.00  0.00    -0.291 N 
ATOM      9  H5  UNL     1      19.126  61.307   6.218  1.00  0.00     0.172 HD
HETATM   10  C5  UNL     1      18.233  59.934   7.446  1.00  0.00     0.147 C 
HETATM   11  N6  UNL     1      17.418  60.788   7.907  1.00  0.00    -0.382 N 
ATOM     12  H61 UNL     1      17.593  61.760   7.650  1.00  0.00     0.157 HD
ATOM     13  H62 UNL     1      16.656  60.443   8.490  1.00  0.00     0.157 HD
ENDROOT
BRANCH   1  14
HETATM   14  N1  UNL     1      16.778  58.231   7.851  1.00  0.00    -0.382 N 
ATOM     15  H12 UNL     1      16.561  57.446   8.466  1.00  0.00     0.157 HD
ATOM     16  H11 UNL     1      16.099  58.735   7.280  1.00  0.00     0.157 HD
ENDBRANCH   1  14
BRANCH   4  17
HETATM   17  N3  UNL     1      21.015  56.790   8.142  1.00  0.00    -0.234 N 
ATOM     18  H32 UNL     1      20.567  56.198   8.840  1.00  0.00     0.174 HD
ATOM     19  H31 UNL     1      21.951  56.726   7.744  1.00  0.00     0.174 HD
ENDBRANCH   4  17
BRANCH   5  20
HETATM   20  C3  UNL     1      22.328  58.411   6.780  1.00  0.00     0.381 C 
HETATM   21  O1  UNL     1      23.112  58.659   7.731  1.00  0.00    -0.282 OA
ENDBRANCH   5  20
TORSDOF 3
ENDMDL
