MODEL 1
REMARK VINA RESULT: -8.223526632      0.000      0.000
REMARK  6 active torsions:
REMARK  status: ('A' for Active; 'I' for Inactive)
REMARK    1  A    between atoms: N1_2  and  C2_4 
REMARK    2  A    between atoms: C4_8  and  C5_9 
REMARK    3  A    between atoms: C5_9  and  N3_10 
REMARK    4  A    between atoms: N7_25  and  C13_26 
REMARK    5  A    between atoms: C13_26  and  C14_27 
REMARK    6  A    between atoms: C14_27  and  C15_28 
ROOT
HETATM    1  C2  UNL     1      -0.478  -0.867  23.766  1.00  0.00     0.138 A 
HETATM    2  C3  UNL     1       0.565  -0.235  24.423  1.00  0.00     0.123 A 
HETATM    3  N2  UNL     1       0.726   0.197  25.669  1.00  0.00    -0.338 N 
ATOM      4  H2  UNL     1       0.031   0.122  26.412  1.00  0.00     0.167 HD
HETATM    5  C4  UNL     1       1.959   0.756  25.802  1.00  0.00     0.112 A 
HETATM    6  N5  UNL     1       2.555   0.660  24.612  1.00  0.00    -0.328 N 
ATOM      7  H5  UNL     1       3.495   0.994  24.401  1.00  0.00     0.168 HD
HETATM    8  C10 UNL     1       1.744   0.064  23.742  1.00  0.00     0.143 A 
HETATM    9  N6  UNL     1       1.810  -0.288  22.444  1.00  0.00    -0.287 N 
HETATM   10  C11 UNL     1       3.013   0.007  21.718  1.00  0.00     0.163 C 
HETATM   11  C12 UNL     1       0.784  -0.900  21.825  1.00  0.00     0.331 A 
HETATM   12  O1  UNL     1       0.896  -1.214  20.593  1.00  0.00    -0.246 OA
HETATM   13  N7  UNL     1      -0.354  -1.203  22.433  1.00  0.00    -0.283 N 
ENDROOT
BRANCH   5  14
HETATM   14  C5  UNL     1       2.480   1.344  27.062  1.00  0.00     0.348 C 
BRANCH  14  15
HETATM   15  N3  UNL     1       2.341   2.769  27.105  1.00  0.00     0.098 N 
HETATM   16  C6  UNL     1       1.961   3.274  28.391  1.00  0.00     0.300 C 
HETATM   17  C7  UNL     1       2.641   4.622  28.644  1.00  0.00     0.262 C 
HETATM   18  N4  UNL     1       4.056   4.490  28.830  1.00  0.00    -0.072 N 
HETATM   19  C8  UNL     1       4.547   3.456  27.931  1.00  0.00     0.262 C 
ATOM     20  H42 UNL     1       4.550   5.375  28.715  1.00  0.00     0.277 HD
ATOM     21  H41 UNL     1       4.308   4.314  29.802  1.00  0.00     0.277 HD
HETATM   22  C9  UNL     1       3.626   3.341  26.709  1.00  0.00     0.300 C 
ENDBRANCH  14  15
ENDBRANCH   5  14
BRANCH   1  23
HETATM   23  N1  UNL     1      -1.561  -1.149  24.360  1.00  0.00    -0.378 N 
HETATM   24  C1  UNL     1      -1.999  -2.017  25.341  1.00  0.00     0.147 C 
ATOM     25  H1  UNL     1      -2.327  -0.570  24.017  1.00  0.00     0.160 HD
ENDBRANCH   1  23
BRANCH  13  26
HETATM   26  C13 UNL     1      -1.476  -1.854  21.823  1.00  0.00     0.136 C 
BRANCH  26  27
HETATM   27  C14 UNL     1      -1.314  -3.356  21.755  1.00  0.00     0.024 C 
BRANCH  27  28
HETATM   28  C15 UNL     1      -1.452  -3.888  20.364  1.00  0.00    -0.021 C 
HETATM   29  C16 UNL     1      -2.390  -5.064  20.266  1.00  0.00     0.009 C 
HETATM   30  C17 UNL     1      -1.904  -2.841  19.379  1.00  0.00     0.009 C 
ENDBRANCH  27  28
ENDBRANCH  26  27
ENDBRANCH  13  26
TORSDOF 6
ENDMDL
MODEL 2
REMARK VINA RESULT: -7.858319150      1.023      1.073
REMARK  6 active torsions:
REMARK  status: ('A' for Active; 'I' for Inactive)
REMARK    1  A    between atoms: N1_2  and  C2_4 
REMARK    2  A    between atoms: C4_8  and  C5_9 
REMARK    3  A    between atoms: C5_9  and  N3_10 
REMARK    4  A    between atoms: N7_25  and  C13_26 
REMARK    5  A    between atoms: C13_26  and  C14_27 
REMARK    6  A    between atoms: C14_27  and  C15_28 
ROOT
HETATM    1  C2  UNL     1       0.935  -1.974  23.603  1.00  0.00     0.138 A 
HETATM    2  C3  UNL     1       1.505  -0.895  24.260  1.00  0.00     0.123 A 
HETATM    3  N2  UNL     1       1.639  -0.580  25.543  1.00  0.00    -0.338 N 
ATOM      4  H2  UNL     1       1.307  -1.145  26.325  1.00  0.00     0.167 HD
HETATM    5  C4  UNL     1       2.288   0.611  25.655  1.00  0.00     0.112 A 
HETATM    6  N5  UNL     1       2.550   1.024  24.413  1.00  0.00    -0.328 N 
ATOM      7  H5  UNL     1       3.031   1.891  24.175  1.00  0.00     0.168 HD
HETATM    8  C10 UNL     1       2.091   0.139  23.532  1.00  0.00     0.143 A 
HETATM    9  N6  UNL     1       2.073   0.033  22.189  1.00  0.00    -0.287 N 
HETATM   10  C11 UNL     1       2.670   1.083  21.414  1.00  0.00     0.163 C 
HETATM   11  C12 UNL     1       1.513  -1.023  21.572  1.00  0.00     0.331 A 
HETATM   12  O1  UNL     1       1.521  -1.078  20.296  1.00  0.00    -0.246 OA
HETATM   13  N7  UNL     1       0.945  -2.028  22.223  1.00  0.00    -0.283 N 
ENDROOT
BRANCH   5  14
HETATM   14  C5  UNL     1       2.610   1.271  26.945  1.00  0.00     0.348 C 
BRANCH  14  15
HETATM   15  N3  UNL     1       2.427   2.691  26.900  1.00  0.00     0.098 N 
HETATM   16  C6  UNL     1       1.843   3.236  28.089  1.00  0.00     0.300 C 
HETATM   17  C7  UNL     1       2.440   4.616  28.377  1.00  0.00     0.262 C 
HETATM   18  N4  UNL     1       3.813   4.540  28.780  1.00  0.00    -0.072 N 
HETATM   19  C8  UNL     1       4.463   3.487  28.015  1.00  0.00     0.262 C 
ATOM     20  H42 UNL     1       4.295   5.436  28.699  1.00  0.00     0.277 HD
ATOM     21  H41 UNL     1       3.920   4.414  29.786  1.00  0.00     0.277 HD
HETATM   22  C9  UNL     1       3.742   3.288  26.676  1.00  0.00     0.300 C 
ENDBRANCH  14  15
ENDBRANCH   5  14
BRANCH   1  23
HETATM   23  N1  UNL     1       0.395  -2.926  24.240  1.00  0.00    -0.378 N 
HETATM   24  C1  UNL     1      -0.508  -3.092  25.271  1.00  0.00     0.147 C 
ATOM     25  H1  UNL     1       0.719  -3.828  23.890  1.00  0.00     0.160 HD
ENDBRANCH   1  23
BRANCH  13  26
HETATM   26  C13 UNL     1       0.336  -3.174  21.617  1.00  0.00     0.136 C 
BRANCH  26  27
HETATM   27  C14 UNL     1      -1.063  -2.897  21.115  1.00  0.00     0.024 C 
BRANCH  27  28
HETATM   28  C15 UNL     1      -1.473  -3.817  20.010  1.00  0.00    -0.021 C 
HETATM   29  C16 UNL     1      -2.332  -4.965  20.478  1.00  0.00     0.009 C 
HETATM   30  C17 UNL     1      -2.200  -3.107  18.897  1.00  0.00     0.009 C 
ENDBRANCH  27  28
ENDBRANCH  26  27
ENDBRANCH  13  26
TORSDOF 6
ENDMDL
MODEL 3
REMARK VINA RESULT: -7.690242605      4.225      5.541
REMARK  6 active torsions:
REMARK  status: ('A' for Active; 'I' for Inactive)
REMARK    1  A    between atoms: N1_2  and  C2_4 
REMARK    2  A    between atoms: C4_8  and  C5_9 
REMARK    3  A    between atoms: C5_9  and  N3_10 
REMARK    4  A    between atoms: N7_25  and  C13_26 
REMARK    5  A    between atoms: C13_26  and  C14_27 
REMARK    6  A    between atoms: C14_27  and  C15_28 
ROOT
HETATM    1  C2  UNL     1       0.793  -1.816  23.359  1.00  0.00     0.138 A 
HETATM    2  C3  UNL     1       1.901  -2.475  23.866  1.00  0.00     0.123 A 
HETATM    3  N2  UNL     1       2.218  -2.922  25.076  1.00  0.00    -0.338 N 
ATOM      4  H2  UNL     1       1.630  -2.838  25.906  1.00  0.00     0.167 HD
HETATM    5  C4  UNL     1       3.446  -3.507  25.040  1.00  0.00     0.112 A 
HETATM    6  N5  UNL     1       3.879  -3.412  23.781  1.00  0.00    -0.328 N 
ATOM      7  H5  UNL     1       4.775  -3.763  23.444  1.00  0.00     0.168 HD
HETATM    8  C10 UNL     1       2.972  -2.790  23.031  1.00  0.00     0.143 A 
HETATM    9  N6  UNL     1       2.871  -2.429  21.738  1.00  0.00    -0.287 N 
HETATM   10  C11 UNL     1       3.959  -2.741  20.856  1.00  0.00     0.163 C 
HETATM   11  C12 UNL     1       1.786  -1.788  21.267  1.00  0.00     0.331 A 
HETATM   12  O1  UNL     1       1.737  -1.466  20.033  1.00  0.00    -0.246 OA
HETATM   13  N7  UNL     1       0.745  -1.469  22.023  1.00  0.00    -0.283 N 
ENDROOT
BRANCH   5  14
HETATM   14  C5  UNL     1       4.118  -4.117  26.214  1.00  0.00     0.348 C 
BRANCH  14  15
HETATM   15  N3  UNL     1       3.262  -5.010  26.938  1.00  0.00     0.098 N 
HETATM   16  C6  UNL     1       3.008  -6.245  26.260  1.00  0.00     0.300 C 
HETATM   17  C7  UNL     1       2.911  -7.387  27.275  1.00  0.00     0.262 C 
HETATM   18  N4  UNL     1       4.175  -7.684  27.881  1.00  0.00    -0.072 N 
HETATM   19  C8  UNL     1       4.895  -6.436  28.086  1.00  0.00     0.262 C 
ATOM     20  H42 UNL     1       4.079  -8.226  28.740  1.00  0.00     0.277 HD
ATOM     21  H41 UNL     1       4.715  -8.364  27.346  1.00  0.00     0.277 HD
HETATM   22  C9  UNL     1       3.904  -5.274  28.224  1.00  0.00     0.300 C 
ENDBRANCH  14  15
ENDBRANCH   5  14
BRANCH   1  23
HETATM   23  N1  UNL     1      -0.194  -1.517  24.095  1.00  0.00    -0.378 N 
HETATM   24  C1  UNL     1      -0.474  -0.658  25.140  1.00  0.00     0.147 C 
ATOM     25  H1  UNL     1      -1.016  -2.066  23.844  1.00  0.00     0.160 HD
ENDBRANCH   1  23
BRANCH  13  26
HETATM   26  C13 UNL     1      -0.434  -0.789  21.574  1.00  0.00     0.136 C 
BRANCH  26  27
HETATM   27  C14 UNL     1      -1.610  -1.720  21.387  1.00  0.00     0.024 C 
BRANCH  27  28
HETATM   28  C15 UNL     1      -1.294  -2.879  20.496  1.00  0.00    -0.021 C 
HETATM   29  C16 UNL     1      -1.616  -4.214  21.119  1.00  0.00     0.009 C 
HETATM   30  C17 UNL     1      -1.992  -2.799  19.163  1.00  0.00     0.009 C 
ENDBRANCH  27  28
ENDBRANCH  26  27
ENDBRANCH  13  26
TORSDOF 6
ENDMDL
MODEL 4
REMARK VINA RESULT: -7.599940475      1.620      2.000
REMARK  6 active torsions:
REMARK  status: ('A' for Active; 'I' for Inactive)
REMARK    1  A    between atoms: N1_2  and  C2_4 
REMARK    2  A    between atoms: C4_8  and  C5_9 
REMARK    3  A    between atoms: C5_9  and  N3_10 
REMARK    4  A    between atoms: N7_25  and  C13_26 
REMARK    5  A    between atoms: C13_26  and  C14_27 
REMARK    6  A    between atoms: C14_27  and  C15_28 
ROOT
HETATM    1  C2  UNL     1       1.812  -1.252  23.775  1.00  0.00     0.138 A 
HETATM    2  C3  UNL     1       2.295   0.002  24.108  1.00  0.00     0.123 A 
HETATM    3  N2  UNL     1       2.594   0.583  25.265  1.00  0.00    -0.338 N 
ATOM      4  H2  UNL     1       2.503   0.147  26.183  1.00  0.00     0.167 HD
HETATM    5  C4  UNL     1       3.039   1.849  25.039  1.00  0.00     0.112 A 
HETATM    6  N5  UNL     1       3.008   2.036  23.718  1.00  0.00    -0.328 N 
ATOM      7  H5  UNL     1       3.285   2.895  23.243  1.00  0.00     0.168 HD
HETATM    8  C10 UNL     1       2.561   0.939  23.111  1.00  0.00     0.143 A 
HETATM    9  N6  UNL     1       2.330   0.566  21.838  1.00  0.00    -0.287 N 
HETATM   10  C11 UNL     1       2.596   1.511  20.791  1.00  0.00     0.163 C 
HETATM   11  C12 UNL     1       1.860  -0.658  21.537  1.00  0.00     0.331 A 
HETATM   12  O1  UNL     1       1.656  -0.966  20.314  1.00  0.00    -0.246 OA
HETATM   13  N7  UNL     1       1.593  -1.580  22.451  1.00  0.00    -0.283 N 
ENDROOT
BRANCH   5  14
HETATM   14  C5  UNL     1       3.462   2.790  26.105  1.00  0.00     0.348 C 
BRANCH  14  15
HETATM   15  N3  UNL     1       3.056   2.365  27.411  1.00  0.00     0.098 N 
HETATM   16  C6  UNL     1       3.999   2.682  28.442  1.00  0.00     0.300 C 
HETATM   17  C7  UNL     1       3.258   3.037  29.734  1.00  0.00     0.262 C 
HETATM   18  N4  UNL     1       2.560   4.285  29.634  1.00  0.00    -0.072 N 
HETATM   19  C8  UNL     1       2.012   4.403  28.292  1.00  0.00     0.262 C 
ATOM     20  H42 UNL     1       1.850   4.395  30.358  1.00  0.00     0.277 HD
ATOM     21  H41 UNL     1       3.144   5.081  29.889  1.00  0.00     0.277 HD
HETATM   22  C9  UNL     1       1.776   3.009  27.696  1.00  0.00     0.300 C 
ENDBRANCH  14  15
ENDBRANCH   5  14
BRANCH   1  23
HETATM   23  N1  UNL     1       1.561  -2.122  24.660  1.00  0.00    -0.378 N 
HETATM   24  C1  UNL     1       2.261  -2.961  25.505  1.00  0.00     0.147 C 
ATOM     25  H1  UNL     1       0.555  -2.236  24.784  1.00  0.00     0.160 HD
ENDBRANCH   1  23
BRANCH  13  26
HETATM   26  C13 UNL     1       1.092  -2.896  22.185  1.00  0.00     0.136 C 
BRANCH  26  27
HETATM   27  C14 UNL     1      -0.418  -2.952  22.150  1.00  0.00     0.024 C 
BRANCH  27  28
HETATM   28  C15 UNL     1      -0.946  -3.480  20.855  1.00  0.00    -0.021 C 
HETATM   29  C16 UNL     1      -1.922  -4.616  21.029  1.00  0.00     0.009 C 
HETATM   30  C17 UNL     1      -1.605  -2.417  20.015  1.00  0.00     0.009 C 
ENDBRANCH  27  28
ENDBRANCH  26  27
ENDBRANCH  13  26
TORSDOF 6
ENDMDL
MODEL 5
REMARK VINA RESULT: -7.496859196      2.258      3.320
REMARK  6 active torsions:
REMARK  status: ('A' for Active; 'I' for Inactive)
REMARK    1  A    between atoms: N1_2  and  C2_4 
REMARK    2  A    between atoms: C4_8  and  C5_9 
REMARK    3  A    between atoms: C5_9  and  N3_10 
REMARK    4  A    between atoms: N7_25  and  C13_26 
REMARK    5  A    between atoms: C13_26  and  C14_27 
REMARK    6  A    between atoms: C14_27  and  C15_28 
ROOT
HETATM    1  C2  UNL     1       2.202   0.739  23.533  1.00  0.00     0.138 A 
HETATM    2  C3  UNL     1       2.872   1.709  24.261  1.00  0.00     0.123 A 
HETATM    3  N2  UNL     1       3.107   1.871  25.559  1.00  0.00    -0.338 N 
ATOM      4  H2  UNL     1       2.797   1.237  26.296  1.00  0.00     0.167 HD
HETATM    5  C4  UNL     1       3.825   3.010  25.754  1.00  0.00     0.112 A 
HETATM    6  N5  UNL     1       4.027   3.547  24.549  1.00  0.00    -0.328 N 
ATOM      7  H5  UNL     1       4.538   4.412  24.373  1.00  0.00     0.168 HD
HETATM    8  C10 UNL     1       3.464   2.790  23.611  1.00  0.00     0.143 A 
HETATM    9  N6  UNL     1       3.353   2.838  22.269  1.00  0.00    -0.287 N 
HETATM   10  C11 UNL     1       3.953   3.940  21.573  1.00  0.00     0.163 C 
HETATM   11  C12 UNL     1       2.696   1.885  21.582  1.00  0.00     0.331 A 
HETATM   12  O1  UNL     1       2.618   1.974  20.311  1.00  0.00    -0.246 OA
HETATM   13  N7  UNL     1       2.119   0.841  22.158  1.00  0.00    -0.283 N 
ENDROOT
BRANCH   5  14
HETATM   14  C5  UNL     1       4.267   3.504  27.082  1.00  0.00     0.348 C 
BRANCH  14  15
HETATM   15  N3  UNL     1       3.317   4.390  27.686  1.00  0.00     0.098 N 
HETATM   16  C6  UNL     1       2.111   3.743  28.107  1.00  0.00     0.300 C 
HETATM   17  C7  UNL     1       1.598   4.387  29.399  1.00  0.00     0.262 C 
HETATM   18  N4  UNL     1       2.444   4.103  30.520  1.00  0.00    -0.072 N 
HETATM   19  C8  UNL     1       3.828   4.110  30.069  1.00  0.00     0.262 C 
ATOM     20  H42 UNL     1       2.284   4.739  31.302  1.00  0.00     0.277 HD
ATOM     21  H41 UNL     1       2.191   3.235  30.992  1.00  0.00     0.277 HD
HETATM   22  C9  UNL     1       3.975   5.009  28.835  1.00  0.00     0.300 C 
ENDBRANCH  14  15
ENDBRANCH   5  14
BRANCH   1  23
HETATM   23  N1  UNL     1       1.654  -0.253  24.098  1.00  0.00    -0.378 N 
HETATM   24  C1  UNL     1       0.576  -0.499  24.926  1.00  0.00     0.147 C 
ATOM     25  H1  UNL     1       2.150  -1.116  23.880  1.00  0.00     0.160 HD
ENDBRANCH   1  23
BRANCH  13  26
HETATM   26  C13 UNL     1       1.410  -0.200  21.475  1.00  0.00     0.136 C 
BRANCH  26  27
HETATM   27  C14 UNL     1       2.330  -1.165  20.763  1.00  0.00     0.024 C 
BRANCH  27  28
HETATM   28  C15 UNL     1       2.248  -2.554  21.311  1.00  0.00    -0.021 C 
HETATM   29  C16 UNL     1       3.289  -2.841  22.363  1.00  0.00     0.009 C 
HETATM   30  C17 UNL     1       0.893  -2.875  21.889  1.00  0.00     0.009 C 
ENDBRANCH  27  28
ENDBRANCH  26  27
ENDBRANCH  13  26
TORSDOF 6
ENDMDL
