MODEL 1
REMARK VINA RESULT: -6.766490782      0.000      0.000
REMARK  11 active torsions:
REMARK  status: ('A' for Active; 'I' for Inactive)
REMARK       I    between atoms: C2_2  and  N1_4 
REMARK    1  A    between atoms: N1_4  and  C3_6 
REMARK    2  A    between atoms: N3_10  and  N4_12 
REMARK    3  A    between atoms: N4_12  and  C5_13 
REMARK    4  A    between atoms: C5_13  and  C7_16 
REMARK    5  A    between atoms: N6_18  and  C9_19 
REMARK    6  A    between atoms: C9_19  and  C10_20 
REMARK    7  A    between atoms: C10_20  and  O2_21 
REMARK    8  A    between atoms: C10_20  and  O3_23 
REMARK    9  A    between atoms: N11_37  and  N12_38 
REMARK   10  A    between atoms: N12_38  and  O4_40 
REMARK   11  A    between atoms: C14_42  and  O5_43 
ROOT
HETATM    1  C5  UNL     1      11.122  -0.751  29.993  1.00  0.00     0.240 C 
HETATM    2  C6  UNL     1      12.487  -0.943  29.488  1.00  0.00     0.137 C 
HETATM    3  N5  UNL     1      13.567  -1.080  29.102  1.00  0.00    -0.188 NA
ENDROOT
BRANCH   1   4
HETATM    4  N4  UNL     1      10.813  -1.195  31.044  1.00  0.00    -0.297 NA
BRANCH   4   5
HETATM    5  N3  UNL     1      10.484  -1.671  32.191  1.00  0.00    -0.062 N 
HETATM    6  C4  UNL     1       9.292  -1.993  32.601  1.00  0.00     0.734 A 
HETATM    7  N2  UNL     1       8.144  -1.878  31.854  1.00  0.00    -0.168 N 
HETATM    8  N11 UNL     1       8.956  -2.465  33.812  1.00  0.00    -0.036 N 
HETATM    9  C3  UNL     1       7.100  -2.264  32.575  1.00  0.00     0.177 A 
ATOM     10  H2  UNL     1       8.102  -1.546  30.890  1.00  0.00     0.186 HD
HETATM   11  C14 UNL     1       7.626  -2.636  33.817  1.00  0.00     0.227 A 
ATOM     12  H3  UNL     1      11.244  -1.813  32.856  1.00  0.00     0.221 HD
BRANCH   9  13
HETATM   13  N1  UNL     1       5.696  -2.311  32.258  1.00  0.00    -0.309 N 
HETATM   14  C2  UNL     1       5.127  -1.388  31.398  1.00  0.00     0.219 C 
HETATM   15  C1  UNL     1       3.705  -1.337  31.049  1.00  0.00     0.117 C 
HETATM   16  O1  UNL     1       5.863  -0.474  30.840  1.00  0.00    -0.274 OA
ATOM     17  H1  UNL     1       5.111  -3.035  32.675  1.00  0.00     0.170 HD
ENDBRANCH   9  13
BRANCH  11  18
HETATM   18  O5  UNL     1       6.904  -3.117  34.922  1.00  0.00    -0.342 OA
ATOM     19  H5  UNL     1       6.747  -2.658  35.739  1.00  0.00     0.219 HD
ENDBRANCH  11  18
BRANCH   8  20
HETATM   20  N12 UNL     1       9.821  -2.735  34.885  1.00  0.00    -0.183 N 
HETATM   21  C13 UNL     1      10.558  -3.954  35.038  1.00  0.00     0.209 C 
BRANCH  20  22
HETATM   22  O4  UNL     1       9.983  -1.778  35.856  1.00  0.00    -0.272 OA
ATOM     23  H4  UNL     1      10.710  -1.173  35.780  1.00  0.00     0.246 HD
ENDBRANCH  20  22
ENDBRANCH   8  20
ENDBRANCH   4   5
ENDBRANCH   1   4
BRANCH   1  24
HETATM   24  C7  UNL     1      10.237  -0.006  29.104  1.00  0.00     0.120 A 
HETATM   25  C8  UNL     1       9.025  -0.480  28.588  1.00  0.00     0.151 A 
HETATM   26  N6  UNL     1       8.453   0.480  27.805  1.00  0.00    -0.222 N 
HETATM   27  N9  UNL     1       9.278   1.503  27.836  1.00  0.00    -0.236 N 
HETATM   28  N10 UNL     1      10.345   1.238  28.602  1.00  0.00    -0.281 N 
ATOM     29  H9  UNL     1       9.126   2.383  27.341  1.00  0.00     0.208 HD
ATOM     30  H10 UNL     1      11.119   1.880  28.777  1.00  0.00     0.188 HD
BRANCH  26  31
HETATM   31  C9  UNL     1       7.183   0.330  27.108  1.00  0.00     0.431 C 
HETATM   32  N7  UNL     1       6.548   1.626  27.041  1.00  0.00    -0.014 N 
HETATM   33  C11 UNL     1       5.162   1.363  26.752  1.00  0.00     0.265 C 
ATOM     34  H72 UNL     1       6.691   2.196  27.874  1.00  0.00     0.282 HD
ATOM     35  H71 UNL     1       6.990   2.265  26.379  1.00  0.00     0.282 HD
HETATM   36  C12 UNL     1       4.929   0.041  27.445  1.00  0.00     0.265 C 
HETATM   37  N8  UNL     1       6.242  -0.474  27.823  1.00  0.00    -0.014 N 
ATOM     38  H82 UNL     1       6.352  -1.475  27.665  1.00  0.00     0.282 HD
ATOM     39  H81 UNL     1       6.401  -0.495  28.830  1.00  0.00     0.282 HD
BRANCH  31  40
HETATM   40  C10 UNL     1       7.423  -0.153  25.699  1.00  0.00     0.344 C 
BRANCH  40  41
HETATM   41  O2  UNL     1       8.477   0.591  25.172  1.00  0.00    -0.366 OA
ATOM     42  H2  UNL     1       9.272   0.312  25.610  1.00  0.00     0.212 HD
ENDBRANCH  40  41
BRANCH  40  43
HETATM   43  O3  UNL     1       7.709  -1.510  25.681  1.00  0.00    -0.366 OA
ATOM     44  H3  UNL     1       8.633  -1.664  25.839  1.00  0.00     0.212 HD
ENDBRANCH  40  43
ENDBRANCH  31  40
ENDBRANCH  26  31
ENDBRANCH   1  24
TORSDOF 11
ENDMDL
MODEL 2
REMARK VINA RESULT: -6.759482443      7.862      9.680
REMARK  11 active torsions:
REMARK  status: ('A' for Active; 'I' for Inactive)
REMARK       I    between atoms: C2_2  and  N1_4 
REMARK    1  A    between atoms: N1_4  and  C3_6 
REMARK    2  A    between atoms: N3_10  and  N4_12 
REMARK    3  A    between atoms: N4_12  and  C5_13 
REMARK    4  A    between atoms: C5_13  and  C7_16 
REMARK    5  A    between atoms: N6_18  and  C9_19 
REMARK    6  A    between atoms: C9_19  and  C10_20 
REMARK    7  A    between atoms: C10_20  and  O2_21 
REMARK    8  A    between atoms: C10_20  and  O3_23 
REMARK    9  A    between atoms: N11_37  and  N12_38 
REMARK   10  A    between atoms: N12_38  and  O4_40 
REMARK   11  A    between atoms: C14_42  and  O5_43 
ROOT
HETATM    1  C5  UNL     1       6.647  -7.140  27.821  1.00  0.00     0.240 C 
HETATM    2  C6  UNL     1       8.069  -7.494  27.729  1.00  0.00     0.137 C 
HETATM    3  N5  UNL     1       9.186  -7.783  27.673  1.00  0.00    -0.188 NA
ENDROOT
BRANCH   1   4
HETATM    4  N4  UNL     1       5.821  -7.927  27.512  1.00  0.00    -0.297 NA
BRANCH   4   5
HETATM    5  N3  UNL     1       4.916  -8.777  27.182  1.00  0.00    -0.062 N 
HETATM    6  C4  UNL     1       4.834  -9.454  26.074  1.00  0.00     0.734 A 
HETATM    7  N2  UNL     1       5.730  -9.376  25.035  1.00  0.00    -0.168 N 
HETATM    8  N11 UNL     1       3.869 -10.320  25.728  1.00  0.00    -0.036 N 
HETATM    9  C3  UNL     1       5.342 -10.172  24.047  1.00  0.00     0.177 A 
ATOM     10  H2  UNL     1       6.568  -8.794  25.026  1.00  0.00     0.186 HD
HETATM   11  C14 UNL     1       4.158 -10.768  24.497  1.00  0.00     0.227 A 
ATOM     12  H3  UNL     1       4.178  -8.940  27.867  1.00  0.00     0.221 HD
BRANCH   9  13
HETATM   13  N1  UNL     1       5.919 -10.426  22.753  1.00  0.00    -0.309 N 
HETATM   14  C2  UNL     1       6.955 -11.330  22.599  1.00  0.00     0.219 C 
HETATM   15  C1  UNL     1       7.626 -11.623  21.330  1.00  0.00     0.117 C 
HETATM   16  O1  UNL     1       7.409 -11.986  23.624  1.00  0.00    -0.274 OA
ATOM     17  H1  UNL     1       5.558  -9.932  21.937  1.00  0.00     0.170 HD
ENDBRANCH   9  13
BRANCH  11  18
HETATM   18  O5  UNL     1       3.369 -11.695  23.797  1.00  0.00    -0.342 OA
ATOM     19  H5  UNL     1       2.609 -12.158  24.130  1.00  0.00     0.219 HD
ENDBRANCH  11  18
BRANCH   8  20
HETATM   20  N12 UNL     1       2.756 -10.699  26.497  1.00  0.00    -0.183 N 
HETATM   21  C13 UNL     1       2.721 -11.849  27.351  1.00  0.00     0.209 C 
BRANCH  20  22
HETATM   22  O4  UNL     1       1.623  -9.927  26.438  1.00  0.00    -0.272 OA
ATOM     23  H4  UNL     1       0.805 -10.296  26.749  1.00  0.00     0.246 HD
ENDBRANCH  20  22
ENDBRANCH   8  20
ENDBRANCH   4   5
ENDBRANCH   1   4
BRANCH   1  24
HETATM   24  C7  UNL     1       6.381  -5.787  28.295  1.00  0.00     0.120 A 
HETATM   25  C8  UNL     1       7.053  -4.635  27.870  1.00  0.00     0.151 A 
HETATM   26  N6  UNL     1       6.542  -3.543  28.509  1.00  0.00    -0.222 N 
HETATM   27  N9  UNL     1       5.594  -4.002  29.296  1.00  0.00    -0.236 N 
HETATM   28  N10 UNL     1       5.479  -5.333  29.186  1.00  0.00    -0.281 N 
ATOM     29  H9  UNL     1       5.022  -3.422  29.910  1.00  0.00     0.208 HD
ATOM     30  H10 UNL     1       4.812  -5.911  29.698  1.00  0.00     0.188 HD
BRANCH  26  31
HETATM   31  C9  UNL     1       7.004  -2.176  28.307  1.00  0.00     0.431 C 
HETATM   32  N7  UNL     1       8.425  -2.214  28.045  1.00  0.00    -0.014 N 
HETATM   33  C11 UNL     1       8.897  -0.874  28.280  1.00  0.00     0.265 C 
ATOM     34  H72 UNL     1       8.922  -2.923  28.583  1.00  0.00     0.282 HD
ATOM     35  H71 UNL     1       8.661  -2.575  27.120  1.00  0.00     0.282 HD
HETATM   36  C12 UNL     1       7.977  -0.392  29.377  1.00  0.00     0.265 C 
HETATM   37  N8  UNL     1       6.895  -1.367  29.479  1.00  0.00    -0.014 N 
ATOM     38  H82 UNL     1       5.974  -0.948  29.606  1.00  0.00     0.282 HD
ATOM     39  H81 UNL     1       6.903  -1.901  30.349  1.00  0.00     0.282 HD
BRANCH  31  40
HETATM   40  C10 UNL     1       6.318  -1.573  27.106  1.00  0.00     0.344 C 
BRANCH  40  41
HETATM   41  O2  UNL     1       6.867  -2.160  25.967  1.00  0.00    -0.366 OA
ATOM     42  H2  UNL     1       7.787  -1.928  25.939  1.00  0.00     0.212 HD
ENDBRANCH  40  41
BRANCH  40  43
HETATM   43  O3  UNL     1       4.947  -1.778  27.164  1.00  0.00    -0.366 OA
ATOM     44  H3  UNL     1       4.651  -2.306  26.432  1.00  0.00     0.212 HD
ENDBRANCH  40  43
ENDBRANCH  31  40
ENDBRANCH  26  31
ENDBRANCH   1  24
TORSDOF 11
ENDMDL
MODEL 3
REMARK VINA RESULT: -6.699469010      2.522      6.433
REMARK  11 active torsions:
REMARK  status: ('A' for Active; 'I' for Inactive)
REMARK       I    between atoms: C2_2  and  N1_4 
REMARK    1  A    between atoms: N1_4  and  C3_6 
REMARK    2  A    between atoms: N3_10  and  N4_12 
REMARK    3  A    between atoms: N4_12  and  C5_13 
REMARK    4  A    between atoms: C5_13  and  C7_16 
REMARK    5  A    between atoms: N6_18  and  C9_19 
REMARK    6  A    between atoms: C9_19  and  C10_20 
REMARK    7  A    between atoms: C10_20  and  O2_21 
REMARK    8  A    between atoms: C10_20  and  O3_23 
REMARK    9  A    between atoms: N11_37  and  N12_38 
REMARK   10  A    between atoms: N12_38  and  O4_40 
REMARK   11  A    between atoms: C14_42  and  O5_43 
ROOT
HETATM    1  C5  UNL     1       7.842  -2.238  33.579  1.00  0.00     0.240 C 
HETATM    2  C6  UNL     1       7.803  -2.974  34.849  1.00  0.00     0.137 C 
HETATM    3  N5  UNL     1       7.764  -3.537  35.857  1.00  0.00    -0.188 NA
ENDROOT
BRANCH   1   4
HETATM    4  N4  UNL     1       6.855  -2.100  32.945  1.00  0.00    -0.297 NA
BRANCH   4   5
HETATM    5  N3  UNL     1       5.788  -1.948  32.247  1.00  0.00    -0.062 N 
HETATM    6  C4  UNL     1       5.656  -1.273  31.142  1.00  0.00     0.734 A 
HETATM    7  N2  UNL     1       6.668  -0.591  30.510  1.00  0.00    -0.168 N 
HETATM    8  N11 UNL     1       4.529  -1.097  30.434  1.00  0.00    -0.036 N 
HETATM    9  C3  UNL     1       6.194   0.011  29.427  1.00  0.00     0.177 A 
ATOM     10  H2  UNL     1       7.636  -0.552  30.827  1.00  0.00     0.186 HD
HETATM   11  C14 UNL     1       4.835  -0.318  29.386  1.00  0.00     0.227 A 
ATOM     12  H3  UNL     1       4.948  -2.406  32.599  1.00  0.00     0.221 HD
BRANCH   9  13
HETATM   13  N1  UNL     1       6.839   0.852  28.453  1.00  0.00    -0.309 N 
HETATM   14  C2  UNL     1       8.182   0.701  28.156  1.00  0.00     0.219 C 
HETATM   15  C1  UNL     1       8.927   1.533  27.209  1.00  0.00     0.117 C 
HETATM   16  O1  UNL     1       8.880  -0.227  28.739  1.00  0.00    -0.274 OA
ATOM     17  H1  UNL     1       6.297   1.572  27.974  1.00  0.00     0.170 HD
ENDBRANCH   9  13
BRANCH  11  18
HETATM   18  O5  UNL     1       3.904   0.087  28.416  1.00  0.00    -0.342 OA
ATOM     19  H5  UNL     1       3.390  -0.479  27.852  1.00  0.00     0.219 HD
ENDBRANCH  11  18
BRANCH   8  20
HETATM   20  N12 UNL     1       3.258  -1.623  30.721  1.00  0.00    -0.183 N 
HETATM   21  C13 UNL     1       2.616  -2.644  29.948  1.00  0.00     0.209 C 
BRANCH  20  22
HETATM   22  O4  UNL     1       2.578  -1.140  31.811  1.00  0.00    -0.272 OA
ATOM     23  H4  UNL     1       1.825  -0.579  31.664  1.00  0.00     0.246 HD
ENDBRANCH  20  22
ENDBRANCH   8  20
ENDBRANCH   4   5
ENDBRANCH   1   4
BRANCH   1  24
HETATM   24  C7  UNL     1       9.158  -1.734  33.202  1.00  0.00     0.120 A 
HETATM   25  C8  UNL     1       9.789  -1.963  31.974  1.00  0.00     0.151 A 
HETATM   26  N6  UNL     1      11.001  -1.336  31.956  1.00  0.00    -0.222 N 
HETATM   27  N9  UNL     1      11.114  -0.746  33.125  1.00  0.00    -0.236 N 
HETATM   28  N10 UNL     1      10.031  -0.968  33.883  1.00  0.00    -0.281 N 
ATOM     29  H9  UNL     1      11.920  -0.193  33.418  1.00  0.00     0.208 HD
ATOM     30  H10 UNL     1       9.891  -0.611  34.829  1.00  0.00     0.188 HD
BRANCH  26  31
HETATM   31  C9  UNL     1      11.927  -1.360  30.832  1.00  0.00     0.431 C 
HETATM   32  N7  UNL     1      11.250  -1.953  29.701  1.00  0.00    -0.014 N 
HETATM   33  C11 UNL     1      12.292  -2.343  28.787  1.00  0.00     0.265 C 
ATOM     34  H72 UNL     1      10.621  -2.714  29.953  1.00  0.00     0.282 HD
ATOM     35  H71 UNL     1      10.545  -1.346  29.282  1.00  0.00     0.282 HD
HETATM   36  C12 UNL     1      13.427  -2.698  29.719  1.00  0.00     0.265 C 
HETATM   37  N8  UNL     1      13.048  -2.220  31.046  1.00  0.00    -0.014 N 
ATOM     38  H82 UNL     1      13.813  -1.779  31.558  1.00  0.00     0.282 HD
ATOM     39  H81 UNL     1      12.871  -2.967  31.717  1.00  0.00     0.282 HD
BRANCH  31  40
HETATM   40  C10 UNL     1      12.323   0.048  30.461  1.00  0.00     0.344 C 
BRANCH  40  41
HETATM   41  O2  UNL     1      11.154   0.759  30.194  1.00  0.00    -0.366 OA
ATOM     42  H2  UNL     1      10.483   0.441  30.787  1.00  0.00     0.212 HD
ENDBRANCH  40  41
BRANCH  40  43
HETATM   43  O3  UNL     1      13.050   0.644  31.481  1.00  0.00    -0.366 OA
ATOM     44  H3  UNL     1      12.842   1.568  31.552  1.00  0.00     0.212 HD
ENDBRANCH  40  43
ENDBRANCH  31  40
ENDBRANCH  26  31
ENDBRANCH   1  24
TORSDOF 11
ENDMDL
MODEL 4
REMARK VINA RESULT: -6.665949340      6.110      8.360
REMARK  11 active torsions:
REMARK  status: ('A' for Active; 'I' for Inactive)
REMARK       I    between atoms: C2_2  and  N1_4 
REMARK    1  A    between atoms: N1_4  and  C3_6 
REMARK    2  A    between atoms: N3_10  and  N4_12 
REMARK    3  A    between atoms: N4_12  and  C5_13 
REMARK    4  A    between atoms: C5_13  and  C7_16 
REMARK    5  A    between atoms: N6_18  and  C9_19 
REMARK    6  A    between atoms: C9_19  and  C10_20 
REMARK    7  A    between atoms: C10_20  and  O2_21 
REMARK    8  A    between atoms: C10_20  and  O3_23 
REMARK    9  A    between atoms: N11_37  and  N12_38 
REMARK   10  A    between atoms: N12_38  and  O4_40 
REMARK   11  A    between atoms: C14_42  and  O5_43 
ROOT
HETATM    1  C5  UNL     1       7.840  -5.458  28.299  1.00  0.00     0.240 C 
HETATM    2  C6  UNL     1       8.857  -5.823  29.293  1.00  0.00     0.137 C 
HETATM    3  N5  UNL     1       9.671  -6.112  30.060  1.00  0.00    -0.188 NA
ENDROOT
BRANCH   1   4
HETATM    4  N4  UNL     1       7.809  -4.361  27.861  1.00  0.00    -0.297 NA
BRANCH   4   5
HETATM    5  N3  UNL     1       7.765  -3.171  27.380  1.00  0.00    -0.062 N 
HETATM    6  C4  UNL     1       8.246  -2.085  27.912  1.00  0.00     0.734 A 
HETATM    7  N2  UNL     1       8.905  -2.023  29.116  1.00  0.00    -0.168 N 
HETATM    8  N11 UNL     1       8.172  -0.841  27.413  1.00  0.00    -0.036 N 
HETATM    9  C3  UNL     1       9.240  -0.767  29.380  1.00  0.00     0.177 A 
ATOM     10  H2  UNL     1       9.107  -2.823  29.716  1.00  0.00     0.186 HD
HETATM   11  C14 UNL     1       8.770  -0.024  28.292  1.00  0.00     0.227 A 
ATOM     12  H3  UNL     1       7.301  -3.065  26.478  1.00  0.00     0.221 HD
BRANCH   9  13
HETATM   13  N1  UNL     1       9.915  -0.184  30.510  1.00  0.00    -0.309 N 
HETATM   14  C2  UNL     1      11.293  -0.238  30.623  1.00  0.00     0.219 C 
HETATM   15  C1  UNL     1      12.060   0.294  31.752  1.00  0.00     0.117 C 
HETATM   16  O1  UNL     1      12.005  -0.797  29.691  1.00  0.00    -0.274 OA
ATOM     17  H1  UNL     1       9.369   0.275  31.239  1.00  0.00     0.170 HD
ENDBRANCH   9  13
BRANCH  11  18
HETATM   18  O5  UNL     1       8.887   1.365  28.113  1.00  0.00    -0.342 OA
ATOM     19  H5  UNL     1       9.382   1.808  27.434  1.00  0.00     0.219 HD
ENDBRANCH  11  18
BRANCH   8  20
HETATM   20  N12 UNL     1       7.582  -0.449  26.199  1.00  0.00    -0.183 N 
HETATM   21  C13 UNL     1       6.526   0.512  26.090  1.00  0.00     0.209 C 
BRANCH  20  22
HETATM   22  O4  UNL     1       8.040  -1.013  25.035  1.00  0.00    -0.272 OA
ATOM     23  H4  UNL     1       7.467  -1.021  24.278  1.00  0.00     0.246 HD
ENDBRANCH  20  22
ENDBRANCH   8  20
ENDBRANCH   4   5
ENDBRANCH   1   4
BRANCH   1  24
HETATM   24  C7  UNL     1       6.919  -6.531  27.941  1.00  0.00     0.120 A 
HETATM   25  C8  UNL     1       6.981  -7.290  26.766  1.00  0.00     0.151 A 
HETATM   26  N6  UNL     1       5.976  -8.213  26.762  1.00  0.00    -0.222 N 
HETATM   27  N9  UNL     1       5.320  -8.030  27.887  1.00  0.00    -0.236 N 
HETATM   28  N10 UNL     1       5.862  -7.037  28.604  1.00  0.00    -0.281 N 
ATOM     29  H9  UNL     1       4.506  -8.573  28.175  1.00  0.00     0.208 HD
ATOM     30  H10 UNL     1       5.526  -6.714  29.512  1.00  0.00     0.188 HD
BRANCH  26  31
HETATM   31  C9  UNL     1       5.740  -9.173  25.692  1.00  0.00     0.431 C 
HETATM   32  N7  UNL     1       6.505 -10.366  25.979  1.00  0.00    -0.014 N 
HETATM   33  C11 UNL     1       6.587 -11.082  24.733  1.00  0.00     0.265 C 
ATOM     34  H72 UNL     1       7.413 -10.177  26.403  1.00  0.00     0.282 HD
ATOM     35  H71 UNL     1       6.125 -10.921  26.746  1.00  0.00     0.282 HD
HETATM   36  C12 UNL     1       6.601  -9.965  23.715  1.00  0.00     0.265 C 
HETATM   37  N8  UNL     1       6.245  -8.741  24.428  1.00  0.00    -0.014 N 
ATOM     38  H82 UNL     1       5.603  -8.138  23.913  1.00  0.00     0.282 HD
ATOM     39  H81 UNL     1       7.009  -8.069  24.498  1.00  0.00     0.282 HD
BRANCH  31  40
HETATM   40  C10 UNL     1       4.279  -9.549  25.650  1.00  0.00     0.344 C 
BRANCH  40  41
HETATM   41  O2  UNL     1       3.992 -10.261  26.812  1.00  0.00    -0.366 OA
ATOM     42  H2  UNL     1       4.385 -11.122  26.727  1.00  0.00     0.212 HD
ENDBRANCH  40  41
BRANCH  40  43
HETATM   43  O3  UNL     1       3.480  -8.419  25.544  1.00  0.00    -0.366 OA
ATOM     44  H3  UNL     1       3.134  -8.168  26.392  1.00  0.00     0.212 HD
ENDBRANCH  40  43
ENDBRANCH  31  40
ENDBRANCH  26  31
ENDBRANCH   1  24
TORSDOF 11
ENDMDL
MODEL 5
REMARK VINA RESULT: -6.654310795     14.493     16.115
REMARK  11 active torsions:
REMARK  status: ('A' for Active; 'I' for Inactive)
REMARK       I    between atoms: C2_2  and  N1_4 
REMARK    1  A    between atoms: N1_4  and  C3_6 
REMARK    2  A    between atoms: N3_10  and  N4_12 
REMARK    3  A    between atoms: N4_12  and  C5_13 
REMARK    4  A    between atoms: C5_13  and  C7_16 
REMARK    5  A    between atoms: N6_18  and  C9_19 
REMARK    6  A    between atoms: C9_19  and  C10_20 
REMARK    7  A    between atoms: C10_20  and  O2_21 
REMARK    8  A    between atoms: C10_20  and  O3_23 
REMARK    9  A    between atoms: N11_37  and  N12_38 
REMARK   10  A    between atoms: N12_38  and  O4_40 
REMARK   11  A    between atoms: C14_42  and  O5_43 
ROOT
HETATM    1  C5  UNL     1       7.342 -13.198  21.051  1.00  0.00     0.240 C 
HETATM    2  C6  UNL     1       7.069 -12.474  19.803  1.00  0.00     0.137 C 
HETATM    3  N5  UNL     1       6.874 -11.904  18.818  1.00  0.00    -0.188 NA
ENDROOT
BRANCH   1   4
HETATM    4  N4  UNL     1       7.566 -14.358  21.025  1.00  0.00    -0.297 NA
BRANCH   4   5
HETATM    5  N3  UNL     1       7.805 -15.619  21.005  1.00  0.00    -0.062 N 
HETATM    6  C4  UNL     1       8.893 -16.224  21.384  1.00  0.00     0.734 A 
HETATM    7  N2  UNL     1      10.008 -15.597  21.888  1.00  0.00    -0.168 N 
HETATM    8  N11 UNL     1       9.143 -17.542  21.334  1.00  0.00    -0.036 N 
HETATM    9  C3  UNL     1      10.948 -16.496  22.149  1.00  0.00     0.177 A 
ATOM     10  H2  UNL     1      10.098 -14.592  22.038  1.00  0.00     0.186 HD
HETATM   11  C14 UNL     1      10.388 -17.729  21.795  1.00  0.00     0.227 A 
ATOM     12  H3  UNL     1       7.056 -16.215  20.653  1.00  0.00     0.221 HD
BRANCH   9  13
HETATM   13  N1  UNL     1      12.285 -16.347  22.662  1.00  0.00    -0.309 N 
HETATM   14  C2  UNL     1      12.512 -16.134  24.010  1.00  0.00     0.219 C 
HETATM   15  C1  UNL     1      13.832 -15.935  24.614  1.00  0.00     0.117 C 
HETATM   16  O1  UNL     1      11.515 -16.092  24.843  1.00  0.00    -0.274 OA
ATOM     17  H1  UNL     1      13.077 -16.398  22.021  1.00  0.00     0.170 HD
ENDBRANCH   9  13
BRANCH  11  18
HETATM   18  O5  UNL     1      11.005 -18.987  21.892  1.00  0.00    -0.342 OA
ATOM     19  H5  UNL     1      11.055 -19.535  22.666  1.00  0.00     0.219 HD
ENDBRANCH  11  18
BRANCH   8  20
HETATM   20  N12 UNL     1       8.274 -18.552  20.888  1.00  0.00    -0.183 N 
HETATM   21  C13 UNL     1       7.420 -19.317  21.746  1.00  0.00     0.209 C 
BRANCH  20  22
HETATM   22  O4  UNL     1       8.228 -18.832  19.545  1.00  0.00    -0.272 OA
ATOM     23  H4  UNL     1       8.104 -19.733  19.273  1.00  0.00     0.246 HD
ENDBRANCH  20  22
ENDBRANCH   8  20
ENDBRANCH   4   5
ENDBRANCH   1   4
BRANCH   1  24
HETATM   24  C7  UNL     1       7.297 -12.379  22.258  1.00  0.00     0.120 A 
HETATM   25  C8  UNL     1       6.194 -11.631  22.686  1.00  0.00     0.151 A 
HETATM   26  N6  UNL     1       6.494 -10.998  23.857  1.00  0.00    -0.222 N 
HETATM   27  N9  UNL     1       7.732 -11.340  24.139  1.00  0.00    -0.236 N 
HETATM   28  N10 UNL     1       8.230 -12.161  23.204  1.00  0.00    -0.281 N 
ATOM     29  H9  UNL     1       8.246 -11.023  24.961  1.00  0.00     0.208 HD
ATOM     30  H10 UNL     1       9.170 -12.558  23.208  1.00  0.00     0.188 HD
BRANCH  26  31
HETATM   31  C9  UNL     1       5.577 -10.135  24.588  1.00  0.00     0.431 C 
HETATM   32  N7  UNL     1       5.468 -10.633  25.941  1.00  0.00    -0.014 N 
HETATM   33  C11 UNL     1       4.270 -10.042  26.475  1.00  0.00     0.265 C 
ATOM     34  H72 UNL     1       5.486 -11.651  26.004  1.00  0.00     0.282 HD
ATOM     35  H71 UNL     1       6.298 -10.461  26.508  1.00  0.00     0.282 HD
HETATM   36  C12 UNL     1       3.388  -9.928  25.253  1.00  0.00     0.265 C 
HETATM   37  N8  UNL     1       4.238 -10.192  24.095  1.00  0.00    -0.014 N 
ATOM     38  H82 UNL     1       4.063  -9.569  23.307  1.00  0.00     0.282 HD
ATOM     39  H81 UNL     1       4.015 -11.061  23.611  1.00  0.00     0.282 HD
BRANCH  31  40
HETATM   40  C10 UNL     1       6.128  -8.731  24.646  1.00  0.00     0.344 C 
BRANCH  40  41
HETATM   41  O2  UNL     1       7.026  -8.672  25.710  1.00  0.00    -0.366 OA
ATOM     42  H2  UNL     1       6.914  -7.830  26.135  1.00  0.00     0.212 HD
ENDBRANCH  40  41
BRANCH  40  43
HETATM   43  O3  UNL     1       6.744  -8.390  23.451  1.00  0.00    -0.366 OA
ATOM     44  H3  UNL     1       6.195  -7.808  22.939  1.00  0.00     0.212 HD
ENDBRANCH  40  43
ENDBRANCH  31  40
ENDBRANCH  26  31
ENDBRANCH   1  24
TORSDOF 11
ENDMDL
