MODEL 1
REMARK VINA RESULT: -7.415218400      0.000      0.000
REMARK  12 active torsions:
REMARK  status: ('A' for Active; 'I' for Inactive)
REMARK    1  A    between atoms: O1_2  and  N1_3 
REMARK    2  A    between atoms: C2_5  and  O2_6 
REMARK    3  A    between atoms: C2_5  and  C3_8 
REMARK    4  A    between atoms: C5_12  and  N2_13 
REMARK    5  A    between atoms: N2_13  and  C6_15 
REMARK    6  A    between atoms: N3_19  and  C9_20 
REMARK    7  A    between atoms: C9_20  and  C10_21 
REMARK    8  A    between atoms: C10_21  and  C11_22 
REMARK    9  A    between atoms: C11_22  and  C12_23 
REMARK   10  A    between atoms: C14_26  and  N4_27 
REMARK   11  A    between atoms: N6_32  and  O4_34 
REMARK   12  A    between atoms: C15_36  and  N7_37 
REMARK       I    between atoms: N7_37  and  C16_39 
REMARK       I    between atoms: C16_39  and  N8_40 
REMARK       I    between atoms: C16_39  and  N9_44 
ROOT
HETATM    1  C6  UNL     1      26.157  17.896  10.448  1.00  0.00     0.123 A 
HETATM    2  C7  UNL     1      25.120  17.701  11.320  1.00  0.00     0.124 A 
HETATM    3  C8  UNL     1      24.782  16.450  11.732  1.00  0.00     0.271 A 
HETATM    4  O3  UNL     1      23.806  16.321  12.548  1.00  0.00    -0.267 OA
HETATM    5  N3  UNL     1      25.448  15.338  11.306  1.00  0.00    -0.098 N 
HETATM    6  C15 UNL     1      26.453  15.544  10.460  1.00  0.00     0.693 A 
HETATM    7  N10 UNL     1      26.802  16.773  10.040  1.00  0.00    -0.176 N 
ATOM      8  H10 UNL     1      27.583  16.865   9.390  1.00  0.00     0.186 HD
ENDROOT
BRANCH   5   9
HETATM    9  C9  UNL     1      25.014  14.067  11.799  1.00  0.00     0.128 C 
HETATM   10  N6  UNL     1      24.124  13.467  11.095  1.00  0.00    -0.256 N 
ATOM     11  H6  UNL     1      23.801  12.560  11.431  1.00  0.00     0.195 HD
BRANCH   9  12
HETATM   12  C10 UNL     1      25.558  13.529  13.057  1.00  0.00     0.085 C 
BRANCH  12  13
HETATM   13  C11 UNL     1      24.608  12.791  13.903  1.00  0.00     0.065 C 
BRANCH  13  14
HETATM   14  C12 UNL     1      24.023  13.594  15.036  1.00  0.00     0.018 A 
HETATM   15  C13 UNL     1      23.917  13.076  16.299  1.00  0.00     0.078 A 
HETATM   16  S3  UNL     1      23.179  14.355  17.155  1.00  0.00    -0.064 SA
HETATM   17  C14 UNL     1      23.051  15.458  15.865  1.00  0.00     0.142 A 
HETATM   18  N5  UNL     1      23.573  14.810  14.840  1.00  0.00    -0.340 N 
ATOM     19  H5  UNL     1      23.626  15.244  13.919  1.00  0.00     0.167 HD
BRANCH  17  20
HETATM   20  N4  UNL     1      22.548  16.678  15.864  1.00  0.00    -0.380 N 
ATOM     21  H42 UNL     1      21.568  16.939  15.969  1.00  0.00     0.158 HD
ATOM     22  H41 UNL     1      23.031  17.571  15.764  1.00  0.00     0.158 HD
ENDBRANCH  17  20
ENDBRANCH  13  14
ENDBRANCH  12  13
ENDBRANCH   9  12
BRANCH  10  23
HETATM   23  O4  UNL     1      23.574  13.931   9.946  1.00  0.00    -0.288 OA
ATOM     24  H4  UNL     1      23.087  13.416   9.314  1.00  0.00     0.244 HD
ENDBRANCH  10  23
ENDBRANCH   5   9
BRANCH   6  25
HETATM   25  N7  UNL     1      27.125  14.562  10.020  1.00  0.00    -0.173 N 
HETATM   26  C16 UNL     1      28.508  14.295  10.264  1.00  0.00     0.494 C 
HETATM   27  N8  UNL     1      28.762  13.786  11.585  1.00  0.00    -0.032 N 
HETATM   28  N9  UNL     1      28.993  13.284   9.320  1.00  0.00    -0.032 N 
ATOM     29  H83 UNL     1      28.383  14.413  12.295  1.00  0.00     0.278 HD
ATOM     30  H82 UNL     1      28.195  12.959  11.771  1.00  0.00     0.278 HD
ATOM     31  H81 UNL     1      29.749  13.596  11.759  1.00  0.00     0.278 HD
ATOM     32  H93 UNL     1      28.429  12.435   9.345  1.00  0.00     0.278 HD
ATOM     33  H92 UNL     1      28.819  13.549   8.351  1.00  0.00     0.278 HD
ATOM     34  H91 UNL     1      29.980  13.094   9.494  1.00  0.00     0.278 HD
ATOM     35  H7  UNL     1      26.626  13.894   9.432  1.00  0.00     0.181 HD
ENDBRANCH   6  25
BRANCH   1  36
HETATM   36  N2  UNL     1      26.560  19.181   9.998  1.00  0.00    -0.361 N 
ATOM     37  H2  UNL     1      26.484  19.349   8.995  1.00  0.00     0.162 HD
BRANCH  36  38
HETATM   38  C5  UNL     1      27.054  20.253  10.775  1.00  0.00     0.169 C 
HETATM   39  C3  UNL     1      28.335  20.888  10.304  1.00  0.00     0.105 C 
HETATM   40  C4  UNL     1      28.074  21.760   9.131  1.00  0.00     0.102 C 
HETATM   41  S1  UNL     1      26.766  22.956   9.625  1.00  0.00    -0.095 SA
HETATM   42  S2  UNL     1      25.836  21.581  11.020  1.00  0.00    -0.071 SA
BRANCH  39  43
HETATM   43  C2  UNL     1      29.069  21.479  11.404  1.00  0.00     0.143 C 
HETATM   44  N1  UNL     1      30.302  21.667  11.510  1.00  0.00    -0.249 N 
ATOM     45  H1  UNL     1      30.550  22.104  12.398  1.00  0.00     0.196 HD
BRANCH  44  46
HETATM   46  O1  UNL     1      31.363  21.437  10.750  1.00  0.00    -0.284 OA
HETATM   47  C1  UNL     1      32.655  21.807  11.182  1.00  0.00     0.237 C 
ENDBRANCH  44  46
BRANCH  43  48
HETATM   48  O2  UNL     1      28.297  21.906  12.520  1.00  0.00    -0.348 OA
ATOM     49  H2  UNL     1      27.462  22.305  12.303  1.00  0.00     0.219 HD
ENDBRANCH  43  48
ENDBRANCH  39  43
ENDBRANCH  36  38
ENDBRANCH   1  36
TORSDOF 12
ENDMDL
MODEL 2
REMARK VINA RESULT: -7.115248107      6.219      7.877
REMARK  12 active torsions:
REMARK  status: ('A' for Active; 'I' for Inactive)
REMARK    1  A    between atoms: O1_2  and  N1_3 
REMARK    2  A    between atoms: C2_5  and  O2_6 
REMARK    3  A    between atoms: C2_5  and  C3_8 
REMARK    4  A    between atoms: C5_12  and  N2_13 
REMARK    5  A    between atoms: N2_13  and  C6_15 
REMARK    6  A    between atoms: N3_19  and  C9_20 
REMARK    7  A    between atoms: C9_20  and  C10_21 
REMARK    8  A    between atoms: C10_21  and  C11_22 
REMARK    9  A    between atoms: C11_22  and  C12_23 
REMARK   10  A    between atoms: C14_26  and  N4_27 
REMARK   11  A    between atoms: N6_32  and  O4_34 
REMARK   12  A    between atoms: C15_36  and  N7_37 
REMARK       I    between atoms: N7_37  and  C16_39 
REMARK       I    between atoms: C16_39  and  N8_40 
REMARK       I    between atoms: C16_39  and  N9_44 
ROOT
HETATM    1  C6  UNL     1      27.222  22.256  11.050  1.00  0.00     0.123 A 
HETATM    2  C7  UNL     1      26.205  21.349  10.917  1.00  0.00     0.124 A 
HETATM    3  C8  UNL     1      24.933  21.759  10.665  1.00  0.00     0.271 A 
HETATM    4  O3  UNL     1      24.020  20.872  10.550  1.00  0.00    -0.267 OA
HETATM    5  N3  UNL     1      24.606  23.077  10.532  1.00  0.00    -0.098 N 
HETATM    6  C15 UNL     1      25.605  23.945  10.662  1.00  0.00     0.693 A 
HETATM    7  N10 UNL     1      26.869  23.560  10.912  1.00  0.00    -0.176 N 
ATOM      8  H10 UNL     1      27.590  24.275  11.002  1.00  0.00     0.186 HD
ENDROOT
BRANCH   5   9
HETATM    9  C9  UNL     1      23.239  23.404  10.267  1.00  0.00     0.128 C 
HETATM   10  N6  UNL     1      22.909  23.471   9.029  1.00  0.00    -0.256 N 
ATOM     11  H6  UNL     1      21.939  23.704   8.819  1.00  0.00     0.195 HD
BRANCH   9  12
HETATM   12  C10 UNL     1      22.306  23.670  11.375  1.00  0.00     0.085 C 
BRANCH  12  13
HETATM   13  C11 UNL     1      22.922  24.050  12.655  1.00  0.00     0.065 C 
BRANCH  13  14
HETATM   14  C12 UNL     1      22.693  23.070  13.776  1.00  0.00     0.018 A 
HETATM   15  C13 UNL     1      22.631  21.721  13.547  1.00  0.00     0.078 A 
HETATM   16  S3  UNL     1      22.331  21.101  15.107  1.00  0.00    -0.064 SA
HETATM   17  C14 UNL     1      22.302  22.580  15.947  1.00  0.00     0.142 A 
HETATM   18  N5  UNL     1      22.521  23.483  15.009  1.00  0.00    -0.340 N 
ATOM     19  H5  UNL     1      22.556  24.476  15.237  1.00  0.00     0.167 HD
BRANCH  17  20
HETATM   20  N4  UNL     1      22.105  22.801  17.233  1.00  0.00    -0.380 N 
ATOM     21  H42 UNL     1      21.565  22.226  17.880  1.00  0.00     0.158 HD
ATOM     22  H41 UNL     1      22.449  23.566  17.814  1.00  0.00     0.158 HD
ENDBRANCH  17  20
ENDBRANCH  13  14
ENDBRANCH  12  13
ENDBRANCH   9  12
BRANCH  10  23
HETATM   23  O4  UNL     1      23.735  23.260   7.974  1.00  0.00    -0.288 OA
ATOM     24  H4  UNL     1      24.581  23.671   7.838  1.00  0.00     0.244 HD
ENDBRANCH  10  23
ENDBRANCH   5   9
BRANCH   6  25
HETATM   25  N7  UNL     1      25.383  25.189  10.549  1.00  0.00    -0.173 N 
HETATM   26  C16 UNL     1      25.924  26.066   9.557  1.00  0.00     0.494 C 
HETATM   27  N8  UNL     1      25.309  25.911   8.266  1.00  0.00    -0.032 N 
HETATM   28  N9  UNL     1      25.717  27.460   9.960  1.00  0.00    -0.032 N 
ATOM     29  H83 UNL     1      25.357  24.940   7.957  1.00  0.00     0.278 HD
ATOM     30  H82 UNL     1      24.297  26.017   8.331  1.00  0.00     0.278 HD
ATOM     31  H81 UNL     1      25.696  26.536   7.559  1.00  0.00     0.278 HD
ATOM     32  H93 UNL     1      24.736  27.661  10.154  1.00  0.00     0.278 HD
ATOM     33  H92 UNL     1      26.093  27.652  10.888  1.00  0.00     0.278 HD
ATOM     34  H91 UNL     1      26.103  28.086   9.253  1.00  0.00     0.278 HD
ATOM     35  H7  UNL     1      24.755  25.606  11.235  1.00  0.00     0.181 HD
ENDBRANCH   6  25
BRANCH   1  36
HETATM   36  N2  UNL     1      28.568  21.881  11.298  1.00  0.00    -0.361 N 
ATOM     37  H2  UNL     1      28.831  21.777  12.278  1.00  0.00     0.162 HD
BRANCH  36  38
HETATM   38  C5  UNL     1      29.586  21.634  10.350  1.00  0.00     0.169 C 
HETATM   39  C3  UNL     1      29.541  22.453   9.088  1.00  0.00     0.105 C 
HETATM   40  C4  UNL     1      30.021  23.832   9.354  1.00  0.00     0.102 C 
HETATM   41  S1  UNL     1      31.692  23.688  10.111  1.00  0.00    -0.095 SA
HETATM   42  S2  UNL     1      31.261  21.778  11.043  1.00  0.00    -0.071 SA
BRANCH  39  43
HETATM   43  C2  UNL     1      30.156  21.752   7.979  1.00  0.00     0.143 C 
HETATM   44  N1  UNL     1      30.605  22.223   6.910  1.00  0.00    -0.249 N 
ATOM     45  H1  UNL     1      30.985  21.498   6.300  1.00  0.00     0.196 HD
BRANCH  44  46
HETATM   46  O1  UNL     1      30.708  23.431   6.376  1.00  0.00    -0.284 OA
HETATM   47  C1  UNL     1      31.966  24.059   6.246  1.00  0.00     0.237 C 
ENDBRANCH  44  46
BRANCH  43  48
HETATM   48  O2  UNL     1      30.269  20.340   8.111  1.00  0.00    -0.348 OA
ATOM     49  H2  UNL     1      29.986  19.990   8.948  1.00  0.00     0.219 HD
ENDBRANCH  43  48
ENDBRANCH  39  43
ENDBRANCH  36  38
ENDBRANCH   1  36
TORSDOF 12
ENDMDL
MODEL 3
REMARK VINA RESULT: -6.838658772      3.385      5.574
REMARK  12 active torsions:
REMARK  status: ('A' for Active; 'I' for Inactive)
REMARK    1  A    between atoms: O1_2  and  N1_3 
REMARK    2  A    between atoms: C2_5  and  O2_6 
REMARK    3  A    between atoms: C2_5  and  C3_8 
REMARK    4  A    between atoms: C5_12  and  N2_13 
REMARK    5  A    between atoms: N2_13  and  C6_15 
REMARK    6  A    between atoms: N3_19  and  C9_20 
REMARK    7  A    between atoms: C9_20  and  C10_21 
REMARK    8  A    between atoms: C10_21  and  C11_22 
REMARK    9  A    between atoms: C11_22  and  C12_23 
REMARK   10  A    between atoms: C14_26  and  N4_27 
REMARK   11  A    between atoms: N6_32  and  O4_34 
REMARK   12  A    between atoms: C15_36  and  N7_37 
REMARK       I    between atoms: N7_37  and  C16_39 
REMARK       I    between atoms: C16_39  and  N8_40 
REMARK       I    between atoms: C16_39  and  N9_44 
ROOT
HETATM    1  C6  UNL     1      27.598  20.843  10.989  1.00  0.00     0.123 A 
HETATM    2  C7  UNL     1      27.178  19.558  11.201  1.00  0.00     0.124 A 
HETATM    3  C8  UNL     1      25.909  19.299  11.618  1.00  0.00     0.271 A 
HETATM    4  O3  UNL     1      25.566  18.081  11.800  1.00  0.00    -0.267 OA
HETATM    5  N3  UNL     1      25.001  20.291  11.845  1.00  0.00    -0.098 N 
HETATM    6  C15 UNL     1      25.424  21.534  11.634  1.00  0.00     0.693 A 
HETATM    7  N10 UNL     1      26.674  21.811  11.222  1.00  0.00    -0.176 N 
ATOM      8  H10 UNL     1      26.938  22.786  11.079  1.00  0.00     0.186 HD
ENDROOT
BRANCH   5   9
HETATM    9  C9  UNL     1      23.692  19.914  12.283  1.00  0.00     0.128 C 
HETATM   10  N6  UNL     1      22.822  19.734  11.356  1.00  0.00    -0.256 N 
ATOM     11  H6  UNL     1      21.883  19.466  11.648  1.00  0.00     0.195 HD
BRANCH   9  12
HETATM   12  C10 UNL     1      23.394  19.779  13.718  1.00  0.00     0.085 C 
BRANCH  12  13
HETATM   13  C11 UNL     1      22.180  19.020  14.053  1.00  0.00     0.065 C 
BRANCH  13  14
HETATM   14  C12 UNL     1      22.433  17.633  14.582  1.00  0.00     0.018 A 
HETATM   15  C13 UNL     1      21.843  17.188  15.735  1.00  0.00     0.078 A 
HETATM   16  S3  UNL     1      22.480  15.613  15.885  1.00  0.00    -0.064 SA
HETATM   17  C14 UNL     1      23.448  15.617  14.486  1.00  0.00     0.142 A 
HETATM   18  N5  UNL     1      23.248  16.813  13.963  1.00  0.00    -0.340 N 
ATOM     19  H5  UNL     1      23.715  17.092  13.101  1.00  0.00     0.167 HD
BRANCH  17  20
HETATM   20  N4  UNL     1      24.228  14.662  14.014  1.00  0.00    -0.380 N 
ATOM     21  H42 UNL     1      24.428  13.761  14.447  1.00  0.00     0.158 HD
ATOM     22  H41 UNL     1      24.765  14.642  13.146  1.00  0.00     0.158 HD
ENDBRANCH  17  20
ENDBRANCH  13  14
ENDBRANCH  12  13
ENDBRANCH   9  12
BRANCH  10  23
HETATM   23  O4  UNL     1      23.040  19.870  10.024  1.00  0.00    -0.288 OA
ATOM     24  H4  UNL     1      23.662  19.372   9.509  1.00  0.00     0.244 HD
ENDBRANCH  10  23
ENDBRANCH   5   9
BRANCH   6  25
HETATM   25  N7  UNL     1      24.638  22.513  11.819  1.00  0.00    -0.173 N 
HETATM   26  C16 UNL     1      24.245  23.487  10.850  1.00  0.00     0.494 C 
HETATM   27  N8  UNL     1      23.286  22.988   9.901  1.00  0.00    -0.032 N 
HETATM   28  N9  UNL     1      23.620  24.631  11.521  1.00  0.00    -0.032 N 
ATOM     29  H83 UNL     1      23.632  22.143   9.447  1.00  0.00     0.278 HD
ATOM     30  H82 UNL     1      22.471  22.601  10.378  1.00  0.00     0.278 HD
ATOM     31  H81 UNL     1      23.005  23.683   9.210  1.00  0.00     0.278 HD
ATOM     32  H93 UNL     1      22.843  24.349  12.117  1.00  0.00     0.278 HD
ATOM     33  H92 UNL     1      24.223  25.029  12.241  1.00  0.00     0.278 HD
ATOM     34  H91 UNL     1      23.340  25.327  10.829  1.00  0.00     0.278 HD
ATOM     35  H7  UNL     1      24.247  22.614  12.756  1.00  0.00     0.181 HD
ENDBRANCH   6  25
BRANCH   1  36
HETATM   36  N2  UNL     1      28.905  21.167  10.540  1.00  0.00    -0.361 N 
ATOM     37  H2  UNL     1      29.652  20.545  10.848  1.00  0.00     0.162 HD
BRANCH  36  38
HETATM   38  C5  UNL     1      29.294  22.249   9.718  1.00  0.00     0.169 C 
HETATM   39  C3  UNL     1      30.525  23.005  10.140  1.00  0.00     0.105 C 
HETATM   40  C4  UNL     1      31.744  22.223   9.815  1.00  0.00     0.102 C 
HETATM   41  S1  UNL     1      31.671  21.826   8.020  1.00  0.00    -0.095 SA
HETATM   42  S2  UNL     1      29.503  21.783   7.973  1.00  0.00    -0.071 SA
BRANCH  39  43
HETATM   43  C2  UNL     1      30.489  24.377   9.678  1.00  0.00     0.143 C 
HETATM   44  N1  UNL     1      31.446  25.150   9.450  1.00  0.00    -0.249 N 
ATOM     45  H1  UNL     1      31.133  26.068   9.131  1.00  0.00     0.196 HD
BRANCH  44  46
HETATM   46  O1  UNL     1      32.767  25.069   9.521  1.00  0.00    -0.284 OA
HETATM   47  C1  UNL     1      33.563  25.212   8.364  1.00  0.00     0.237 C 
ENDBRANCH  44  46
BRANCH  43  48
HETATM   48  O2  UNL     1      29.198  24.932   9.449  1.00  0.00    -0.348 OA
ATOM     49  H2  UNL     1      28.948  25.004   8.535  1.00  0.00     0.219 HD
ENDBRANCH  43  48
ENDBRANCH  39  43
ENDBRANCH  36  38
ENDBRANCH   1  36
TORSDOF 12
ENDMDL
MODEL 4
REMARK VINA RESULT: -6.804491060      4.995      6.509
REMARK  12 active torsions:
REMARK  status: ('A' for Active; 'I' for Inactive)
REMARK    1  A    between atoms: O1_2  and  N1_3 
REMARK    2  A    between atoms: C2_5  and  O2_6 
REMARK    3  A    between atoms: C2_5  and  C3_8 
REMARK    4  A    between atoms: C5_12  and  N2_13 
REMARK    5  A    between atoms: N2_13  and  C6_15 
REMARK    6  A    between atoms: N3_19  and  C9_20 
REMARK    7  A    between atoms: C9_20  and  C10_21 
REMARK    8  A    between atoms: C10_21  and  C11_22 
REMARK    9  A    between atoms: C11_22  and  C12_23 
REMARK   10  A    between atoms: C14_26  and  N4_27 
REMARK   11  A    between atoms: N6_32  and  O4_34 
REMARK   12  A    between atoms: C15_36  and  N7_37 
REMARK       I    between atoms: N7_37  and  C16_39 
REMARK       I    between atoms: C16_39  and  N8_40 
REMARK       I    between atoms: C16_39  and  N9_44 
ROOT
HETATM    1  C6  UNL     1      27.546  20.909  10.905  1.00  0.00     0.123 A 
HETATM    2  C7  UNL     1      27.037  19.662  11.152  1.00  0.00     0.124 A 
HETATM    3  C8  UNL     1      25.751  19.505  11.568  1.00  0.00     0.271 A 
HETATM    4  O3  UNL     1      25.323  18.320  11.784  1.00  0.00    -0.267 OA
HETATM    5  N3  UNL     1      24.913  20.564  11.760  1.00  0.00    -0.098 N 
HETATM    6  C15 UNL     1      25.423  21.768  11.515  1.00  0.00     0.693 A 
HETATM    7  N10 UNL     1      26.691  21.945  11.103  1.00  0.00    -0.176 N 
ATOM      8  H10 UNL     1      27.023  22.894  10.933  1.00  0.00     0.186 HD
ENDROOT
BRANCH   5   9
HETATM    9  C9  UNL     1      23.579  20.292  12.199  1.00  0.00     0.128 C 
HETATM   10  N6  UNL     1      22.739  19.981  11.280  1.00  0.00    -0.256 N 
ATOM     11  H6  UNL     1      21.783  19.784  11.573  1.00  0.00     0.195 HD
BRANCH   9  12
HETATM   12  C10 UNL     1      23.225  20.402  13.624  1.00  0.00     0.085 C 
BRANCH  12  13
HETATM   13  C11 UNL     1      22.483  21.612  14.009  1.00  0.00     0.065 C 
BRANCH  13  14
HETATM   14  C12 UNL     1      21.835  21.544  15.367  1.00  0.00     0.018 A 
HETATM   15  C13 UNL     1      21.580  20.346  15.979  1.00  0.00     0.078 A 
HETATM   16  S3  UNL     1      20.831  20.832  17.433  1.00  0.00    -0.064 SA
HETATM   17  C14 UNL     1      20.886  22.513  17.174  1.00  0.00     0.142 A 
HETATM   18  N5  UNL     1      21.471  22.635  15.996  1.00  0.00    -0.340 N 
ATOM     19  H5  UNL     1      21.634  23.554  15.586  1.00  0.00     0.167 HD
BRANCH  17  20
HETATM   20  N4  UNL     1      20.450  23.487  17.951  1.00  0.00    -0.380 N 
ATOM     21  H42 UNL     1      21.012  24.199  18.419  1.00  0.00     0.158 HD
ATOM     22  H41 UNL     1      19.493  23.712  18.222  1.00  0.00     0.158 HD
ENDBRANCH  17  20
ENDBRANCH  13  14
ENDBRANCH  12  13
ENDBRANCH   9  12
BRANCH  10  23
HETATM   23  O4  UNL     1      23.010  19.891   9.954  1.00  0.00    -0.288 OA
ATOM     24  H4  UNL     1      22.366  19.833   9.257  1.00  0.00     0.244 HD
ENDBRANCH  10  23
ENDBRANCH   5   9
BRANCH   6  25
HETATM   25  N7  UNL     1      24.706  22.804  11.665  1.00  0.00    -0.173 N 
HETATM   26  C16 UNL     1      24.257  23.689  10.636  1.00  0.00     0.494 C 
HETATM   27  N8  UNL     1      23.182  23.145   9.850  1.00  0.00    -0.032 N 
HETATM   28  N9  UNL     1      23.760  24.932  11.232  1.00  0.00    -0.032 N 
ATOM     29  H83 UNL     1      23.439  22.238   9.462  1.00  0.00     0.278 HD
ATOM     30  H82 UNL     1      22.405  22.859  10.447  1.00  0.00     0.278 HD
ATOM     31  H81 UNL     1      22.862  23.777   9.116  1.00  0.00     0.278 HD
ATOM     32  H93 UNL     1      23.038  24.760  11.931  1.00  0.00     0.278 HD
ATOM     33  H92 UNL     1      24.452  25.370  11.839  1.00  0.00     0.278 HD
ATOM     34  H91 UNL     1      23.440  25.564  10.498  1.00  0.00     0.278 HD
ATOM     35  H7  UNL     1      24.421  23.028  12.619  1.00  0.00     0.181 HD
ENDBRANCH   6  25
BRANCH   1  36
HETATM   36  N2  UNL     1      28.875  21.128  10.456  1.00  0.00    -0.361 N 
ATOM     37  H2  UNL     1      29.568  20.442  10.754  1.00  0.00     0.162 HD
BRANCH  36  38
HETATM   38  C5  UNL     1      29.351  22.182   9.645  1.00  0.00     0.169 C 
HETATM   39  C3  UNL     1      30.462  23.021  10.218  1.00  0.00     0.105 C 
HETATM   40  C4  UNL     1      31.749  22.286  10.146  1.00  0.00     0.102 C 
HETATM   41  S1  UNL     1      31.994  21.792   8.390  1.00  0.00    -0.095 SA
HETATM   42  S2  UNL     1      29.868  21.636   7.989  1.00  0.00    -0.071 SA
BRANCH  39  43
HETATM   43  C2  UNL     1      30.447  24.364   9.673  1.00  0.00     0.143 C 
HETATM   44  N1  UNL     1      31.412  25.129   9.455  1.00  0.00    -0.249 N 
ATOM     45  H1  UNL     1      31.115  26.024   9.065  1.00  0.00     0.196 HD
BRANCH  44  46
HETATM   46  O1  UNL     1      32.727  25.062   9.607  1.00  0.00    -0.284 OA
HETATM   47  C1  UNL     1      33.590  25.165   8.494  1.00  0.00     0.237 C 
ENDBRANCH  44  46
BRANCH  43  48
HETATM   48  O2  UNL     1      29.170  24.894   9.338  1.00  0.00    -0.348 OA
ATOM     49  H2  UNL     1      28.558  24.267   8.970  1.00  0.00     0.219 HD
ENDBRANCH  43  48
ENDBRANCH  39  43
ENDBRANCH  36  38
ENDBRANCH   1  36
TORSDOF 12
ENDMDL
MODEL 5
REMARK VINA RESULT: -6.755563385      5.277      6.870
REMARK  12 active torsions:
REMARK  status: ('A' for Active; 'I' for Inactive)
REMARK    1  A    between atoms: O1_2  and  N1_3 
REMARK    2  A    between atoms: C2_5  and  O2_6 
REMARK    3  A    between atoms: C2_5  and  C3_8 
REMARK    4  A    between atoms: C5_12  and  N2_13 
REMARK    5  A    between atoms: N2_13  and  C6_15 
REMARK    6  A    between atoms: N3_19  and  C9_20 
REMARK    7  A    between atoms: C9_20  and  C10_21 
REMARK    8  A    between atoms: C10_21  and  C11_22 
REMARK    9  A    between atoms: C11_22  and  C12_23 
REMARK   10  A    between atoms: C14_26  and  N4_27 
REMARK   11  A    between atoms: N6_32  and  O4_34 
REMARK   12  A    between atoms: C15_36  and  N7_37 
REMARK       I    between atoms: N7_37  and  C16_39 
REMARK       I    between atoms: C16_39  and  N8_40 
REMARK       I    between atoms: C16_39  and  N9_44 
ROOT
HETATM    1  C6  UNL     1      27.719  21.120  10.868  1.00  0.00     0.123 A 
HETATM    2  C7  UNL     1      27.138  19.941  11.251  1.00  0.00     0.124 A 
HETATM    3  C8  UNL     1      25.828  19.896  11.617  1.00  0.00     0.271 A 
HETATM    4  O3  UNL     1      25.333  18.770  11.966  1.00  0.00    -0.267 OA
HETATM    5  N3  UNL     1      25.035  21.006  11.622  1.00  0.00    -0.098 N 
HETATM    6  C15 UNL     1      25.614  22.142  11.246  1.00  0.00     0.693 A 
HETATM    7  N10 UNL     1      26.907  22.208  10.882  1.00  0.00    -0.176 N 
ATOM      8  H10 UNL     1      27.292  23.111  10.604  1.00  0.00     0.186 HD
ENDROOT
BRANCH   5   9
HETATM    9  C9  UNL     1      23.670  20.852  12.023  1.00  0.00     0.128 C 
HETATM   10  N6  UNL     1      22.813  20.770  11.072  1.00  0.00    -0.256 N 
ATOM     11  H6  UNL     1      21.834  20.661  11.337  1.00  0.00     0.195 HD
BRANCH   9  12
HETATM   12  C10 UNL     1      23.310  20.825  13.450  1.00  0.00     0.085 C 
BRANCH  12  13
HETATM   13  C11 UNL     1      22.693  22.050  13.980  1.00  0.00     0.065 C 
BRANCH  13  14
HETATM   14  C12 UNL     1      21.989  21.878  15.300  1.00  0.00     0.018 A 
HETATM   15  C13 UNL     1      21.718  20.636  15.809  1.00  0.00     0.078 A 
HETATM   16  S3  UNL     1      20.905  21.009  17.262  1.00  0.00    -0.064 SA
HETATM   17  C14 UNL     1      20.959  22.704  17.134  1.00  0.00     0.142 A 
HETATM   18  N5  UNL     1      21.591  22.917  15.994  1.00  0.00    -0.340 N 
ATOM     19  H5  UNL     1      21.765  23.865  15.661  1.00  0.00     0.167 HD
BRANCH  17  20
HETATM   20  N4  UNL     1      20.485  23.615  17.963  1.00  0.00    -0.380 N 
ATOM     21  H42 UNL     1      19.505  23.854  18.119  1.00  0.00     0.158 HD
ATOM     22  H41 UNL     1      20.993  24.237  18.592  1.00  0.00     0.158 HD
ENDBRANCH  17  20
ENDBRANCH  13  14
ENDBRANCH  12  13
ENDBRANCH   9  12
BRANCH  10  23
HETATM   23  O4  UNL     1      23.091  20.815   9.745  1.00  0.00    -0.288 OA
ATOM     24  H4  UNL     1      22.866  21.523   9.153  1.00  0.00     0.244 HD
ENDBRANCH  10  23
ENDBRANCH   5   9
BRANCH   6  25
HETATM   25  N7  UNL     1      24.943  23.219  11.220  1.00  0.00    -0.173 N 
HETATM   26  C16 UNL     1      24.800  24.110  10.110  1.00  0.00     0.494 C 
HETATM   27  N8  UNL     1      23.910  23.613   9.096  1.00  0.00    -0.032 N 
HETATM   28  N9  UNL     1      24.249  25.388  10.568  1.00  0.00    -0.032 N 
ATOM     29  H83 UNL     1      24.198  22.686   8.782  1.00  0.00     0.278 HD
ATOM     30  H82 UNL     1      22.999  23.380   9.494  1.00  0.00     0.278 HD
ATOM     31  H81 UNL     1      23.808  24.248   8.305  1.00  0.00     0.278 HD
ATOM     32  H93 UNL     1      23.374  25.268  11.078  1.00  0.00     0.278 HD
ATOM     33  H92 UNL     1      24.803  25.798  11.319  1.00  0.00     0.278 HD
ATOM     34  H91 UNL     1      24.147  26.024   9.777  1.00  0.00     0.278 HD
ATOM     35  H7  UNL     1      24.455  23.474  12.078  1.00  0.00     0.181 HD
ENDBRANCH   6  25
BRANCH   1  36
HETATM   36  N2  UNL     1      29.075  21.219  10.464  1.00  0.00    -0.361 N 
ATOM     37  H2  UNL     1      29.689  20.460  10.760  1.00  0.00     0.162 HD
BRANCH  36  38
HETATM   38  C5  UNL     1      29.678  22.244   9.700  1.00  0.00     0.169 C 
HETATM   39  C3  UNL     1      30.599  23.178  10.438  1.00  0.00     0.105 C 
HETATM   40  C4  UNL     1      31.899  22.512  10.704  1.00  0.00     0.102 C 
HETATM   41  S1  UNL     1      32.546  21.921   9.087  1.00  0.00    -0.095 SA
HETATM   42  S2  UNL     1      30.571  21.623   8.244  1.00  0.00    -0.071 SA
BRANCH  39  43
HETATM   43  C2  UNL     1      30.652  24.480   9.805  1.00  0.00     0.143 C 
HETATM   44  N1  UNL     1      29.741  25.097   9.210  1.00  0.00    -0.249 N 
ATOM     45  H1  UNL     1      30.055  26.002   8.857  1.00  0.00     0.196 HD
BRANCH  44  46
HETATM   46  O1  UNL     1      28.468  24.863   8.926  1.00  0.00    -0.284 OA
HETATM   47  C1  UNL     1      27.865  25.433   7.784  1.00  0.00     0.237 C 
ENDBRANCH  44  46
BRANCH  43  48
HETATM   48  O2  UNL     1      31.902  25.158   9.861  1.00  0.00    -0.348 OA
ATOM     49  H2  UNL     1      32.177  25.426  10.730  1.00  0.00     0.219 HD
ENDBRANCH  43  48
ENDBRANCH  39  43
ENDBRANCH  36  38
ENDBRANCH   1  36
TORSDOF 12
ENDMDL
