MODEL 1
REMARK VINA RESULT: -7.482272460      0.000      0.000
REMARK  5 active torsions:
REMARK  status: ('A' for Active; 'I' for Inactive)
REMARK    1  A    between atoms: N1_2  and  N2_3 
REMARK    2  A    between atoms: N2_3  and  C2_4 
REMARK    3  A    between atoms: C5_8  and  N3_9 
REMARK    4  A    between atoms: N3_9  and  C6_11 
REMARK    5  A    between atoms: C8_19  and  N7_20 
ROOT
HETATM    1  C6  UNL     1      27.736  46.060   5.676  1.00  0.00     0.682 A 
HETATM    2  N4  UNL     1      27.767  47.389   5.935  1.00  0.00    -0.172 N 
ATOM      3  H4  UNL     1      27.788  48.118   5.222  1.00  0.00     0.186 HD
HETATM    4  C7  UNL     1      27.768  47.618   7.258  1.00  0.00     0.181 A 
HETATM    5  N5  UNL     1      27.792  48.694   8.062  1.00  0.00    -0.268 N 
ATOM      6  H5  UNL     1      27.817  49.623   7.641  1.00  0.00     0.189 HD
HETATM    7  N6  UNL     1      27.785  48.590   9.384  1.00  0.00    -0.131 N 
ATOM      8  H6  UNL     1      27.803  49.432   9.960  1.00  0.00     0.205 HD
HETATM    9  C8  UNL     1      27.753  47.383   9.968  1.00  0.00     0.692 A 
HETATM   10  N8  UNL     1      27.729  46.259   9.213  1.00  0.00    -0.171 N 
ATOM     11  H8  UNL     1      27.705  45.353   9.682  1.00  0.00     0.186 HD
HETATM   12  C9  UNL     1      27.734  46.292   7.865  1.00  0.00     0.182 A 
HETATM   13  N9  UNL     1      27.716  45.400   6.859  1.00  0.00    -0.172 N 
ATOM     14  H9  UNL     1      27.691  44.386   6.970  1.00  0.00     0.186 HD
ENDROOT
BRANCH   1  15
HETATM   15  N3  UNL     1      27.727  45.513   4.368  1.00  0.00    -0.217 N 
ATOM     16  H3  UNL     1      27.107  45.906   3.660  1.00  0.00     0.178 HD
BRANCH  15  17
HETATM   17  C5  UNL     1      28.574  44.422   4.036  1.00  0.00     0.146 C 
HETATM   18  C2  UNL     1      28.538  44.063   2.565  1.00  0.00     0.144 C 
HETATM   19  C3  UNL     1      29.885  43.396   2.407  1.00  0.00     0.192 C 
HETATM   20  O1  UNL     1      30.742  43.935   3.325  1.00  0.00    -0.387 OA
HETATM   21  C4  UNL     1      30.056  44.755   4.180  1.00  0.00     0.195 C 
BRANCH  18  22
HETATM   22  N2  UNL     1      27.452  43.156   2.248  1.00  0.00    -0.140 NA
BRANCH  22  23
HETATM   23  N1  UNL     1      27.112  42.498   3.446  1.00  0.00    -0.153 NA
HETATM   24  C1  UNL     1      27.187  41.045   3.268  1.00  0.00     0.154 C 
ENDBRANCH  22  23
ENDBRANCH  18  22
ENDBRANCH  15  17
ENDBRANCH   1  15
BRANCH   9  25
HETATM   25  N7  UNL     1      27.748  47.315  11.248  1.00  0.00    -0.233 N 
ATOM     26  H72 UNL     1      28.428  47.835  11.802  1.00  0.00     0.174 HD
ATOM     27  H71 UNL     1      27.049  46.730  11.707  1.00  0.00     0.174 HD
ENDBRANCH   9  25
TORSDOF 5
ENDMDL
MODEL 2
REMARK VINA RESULT: -7.406885154      2.033      2.794
REMARK  5 active torsions:
REMARK  status: ('A' for Active; 'I' for Inactive)
REMARK    1  A    between atoms: N1_2  and  N2_3 
REMARK    2  A    between atoms: N2_3  and  C2_4 
REMARK    3  A    between atoms: C5_8  and  N3_9 
REMARK    4  A    between atoms: N3_9  and  C6_11 
REMARK    5  A    between atoms: C8_19  and  N7_20 
ROOT
HETATM    1  C6  UNL     1      30.169  47.585   5.732  1.00  0.00     0.682 A 
HETATM    2  N4  UNL     1      28.919  47.890   6.155  1.00  0.00    -0.172 N 
ATOM      3  H4  UNL     1      28.070  47.736   5.612  1.00  0.00     0.186 HD
HETATM    4  C7  UNL     1      28.948  48.424   7.387  1.00  0.00     0.181 A 
HETATM    5  N5  UNL     1      28.049  48.894   8.268  1.00  0.00    -0.268 N 
ATOM      6  H5  UNL     1      27.060  48.882   8.017  1.00  0.00     0.189 HD
HETATM    7  N6  UNL     1      28.403  49.375   9.452  1.00  0.00    -0.131 N 
ATOM      8  H6  UNL     1      27.691  49.723  10.093  1.00  0.00     0.205 HD
HETATM    9  C8  UNL     1      29.695  49.407   9.810  1.00  0.00     0.692 A 
HETATM   10  N8  UNL     1      30.651  48.948   8.967  1.00  0.00    -0.171 N 
ATOM     11  H8  UNL     1      31.626  48.983   9.264  1.00  0.00     0.186 HD
HETATM   12  C9  UNL     1      30.360  48.445   7.749  1.00  0.00     0.182 A 
HETATM   13  N9  UNL     1      31.040  47.928   6.712  1.00  0.00    -0.172 N 
ATOM     14  H9  UNL     1      32.053  47.811   6.669  1.00  0.00     0.186 HD
ENDROOT
BRANCH   1  15
HETATM   15  N3  UNL     1      30.454  47.008   4.469  1.00  0.00    -0.217 N 
ATOM     16  H3  UNL     1      30.618  47.611   3.663  1.00  0.00     0.178 HD
BRANCH  15  17
HETATM   17  C5  UNL     1      30.512  45.597   4.317  1.00  0.00     0.146 C 
HETATM   18  C2  UNL     1      29.162  44.968   4.045  1.00  0.00     0.144 C 
HETATM   19  C3  UNL     1      29.581  43.701   3.337  1.00  0.00     0.192 C 
HETATM   20  O1  UNL     1      30.765  43.937   2.696  1.00  0.00    -0.387 OA
HETATM   21  C4  UNL     1      31.252  45.166   3.053  1.00  0.00     0.195 C 
BRANCH  18  22
HETATM   22  N2  UNL     1      28.435  44.682   5.266  1.00  0.00    -0.140 NA
BRANCH  22  23
HETATM   23  N1  UNL     1      27.065  44.723   4.941  1.00  0.00    -0.153 NA
HETATM   24  C1  UNL     1      26.363  45.669   5.812  1.00  0.00     0.154 C 
ENDBRANCH  22  23
ENDBRANCH  18  22
ENDBRANCH  15  17
ENDBRANCH   1  15
BRANCH   9  25
HETATM   25  N7  UNL     1      30.007  49.878  10.961  1.00  0.00    -0.233 N 
ATOM     26  H72 UNL     1      29.945  49.298  11.797  1.00  0.00     0.174 HD
ATOM     27  H71 UNL     1      30.318  50.847  11.028  1.00  0.00     0.174 HD
ENDBRANCH   9  25
TORSDOF 5
ENDMDL
MODEL 3
REMARK VINA RESULT: -7.369855914      1.436      2.443
REMARK  5 active torsions:
REMARK  status: ('A' for Active; 'I' for Inactive)
REMARK    1  A    between atoms: N1_2  and  N2_3 
REMARK    2  A    between atoms: N2_3  and  C2_4 
REMARK    3  A    between atoms: C5_8  and  N3_9 
REMARK    4  A    between atoms: N3_9  and  C6_11 
REMARK    5  A    between atoms: C8_19  and  N7_20 
ROOT
HETATM    1  C6  UNL     1      27.506  46.003   5.613  1.00  0.00     0.682 A 
HETATM    2  N4  UNL     1      27.655  47.329   5.848  1.00  0.00    -0.172 N 
ATOM      3  H4  UNL     1      27.732  48.041   5.121  1.00  0.00     0.186 HD
HETATM    4  C7  UNL     1      27.687  47.580   7.166  1.00  0.00     0.181 A 
HETATM    5  N5  UNL     1      27.811  48.664   7.950  1.00  0.00    -0.268 N 
ATOM      6  H5  UNL     1      27.913  49.580   7.512  1.00  0.00     0.189 HD
HETATM    7  N6  UNL     1      27.807  48.584   9.273  1.00  0.00    -0.131 N 
ATOM      8  H6  UNL     1      27.903  49.431   9.834  1.00  0.00     0.205 HD
HETATM    9  C8  UNL     1      27.676  47.395   9.880  1.00  0.00     0.692 A 
HETATM   10  N8  UNL     1      27.547  46.264   9.146  1.00  0.00    -0.171 N 
ATOM     11  H8  UNL     1      27.449  45.372   9.631  1.00  0.00     0.186 HD
HETATM   12  C9  UNL     1      27.543  46.274   7.797  1.00  0.00     0.182 A 
HETATM   13  N9  UNL     1      27.439  45.369   6.808  1.00  0.00    -0.172 N 
ATOM     14  H9  UNL     1      27.327  44.363   6.937  1.00  0.00     0.186 HD
ENDROOT
BRANCH   1  15
HETATM   15  N3  UNL     1      27.438  45.436   4.315  1.00  0.00    -0.217 N 
ATOM     16  H3  UNL     1      26.531  45.299   3.870  1.00  0.00     0.178 HD
BRANCH  15  17
HETATM   17  C5  UNL     1      28.624  45.057   3.630  1.00  0.00     0.146 C 
HETATM   18  C2  UNL     1      29.372  43.929   4.309  1.00  0.00     0.144 C 
HETATM   19  C3  UNL     1      30.131  43.351   3.137  1.00  0.00     0.192 C 
HETATM   20  O1  UNL     1      29.407  43.583   2.000  1.00  0.00    -0.387 OA
HETATM   21  C4  UNL     1      28.346  44.402   2.281  1.00  0.00     0.195 C 
BRANCH  18  22
HETATM   22  N2  UNL     1      30.270  44.410   5.341  1.00  0.00    -0.140 NA
BRANCH  22  23
HETATM   23  N1  UNL     1      30.912  45.550   4.820  1.00  0.00    -0.153 NA
HETATM   24  C1  UNL     1      31.254  46.480   5.899  1.00  0.00     0.154 C 
ENDBRANCH  22  23
ENDBRANCH  18  22
ENDBRANCH  15  17
ENDBRANCH   1  15
BRANCH   9  25
HETATM   25  N7  UNL     1      27.676  47.350  11.161  1.00  0.00    -0.233 N 
ATOM     26  H72 UNL     1      27.087  47.981  11.705  1.00  0.00     0.174 HD
ATOM     27  H71 UNL     1      28.275  46.671  11.629  1.00  0.00     0.174 HD
ENDBRANCH   9  25
TORSDOF 5
ENDMDL
MODEL 4
REMARK VINA RESULT: -7.313425228      1.601      2.828
REMARK  5 active torsions:
REMARK  status: ('A' for Active; 'I' for Inactive)
REMARK    1  A    between atoms: N1_2  and  N2_3 
REMARK    2  A    between atoms: N2_3  and  C2_4 
REMARK    3  A    between atoms: C5_8  and  N3_9 
REMARK    4  A    between atoms: N3_9  and  C6_11 
REMARK    5  A    between atoms: C8_19  and  N7_20 
ROOT
HETATM    1  C6  UNL     1      27.477  45.769   4.871  1.00  0.00     0.682 A 
HETATM    2  N4  UNL     1      26.838  45.292   5.965  1.00  0.00    -0.172 N 
ATOM      3  H4  UNL     1      26.293  44.431   5.988  1.00  0.00     0.186 HD
HETATM    4  C7  UNL     1      27.019  46.106   7.017  1.00  0.00     0.181 A 
HETATM    5  N5  UNL     1      26.636  46.137   8.305  1.00  0.00    -0.268 N 
ATOM      6  H5  UNL     1      26.052  45.381   8.663  1.00  0.00     0.189 HD
HETATM    7  N6  UNL     1      26.992  47.116   9.125  1.00  0.00    -0.131 N 
ATOM      8  H6  UNL     1      26.682  47.102  10.097  1.00  0.00     0.205 HD
HETATM    9  C8  UNL     1      27.759  48.124   8.684  1.00  0.00     0.692 A 
HETATM   10  N8  UNL     1      28.177  48.152   7.397  1.00  0.00    -0.171 N 
ATOM     11  H8  UNL     1      28.760  48.930   7.086  1.00  0.00     0.186 HD
HETATM   12  C9  UNL     1      27.853  47.189   6.509  1.00  0.00     0.182 A 
HETATM   13  N9  UNL     1      28.092  46.926   5.213  1.00  0.00    -0.172 N 
ATOM     14  H9  UNL     1      28.650  47.507   4.586  1.00  0.00     0.186 HD
ENDROOT
BRANCH   1  15
HETATM   15  N3  UNL     1      27.466  45.123   3.609  1.00  0.00    -0.217 N 
ATOM     16  H3  UNL     1      26.585  45.004   3.109  1.00  0.00     0.178 HD
BRANCH  15  17
HETATM   17  C5  UNL     1      28.672  44.639   3.035  1.00  0.00     0.146 C 
HETATM   18  C2  UNL     1      29.404  43.655   3.923  1.00  0.00     0.144 C 
HETATM   19  C3  UNL     1      30.198  42.886   2.892  1.00  0.00     0.192 C 
HETATM   20  O1  UNL     1      29.507  42.908   1.712  1.00  0.00    -0.387 OA
HETATM   21  C4  UNL     1      28.436  43.754   1.814  1.00  0.00     0.195 C 
BRANCH  18  22
HETATM   22  N2  UNL     1      30.270  44.317   4.879  1.00  0.00    -0.140 NA
BRANCH  22  23
HETATM   23  N1  UNL     1      30.848  45.413   4.209  1.00  0.00    -0.153 NA
HETATM   24  C1  UNL     1      31.559  46.272   5.160  1.00  0.00     0.154 C 
ENDBRANCH  22  23
ENDBRANCH  18  22
ENDBRANCH  15  17
ENDBRANCH   1  15
BRANCH   9  25
HETATM   25  N7  UNL     1      28.086  49.056   9.502  1.00  0.00    -0.233 N 
ATOM     26  H72 UNL     1      28.608  49.872   9.182  1.00  0.00     0.174 HD
ATOM     27  H71 UNL     1      27.815  48.969  10.481  1.00  0.00     0.174 HD
ENDBRANCH   9  25
TORSDOF 5
ENDMDL
MODEL 5
REMARK VINA RESULT: -7.312635210      1.363      1.882
REMARK  5 active torsions:
REMARK  status: ('A' for Active; 'I' for Inactive)
REMARK    1  A    between atoms: N1_2  and  N2_3 
REMARK    2  A    between atoms: N2_3  and  C2_4 
REMARK    3  A    between atoms: C5_8  and  N3_9 
REMARK    4  A    between atoms: N3_9  and  C6_11 
REMARK    5  A    between atoms: C8_19  and  N7_20 
ROOT
HETATM    1  C6  UNL     1      28.260  45.364   5.219  1.00  0.00     0.682 A 
HETATM    2  N4  UNL     1      27.465  45.002   6.254  1.00  0.00    -0.172 N 
ATOM      3  H4  UNL     1      26.951  44.123   6.309  1.00  0.00     0.186 HD
HETATM    4  C7  UNL     1      27.445  45.957   7.198  1.00  0.00     0.181 A 
HETATM    5  N5  UNL     1      26.855  46.136   8.391  1.00  0.00    -0.268 N 
ATOM      6  H5  UNL     1      26.243  45.404   8.754  1.00  0.00     0.189 HD
HETATM    7  N6  UNL     1      27.040  47.232   9.114  1.00  0.00    -0.131 N 
ATOM      8  H6  UNL     1      26.574  47.331  10.016  1.00  0.00     0.205 HD
HETATM    9  C8  UNL     1      27.837  48.213   8.665  1.00  0.00     0.692 A 
HETATM   10  N8  UNL     1      28.460  48.093   7.468  1.00  0.00    -0.171 N 
ATOM     11  H8  UNL     1      29.061  48.854   7.150  1.00  0.00     0.186 HD
HETATM   12  C9  UNL     1      28.317  47.006   6.683  1.00  0.00     0.182 A 
HETATM   13  N9  UNL     1      28.774  46.587   5.490  1.00  0.00    -0.172 N 
ATOM     14  H9  UNL     1      29.409  47.109   4.886  1.00  0.00     0.186 HD
ENDROOT
BRANCH   1  15
HETATM   15  N3  UNL     1      28.477  44.557   4.073  1.00  0.00    -0.217 N 
ATOM     16  H3  UNL     1      27.773  44.526   3.336  1.00  0.00     0.178 HD
BRANCH  15  17
HETATM   17  C5  UNL     1      29.668  43.793   3.943  1.00  0.00     0.146 C 
HETATM   18  C2  UNL     1      29.459  42.480   3.218  1.00  0.00     0.144 C 
HETATM   19  C3  UNL     1      30.853  42.227   2.692  1.00  0.00     0.192 C 
HETATM   20  O1  UNL     1      31.467  43.433   2.503  1.00  0.00    -0.387 OA
HETATM   21  C4  UNL     1      30.690  44.438   3.013  1.00  0.00     0.195 C 
BRANCH  18  22
HETATM   22  N2  UNL     1      29.024  41.423   4.110  1.00  0.00    -0.140 NA
BRANCH  22  23
HETATM   23  N1  UNL     1      27.639  41.269   3.910  1.00  0.00    -0.153 NA
HETATM   24  C1  UNL     1      27.382  40.541   2.665  1.00  0.00     0.154 C 
ENDBRANCH  22  23
ENDBRANCH  18  22
ENDBRANCH  15  17
ENDBRANCH   1  15
BRANCH   9  25
HETATM   25  N7  UNL     1      27.995  49.261   9.386  1.00  0.00    -0.233 N 
ATOM     26  H72 UNL     1      27.854  49.226  10.395  1.00  0.00     0.174 HD
ATOM     27  H71 UNL     1      28.265  50.134   8.933  1.00  0.00     0.174 HD
ENDBRANCH   9  25
TORSDOF 5
ENDMDL
