MODEL 1
REMARK VINA RESULT: -6.713131612      0.000      0.000
REMARK  9 active torsions:
REMARK  status: ('A' for Active; 'I' for Inactive)
REMARK    1  A    between atoms: C2_2  and  N1_3 
REMARK    2  A    between atoms: C2_2  and  N2_7 
REMARK    3  A    between atoms: N2_7  and  N3_9 
REMARK    4  A    between atoms: N3_9  and  C3_10 
REMARK    5  A    between atoms: C5_12  and  C6_13 
REMARK    6  A    between atoms: C6_13  and  N4_14 
REMARK    7  A    between atoms: C6_13  and  N5_18 
REMARK    8  A    between atoms: C7_22  and  N6_23 
REMARK    9  A    between atoms: N6_23  and  O1_25 
ROOT
HETATM    1  C3  UNL     1      29.410  47.885   8.152  1.00  0.00     0.199 C 
HETATM    2  C4  UNL     1      29.732  47.014   7.073  1.00  0.00     0.066 C 
HETATM    3  C5  UNL     1      28.924  46.459   6.098  1.00  0.00     0.036 C 
HETATM    4  C7  UNL     1      27.595  46.181   6.288  1.00  0.00     0.132 C 
HETATM    5  C8  UNL     1      26.761  46.551   7.353  1.00  0.00     0.277 C 
HETATM    6  O2  UNL     1      25.661  45.972   7.501  1.00  0.00    -0.266 OA
HETATM    7  N7  UNL     1      26.997  47.505   8.290  1.00  0.00    -0.286 N 
ATOM      8  H7  UNL     1      26.211  47.706   8.908  1.00  0.00     0.172 HD
HETATM    9  C9  UNL     1      28.101  48.219   8.527  1.00  0.00     0.291 C 
HETATM   10  O3  UNL     1      27.968  49.302   9.155  1.00  0.00    -0.264 OA
ENDROOT
BRANCH   1  11
HETATM   11  N3  UNL     1      30.419  48.398   8.827  1.00  0.00    -0.323 NA
BRANCH  11  12
HETATM   12  N2  UNL     1      31.282  48.859   9.422  1.00  0.00    -0.240 N 
ATOM     13  H2  UNL     1      32.149  48.324   9.473  1.00  0.00     0.197 HD
BRANCH  12  14
HETATM   14  C2  UNL     1      31.251  50.168  10.127  1.00  0.00     0.304 C 
HETATM   15  C1  UNL     1      32.567  50.365  10.860  1.00  0.00     0.065 C 
BRANCH  14  16
HETATM   16  N1  UNL     1      30.214  50.151  11.120  1.00  0.00    -0.057 N 
ATOM     17  H13 UNL     1      30.456  50.676  11.960  1.00  0.00     0.276 HD
ATOM     18  H12 UNL     1      29.397  50.700  10.854  1.00  0.00     0.276 HD
ATOM     19  H11 UNL     1      29.996  49.172  11.307  1.00  0.00     0.276 HD
ENDBRANCH  14  16
ENDBRANCH  12  14
ENDBRANCH  11  12
ENDBRANCH   1  11
BRANCH   3  20
HETATM   20  C6  UNL     1      29.588  46.176   4.810  1.00  0.00     0.413 C 
BRANCH  20  21
HETATM   21  N4  UNL     1      30.494  47.326   4.584  1.00  0.00    -0.046 N 
ATOM     22  H43 UNL     1      30.214  47.927   3.809  1.00  0.00     0.277 HD
ATOM     23  H42 UNL     1      30.444  48.040   5.310  1.00  0.00     0.277 HD
ATOM     24  H41 UNL     1      31.421  46.915   4.473  1.00  0.00     0.277 HD
ENDBRANCH  20  21
BRANCH  20  25
HETATM   25  N5  UNL     1      30.366  44.997   4.715  1.00  0.00    -0.046 N 
ATOM     26  H53 UNL     1      31.248  45.136   5.207  1.00  0.00     0.277 HD
ATOM     27  H52 UNL     1      29.939  44.267   5.286  1.00  0.00     0.277 HD
ATOM     28  H51 UNL     1      30.554  44.627   3.783  1.00  0.00     0.277 HD
ENDBRANCH  20  25
ENDBRANCH   3  20
BRANCH   4  29
HETATM   29  N6  UNL     1      26.883  45.443   5.325  1.00  0.00    -0.263 N 
ATOM     30  H6  UNL     1      26.801  45.851   4.393  1.00  0.00     0.194 HD
BRANCH  29  31
HETATM   31  O1  UNL     1      26.294  44.236   5.522  1.00  0.00    -0.289 OA
ATOM     32  H1  UNL     1      25.935  43.674   4.846  1.00  0.00     0.244 HD
ENDBRANCH  29  31
ENDBRANCH   4  29
TORSDOF 9
ENDMDL
MODEL 2
REMARK VINA RESULT: -6.691518573      7.192      8.172
REMARK  9 active torsions:
REMARK  status: ('A' for Active; 'I' for Inactive)
REMARK    1  A    between atoms: C2_2  and  N1_3 
REMARK    2  A    between atoms: C2_2  and  N2_7 
REMARK    3  A    between atoms: N2_7  and  N3_9 
REMARK    4  A    between atoms: N3_9  and  C3_10 
REMARK    5  A    between atoms: C5_12  and  C6_13 
REMARK    6  A    between atoms: C6_13  and  N4_14 
REMARK    7  A    between atoms: C6_13  and  N5_18 
REMARK    8  A    between atoms: C7_22  and  N6_23 
REMARK    9  A    between atoms: N6_23  and  O1_25 
ROOT
HETATM    1  C3  UNL     1      29.913  44.086   1.186  1.00  0.00     0.199 C 
HETATM    2  C4  UNL     1      30.447  42.912   1.788  1.00  0.00     0.066 C 
HETATM    3  C5  UNL     1      29.806  41.832   2.367  1.00  0.00     0.036 C 
HETATM    4  C7  UNL     1      28.579  41.919   2.974  1.00  0.00     0.132 C 
HETATM    5  C8  UNL     1      27.669  42.985   2.970  1.00  0.00     0.277 C 
HETATM    6  O2  UNL     1      26.736  42.999   3.806  1.00  0.00    -0.266 OA
HETATM    7  N7  UNL     1      27.659  44.056   2.137  1.00  0.00    -0.286 N 
ATOM      8  H7  UNL     1      26.840  44.659   2.218  1.00  0.00     0.172 HD
HETATM    9  C9  UNL     1      28.558  44.443   1.226  1.00  0.00     0.291 C 
HETATM   10  O3  UNL     1      28.163  45.210   0.309  1.00  0.00    -0.264 OA
ENDROOT
BRANCH   1  11
HETATM   11  N3  UNL     1      30.763  44.873   0.556  1.00  0.00    -0.323 NA
BRANCH  11  12
HETATM   12  N2  UNL     1      31.484  45.567   0.000  1.00  0.00    -0.240 N 
ATOM     13  H2  UNL     1      32.356  45.806   0.472  1.00  0.00     0.197 HD
BRANCH  12  14
HETATM   14  C2  UNL     1      31.261  46.153  -1.349  1.00  0.00     0.304 C 
HETATM   15  C1  UNL     1      32.350  47.175  -1.629  1.00  0.00     0.065 C 
BRANCH  14  16
HETATM   16  N1  UNL     1      30.010  46.856  -1.363  1.00  0.00    -0.057 N 
ATOM     17  H13 UNL     1      30.068  47.766  -1.820  1.00  0.00     0.276 HD
ATOM     18  H12 UNL     1      29.323  46.438  -1.991  1.00  0.00     0.276 HD
ATOM     19  H11 UNL     1      29.687  46.913  -0.397  1.00  0.00     0.276 HD
ENDBRANCH  14  16
ENDBRANCH  12  14
ENDBRANCH  11  12
ENDBRANCH   1  11
BRANCH   3  20
HETATM   20  C6  UNL     1      30.534  40.549   2.293  1.00  0.00     0.413 C 
BRANCH  20  21
HETATM   21  N4  UNL     1      31.609  40.774   1.300  1.00  0.00    -0.046 N 
ATOM     22  H43 UNL     1      31.286  40.766   0.333  1.00  0.00     0.277 HD
ATOM     23  H42 UNL     1      31.973  41.726   1.294  1.00  0.00     0.277 HD
ATOM     24  H41 UNL     1      32.312  40.064   1.506  1.00  0.00     0.277 HD
ENDBRANCH  20  21
BRANCH  20  25
HETATM   25  N5  UNL     1      31.142  40.069   3.478  1.00  0.00    -0.046 N 
ATOM     26  H53 UNL     1      30.729  40.539   4.283  1.00  0.00     0.277 HD
ATOM     27  H52 UNL     1      30.844  39.107   3.642  1.00  0.00     0.277 HD
ATOM     28  H51 UNL     1      32.159  40.121   3.543  1.00  0.00     0.277 HD
ENDBRANCH  20  25
ENDBRANCH   3  20
BRANCH   4  29
HETATM   29  N6  UNL     1      28.075  40.829   3.708  1.00  0.00    -0.263 N 
ATOM     30  H6  UNL     1      27.475  40.172   3.210  1.00  0.00     0.194 HD
BRANCH  29  31
HETATM   31  O1  UNL     1      28.315  40.575   5.020  1.00  0.00    -0.289 OA
ATOM     32  H1  UNL     1      27.931  39.871   5.529  1.00  0.00     0.244 HD
ENDBRANCH  29  31
ENDBRANCH   4  29
TORSDOF 9
ENDMDL
MODEL 3
REMARK VINA RESULT: -6.665694223      2.636      3.769
REMARK  9 active torsions:
REMARK  status: ('A' for Active; 'I' for Inactive)
REMARK    1  A    between atoms: C2_2  and  N1_3 
REMARK    2  A    between atoms: C2_2  and  N2_7 
REMARK    3  A    between atoms: N2_7  and  N3_9 
REMARK    4  A    between atoms: N3_9  and  C3_10 
REMARK    5  A    between atoms: C5_12  and  C6_13 
REMARK    6  A    between atoms: C6_13  and  N4_14 
REMARK    7  A    between atoms: C6_13  and  N5_18 
REMARK    8  A    between atoms: C7_22  and  N6_23 
REMARK    9  A    between atoms: N6_23  and  O1_25 
ROOT
HETATM    1  C3  UNL     1      29.873  49.082   9.882  1.00  0.00     0.199 C 
HETATM    2  C4  UNL     1      29.287  48.011  10.614  1.00  0.00     0.066 C 
HETATM    3  C5  UNL     1      28.569  46.914  10.176  1.00  0.00     0.036 C 
HETATM    4  C7  UNL     1      27.805  46.918   9.036  1.00  0.00     0.132 C 
HETATM    5  C8  UNL     1      27.741  47.885   8.023  1.00  0.00     0.277 C 
HETATM    6  O2  UNL     1      26.787  47.862   7.212  1.00  0.00    -0.266 OA
HETATM    7  N7  UNL     1      28.621  48.891   7.788  1.00  0.00    -0.286 N 
ATOM      8  H7  UNL     1      28.460  49.413   6.927  1.00  0.00     0.172 HD
HETATM    9  C9  UNL     1      29.666  49.303   8.514  1.00  0.00     0.291 C 
HETATM   10  O3  UNL     1      30.559  49.963   7.921  1.00  0.00    -0.264 OA
ENDROOT
BRANCH   1  11
HETATM   11  N3  UNL     1      30.654  49.906  10.552  1.00  0.00    -0.323 NA
BRANCH  11  12
HETATM   12  N2  UNL     1      31.345  50.624  11.115  1.00  0.00    -0.240 N 
ATOM     13  H2  UNL     1      30.926  51.185  11.858  1.00  0.00     0.197 HD
BRANCH  12  14
HETATM   14  C2  UNL     1      32.799  50.811  10.861  1.00  0.00     0.304 C 
HETATM   15  C1  UNL     1      33.212  52.188  11.354  1.00  0.00     0.065 C 
BRANCH  14  16
HETATM   16  N1  UNL     1      33.044  50.779   9.447  1.00  0.00    -0.057 N 
ATOM     17  H13 UNL     1      33.514  49.928   9.142  1.00  0.00     0.276 HD
ATOM     18  H12 UNL     1      32.193  50.663   8.897  1.00  0.00     0.276 HD
ATOM     19  H11 UNL     1      33.559  51.628   9.214  1.00  0.00     0.276 HD
ENDBRANCH  14  16
ENDBRANCH  12  14
ENDBRANCH  11  12
ENDBRANCH   1  11
BRANCH   3  20
HETATM   20  C6  UNL     1      28.673  45.708  11.022  1.00  0.00     0.413 C 
BRANCH  20  21
HETATM   21  N4  UNL     1      30.068  45.240  10.854  1.00  0.00    -0.046 N 
ATOM     22  H43 UNL     1      30.210  44.264  11.114  1.00  0.00     0.277 HD
ATOM     23  H42 UNL     1      30.357  45.144   9.880  1.00  0.00     0.277 HD
ATOM     24  H41 UNL     1      30.634  45.896  11.391  1.00  0.00     0.277 HD
ENDBRANCH  20  21
BRANCH  20  25
HETATM   25  N5  UNL     1      28.438  45.856  12.410  1.00  0.00    -0.046 N 
ATOM     26  H53 UNL     1      29.283  45.601  12.922  1.00  0.00     0.277 HD
ATOM     27  H52 UNL     1      28.369  46.849  12.635  1.00  0.00     0.277 HD
ATOM     28  H51 UNL     1      27.640  45.365  12.811  1.00  0.00     0.277 HD
ENDBRANCH  20  25
ENDBRANCH   3  20
BRANCH   4  29
HETATM   29  N6  UNL     1      26.951  45.836   8.754  1.00  0.00    -0.263 N 
ATOM     30  H6  UNL     1      27.377  44.909   8.703  1.00  0.00     0.194 HD
BRANCH  29  31
HETATM   31  O1  UNL     1      25.613  45.912   8.541  1.00  0.00    -0.289 OA
ATOM     32  H1  UNL     1      24.990  46.385   9.080  1.00  0.00     0.244 HD
ENDBRANCH  29  31
ENDBRANCH   4  29
TORSDOF 9
ENDMDL
MODEL 4
REMARK VINA RESULT: -6.444663752      2.210      5.423
REMARK  9 active torsions:
REMARK  status: ('A' for Active; 'I' for Inactive)
REMARK    1  A    between atoms: C2_2  and  N1_3 
REMARK    2  A    between atoms: C2_2  and  N2_7 
REMARK    3  A    between atoms: N2_7  and  N3_9 
REMARK    4  A    between atoms: N3_9  and  C3_10 
REMARK    5  A    between atoms: C5_12  and  C6_13 
REMARK    6  A    between atoms: C6_13  and  N4_14 
REMARK    7  A    between atoms: C6_13  and  N5_18 
REMARK    8  A    between atoms: C7_22  and  N6_23 
REMARK    9  A    between atoms: N6_23  and  O1_25 
ROOT
HETATM    1  C3  UNL     1      30.194  46.299   4.954  1.00  0.00     0.199 C 
HETATM    2  C4  UNL     1      29.712  47.329   5.810  1.00  0.00     0.066 C 
HETATM    3  C5  UNL     1      28.713  47.304   6.766  1.00  0.00     0.036 C 
HETATM    4  C7  UNL     1      27.627  46.469   6.702  1.00  0.00     0.132 C 
HETATM    5  C8  UNL     1      27.396  45.391   5.836  1.00  0.00     0.277 C 
HETATM    6  O2  UNL     1      26.237  44.927   5.729  1.00  0.00    -0.266 OA
HETATM    7  N7  UNL     1      28.305  44.748   5.060  1.00  0.00    -0.286 N 
ATOM      8  H7  UNL     1      27.959  43.910   4.594  1.00  0.00     0.172 HD
HETATM    9  C9  UNL     1      29.585  45.044   4.814  1.00  0.00     0.291 C 
HETATM   10  O3  UNL     1      30.330  44.113   4.411  1.00  0.00    -0.264 OA
ENDROOT
BRANCH   1  11
HETATM   11  N3  UNL     1      31.281  46.563   4.256  1.00  0.00    -0.323 NA
BRANCH  11  12
HETATM   12  N2  UNL     1      32.219  46.778   3.636  1.00  0.00    -0.240 N 
ATOM     13  H2  UNL     1      32.698  47.662   3.807  1.00  0.00     0.197 HD
BRANCH  12  14
HETATM   14  C2  UNL     1      32.801  45.881   2.601  1.00  0.00     0.304 C 
HETATM   15  C1  UNL     1      33.667  46.706   1.664  1.00  0.00     0.065 C 
BRANCH  14  16
HETATM   16  N1  UNL     1      31.745  45.315   1.811  1.00  0.00    -0.057 N 
ATOM     17  H13 UNL     1      32.051  45.027   0.881  1.00  0.00     0.276 HD
ATOM     18  H12 UNL     1      31.446  44.398   2.140  1.00  0.00     0.276 HD
ATOM     19  H11 UNL     1      30.988  45.999   1.789  1.00  0.00     0.276 HD
ENDBRANCH  14  16
ENDBRANCH  12  14
ENDBRANCH  11  12
ENDBRANCH   1  11
BRANCH   3  20
HETATM   20  C6  UNL     1      28.886  48.248   7.888  1.00  0.00     0.413 C 
BRANCH  20  21
HETATM   21  N4  UNL     1      30.066  47.749   8.633  1.00  0.00    -0.046 N 
ATOM     22  H43 UNL     1      30.552  48.470   9.167  1.00  0.00     0.277 HD
ATOM     23  H42 UNL     1      29.831  47.154   9.426  1.00  0.00     0.277 HD
ATOM     24  H41 UNL     1      30.648  47.292   7.931  1.00  0.00     0.277 HD
ENDBRANCH  20  21
BRANCH  20  25
HETATM   25  N5  UNL     1      29.126  49.608   7.573  1.00  0.00    -0.046 N 
ATOM     26  H53 UNL     1      29.692  50.028   8.310  1.00  0.00     0.277 HD
ATOM     27  H52 UNL     1      29.768  49.661   6.782  1.00  0.00     0.277 HD
ATOM     28  H51 UNL     1      28.317  50.202   7.389  1.00  0.00     0.277 HD
ENDBRANCH  20  25
ENDBRANCH   3  20
BRANCH   4  29
HETATM   29  N6  UNL     1      26.558  46.630   7.602  1.00  0.00    -0.263 N 
ATOM     30  H6  UNL     1      26.022  47.496   7.536  1.00  0.00     0.194 HD
BRANCH  29  31
HETATM   31  O1  UNL     1      26.174  45.738   8.550  1.00  0.00    -0.289 OA
ATOM     32  H1  UNL     1      26.475  44.840   8.624  1.00  0.00     0.244 HD
ENDBRANCH  29  31
ENDBRANCH   4  29
TORSDOF 9
ENDMDL
MODEL 5
REMARK VINA RESULT: -6.427500012      2.261      3.495
REMARK  9 active torsions:
REMARK  status: ('A' for Active; 'I' for Inactive)
REMARK    1  A    between atoms: C2_2  and  N1_3 
REMARK    2  A    between atoms: C2_2  and  N2_7 
REMARK    3  A    between atoms: N2_7  and  N3_9 
REMARK    4  A    between atoms: N3_9  and  C3_10 
REMARK    5  A    between atoms: C5_12  and  C6_13 
REMARK    6  A    between atoms: C6_13  and  N4_14 
REMARK    7  A    between atoms: C6_13  and  N5_18 
REMARK    8  A    between atoms: C7_22  and  N6_23 
REMARK    9  A    between atoms: N6_23  and  O1_25 
ROOT
HETATM    1  C3  UNL     1      30.195  48.041   7.349  1.00  0.00     0.199 C 
HETATM    2  C4  UNL     1      29.471  47.767   8.543  1.00  0.00     0.066 C 
HETATM    3  C5  UNL     1      28.323  47.023   8.744  1.00  0.00     0.036 C 
HETATM    4  C7  UNL     1      27.350  46.864   7.791  1.00  0.00     0.132 C 
HETATM    5  C8  UNL     1      27.381  47.217   6.434  1.00  0.00     0.277 C 
HETATM    6  O2  UNL     1      26.310  47.262   5.787  1.00  0.00    -0.266 OA
HETATM    7  N7  UNL     1      28.472  47.527   5.689  1.00  0.00    -0.286 N 
ATOM      8  H7  UNL     1      28.296  47.636   4.690  1.00  0.00     0.172 HD
HETATM    9  C9  UNL     1      29.742  47.713   6.063  1.00  0.00     0.291 C 
HETATM   10  O3  UNL     1      30.631  47.589   5.181  1.00  0.00    -0.264 OA
ENDROOT
BRANCH   1  11
HETATM   11  N3  UNL     1      31.360  48.642   7.482  1.00  0.00    -0.323 NA
BRANCH  11  12
HETATM   12  N2  UNL     1      32.363  49.184   7.592  1.00  0.00    -0.240 N 
ATOM     13  H2  UNL     1      33.188  48.715   7.217  1.00  0.00     0.197 HD
BRANCH  12  14
HETATM   14  C2  UNL     1      32.570  50.510   8.234  1.00  0.00     0.304 C 
HETATM   15  C1  UNL     1      33.949  51.029   7.861  1.00  0.00     0.065 C 
BRANCH  14  16
HETATM   16  N1  UNL     1      32.548  50.358   9.660  1.00  0.00    -0.057 N 
ATOM     17  H13 UNL     1      33.137  49.594   9.991  1.00  0.00     0.276 HD
ATOM     18  H12 UNL     1      33.027  51.114  10.150  1.00  0.00     0.276 HD
ATOM     19  H11 UNL     1      31.571  50.259   9.936  1.00  0.00     0.276 HD
ENDBRANCH  14  16
ENDBRANCH  12  14
ENDBRANCH  11  12
ENDBRANCH   1  11
BRANCH   3  20
HETATM   20  C6  UNL     1      28.201  46.392  10.073  1.00  0.00     0.413 C 
BRANCH  20  21
HETATM   21  N4  UNL     1      29.566  45.918  10.401  1.00  0.00    -0.046 N 
ATOM     22  H43 UNL     1      29.649  44.903  10.454  1.00  0.00     0.277 HD
ATOM     23  H42 UNL     1      30.241  46.053   9.650  1.00  0.00     0.277 HD
ATOM     24  H41 UNL     1      29.811  46.397  11.268  1.00  0.00     0.277 HD
ENDBRANCH  20  21
BRANCH  20  25
HETATM   25  N5  UNL     1      27.762  47.202  11.148  1.00  0.00    -0.046 N 
ATOM     26  H53 UNL     1      27.778  46.655  12.009  1.00  0.00     0.277 HD
ATOM     27  H52 UNL     1      28.474  47.903  11.352  1.00  0.00     0.277 HD
ATOM     28  H51 UNL     1      26.855  47.660  11.057  1.00  0.00     0.277 HD
ENDBRANCH  20  25
ENDBRANCH   3  20
BRANCH   4  29
HETATM   29  N6  UNL     1      26.125  46.258   8.125  1.00  0.00    -0.263 N 
ATOM     30  H6  UNL     1      25.934  46.113   9.117  1.00  0.00     0.194 HD
BRANCH  29  31
HETATM   31  O1  UNL     1      25.174  45.848   7.248  1.00  0.00    -0.289 OA
ATOM     32  H1  UNL     1      24.439  45.281   7.448  1.00  0.00     0.244 HD
ENDBRANCH  29  31
ENDBRANCH   4  29
TORSDOF 9
ENDMDL
