MODEL 1
REMARK VINA RESULT: -7.195927066      0.000      0.000
REMARK  5 active torsions:
REMARK  status: ('A' for Active; 'I' for Inactive)
REMARK    1  A    between atoms: S1_2  and  C2_3 
REMARK    2  A    between atoms: C3_6  and  N2_7 
REMARK    3  A    between atoms: C4_10  and  C5_11 
REMARK    4  A    between atoms: C6_14  and  C7_15 
REMARK    5  A    between atoms: C8_20  and  C9_21 
ROOT
HETATM    1  C5  UNL     1      31.189  49.043   9.244  1.00  0.00     0.126 A 
HETATM    2  N3  UNL     1      30.393  49.142   8.195  1.00  0.00    -0.337 N 
ATOM      3  H3  UNL     1      30.365  49.946   7.567  1.00  0.00     0.167 HD
HETATM    4  C6  UNL     1      29.592  48.001   8.056  1.00  0.00     0.107 A 
HETATM    5  C8  UNL     1      29.964  47.205   9.098  1.00  0.00     0.131 A 
HETATM    6  N7  UNL     1      30.950  47.862   9.822  1.00  0.00    -0.331 N 
HETATM    7  C10 UNL     1      31.568  47.288  10.999  1.00  0.00     0.158 C 
ENDROOT
BRANCH   1   8
HETATM    8  C4  UNL     1      32.162  50.050   9.693  1.00  0.00     0.093 A 
HETATM    9  C3  UNL     1      31.911  50.897  10.753  1.00  0.00     0.118 A 
HETATM   10  N1  UNL     1      32.803  51.816  11.162  1.00  0.00    -0.322 N 
HETATM   11  C2  UNL     1      33.972  51.901  10.507  1.00  0.00     0.146 A 
ATOM     12  H1  UNL     1      32.597  52.432  11.948  1.00  0.00     0.169 HD
HETATM   13  N9  UNL     1      34.245  51.097   9.478  1.00  0.00    -0.324 N 
HETATM   14  C11 UNL     1      33.372  50.167   9.047  1.00  0.00     0.136 A 
ATOM     15  H9  UNL     1      35.143  51.189   9.003  1.00  0.00     0.169 HD
HETATM   16  N8  UNL     1      33.722  49.334   7.938  1.00  0.00    -0.082 NA
BRANCH   9  17
HETATM   17  N2  UNL     1      30.775  50.816  11.392  1.00  0.00    -0.385 N 
ATOM     18  H22 UNL     1      30.048  51.511  11.220  1.00  0.00     0.157 HD
ATOM     19  H21 UNL     1      30.649  50.050  12.053  1.00  0.00     0.157 HD
ENDBRANCH   9  17
BRANCH  11  20
HETATM   20  S1  UNL     1      35.161  53.117  11.041  1.00  0.00    -0.098 SA
HETATM   21  C1  UNL     1      35.890  52.537  12.590  1.00  0.00     0.099 C 
ENDBRANCH  11  20
ENDBRANCH   1   8
BRANCH   4  22
HETATM   22  C7  UNL     1      28.624  47.884   6.997  1.00  0.00     0.139 C 
HETATM   23  N4  UNL     1      29.005  48.261   5.797  1.00  0.00    -0.386 N 
ATOM     24  H42 UNL     1      29.972  48.584   5.744  1.00  0.00     0.157 HD
ATOM     25  H41 UNL     1      28.320  48.178   5.047  1.00  0.00     0.157 HD
HETATM   26  N5  UNL     1      27.314  47.447   7.068  1.00  0.00    -0.081 NA
ENDBRANCH   4  22
BRANCH   5  27
HETATM   27  C9  UNL     1      29.510  45.867   9.427  1.00  0.00     0.284 C 
HETATM   28  N6  UNL     1      28.682  45.472  10.478  1.00  0.00    -0.056 NA
HETATM   29  O1  UNL     1      29.891  44.882   8.679  1.00  0.00    -0.269 OA
ENDBRANCH   5  27
TORSDOF 5
ENDMDL
MODEL 2
REMARK VINA RESULT: -7.017328062      6.904     10.036
REMARK  5 active torsions:
REMARK  status: ('A' for Active; 'I' for Inactive)
REMARK    1  A    between atoms: S1_2  and  C2_3 
REMARK    2  A    between atoms: C3_6  and  N2_7 
REMARK    3  A    between atoms: C4_10  and  C5_11 
REMARK    4  A    between atoms: C6_14  and  C7_15 
REMARK    5  A    between atoms: C8_20  and  C9_21 
ROOT
HETATM    1  C5  UNL     1      29.409  44.071   3.875  1.00  0.00     0.126 A 
HETATM    2  N3  UNL     1      30.127  44.513   4.891  1.00  0.00    -0.337 N 
ATOM      3  H3  UNL     1      31.121  44.323   5.021  1.00  0.00     0.167 HD
HETATM    4  C6  UNL     1      29.346  45.277   5.768  1.00  0.00     0.107 A 
HETATM    5  C8  UNL     1      28.105  45.266   5.206  1.00  0.00     0.131 A 
HETATM    6  N7  UNL     1      28.160  44.515   4.039  1.00  0.00    -0.331 N 
HETATM    7  C10 UNL     1      27.004  44.303   3.192  1.00  0.00     0.158 C 
ENDROOT
BRANCH   1   8
HETATM    8  C4  UNL     1      29.897  43.239   2.765  1.00  0.00     0.093 A 
HETATM    9  C3  UNL     1      30.294  43.778   1.558  1.00  0.00     0.118 A 
HETATM   10  N1  UNL     1      30.741  43.015   0.545  1.00  0.00    -0.322 N 
HETATM   11  C2  UNL     1      30.796  41.686   0.729  1.00  0.00     0.146 A 
ATOM     12  H1  UNL     1      31.029  43.434  -0.339  1.00  0.00     0.169 HD
HETATM   13  N9  UNL     1      30.420  41.133   1.884  1.00  0.00    -0.324 N 
HETATM   14  C11 UNL     1      29.969  41.873   2.915  1.00  0.00     0.136 A 
ATOM     15  H9  UNL     1      30.476  40.121   1.989  1.00  0.00     0.169 HD
HETATM   16  N8  UNL     1      29.581  41.223   4.129  1.00  0.00    -0.082 NA
BRANCH   9  17
HETATM   17  N2  UNL     1      30.241  45.069   1.377  1.00  0.00    -0.385 N 
ATOM     18  H22 UNL     1      29.357  45.562   1.509  1.00  0.00     0.157 HD
ATOM     19  H21 UNL     1      31.097  45.552   1.103  1.00  0.00     0.157 HD
ENDBRANCH   9  17
BRANCH  11  20
HETATM   20  S1  UNL     1      31.386  40.665  -0.608  1.00  0.00    -0.098 SA
HETATM   21  C1  UNL     1      30.754  38.992  -0.349  1.00  0.00     0.099 C 
ENDBRANCH  11  20
ENDBRANCH   1   8
BRANCH   4  22
HETATM   22  C7  UNL     1      29.902  45.850   6.967  1.00  0.00     0.139 C 
HETATM   23  N4  UNL     1      29.662  45.221   8.096  1.00  0.00    -0.386 N 
ATOM     24  H42 UNL     1      29.112  44.367   7.993  1.00  0.00     0.157 HD
ATOM     25  H41 UNL     1      30.056  45.626   8.944  1.00  0.00     0.157 HD
HETATM   26  N5  UNL     1      30.647  47.007   7.107  1.00  0.00    -0.081 NA
ENDBRANCH   4  22
BRANCH   5  27
HETATM   27  C9  UNL     1      26.900  45.943   5.647  1.00  0.00     0.284 C 
HETATM   28  N6  UNL     1      25.923  45.478   6.527  1.00  0.00    -0.056 NA
HETATM   29  O1  UNL     1      26.659  47.132   5.199  1.00  0.00    -0.269 OA
ENDBRANCH   5  27
TORSDOF 5
ENDMDL
MODEL 3
REMARK VINA RESULT: -6.980863626      8.064     11.091
REMARK  5 active torsions:
REMARK  status: ('A' for Active; 'I' for Inactive)
REMARK    1  A    between atoms: S1_2  and  C2_3 
REMARK    2  A    between atoms: C3_6  and  N2_7 
REMARK    3  A    between atoms: C4_10  and  C5_11 
REMARK    4  A    between atoms: C6_14  and  C7_15 
REMARK    5  A    between atoms: C8_20  and  C9_21 
ROOT
HETATM    1  C5  UNL     1      29.815  43.174   2.781  1.00  0.00     0.126 A 
HETATM    2  N3  UNL     1      30.643  43.998   3.395  1.00  0.00    -0.337 N 
ATOM      3  H3  UNL     1      31.656  43.997   3.269  1.00  0.00     0.167 HD
HETATM    4  C6  UNL     1      29.952  44.875   4.241  1.00  0.00     0.107 A 
HETATM    5  C8  UNL     1      28.645  44.521   4.091  1.00  0.00     0.131 A 
HETATM    6  N7  UNL     1      28.577  43.468   3.188  1.00  0.00    -0.331 N 
HETATM    7  C10 UNL     1      27.325  42.850   2.802  1.00  0.00     0.158 C 
ENDROOT
BRANCH   1   8
HETATM    8  C4  UNL     1      30.188  42.122   1.824  1.00  0.00     0.093 A 
HETATM    9  C3  UNL     1      30.432  40.821   2.214  1.00  0.00     0.118 A 
HETATM   10  N1  UNL     1      30.773  39.861   1.336  1.00  0.00    -0.322 N 
HETATM   11  C2  UNL     1      30.875  40.196   0.040  1.00  0.00     0.146 A 
ATOM     12  H1  UNL     1      30.949  38.906   1.646  1.00  0.00     0.169 HD
HETATM   13  N9  UNL     1      30.646  41.444  -0.371  1.00  0.00    -0.324 N 
HETATM   14  C11 UNL     1      30.303  42.425   0.486  1.00  0.00     0.136 A 
ATOM     15  H9  UNL     1      30.732  41.662  -1.363  1.00  0.00     0.169 HD
HETATM   16  N8  UNL     1      30.069  43.745  -0.014  1.00  0.00    -0.082 NA
BRANCH   9  17
HETATM   17  N2  UNL     1      30.334  40.493   3.474  1.00  0.00    -0.385 N 
ATOM     18  H22 UNL     1      29.816  41.096   4.114  1.00  0.00     0.157 HD
ATOM     19  H21 UNL     1      30.785  39.632   3.783  1.00  0.00     0.157 HD
ENDBRANCH   9  17
BRANCH  11  20
HETATM   20  S1  UNL     1      31.327  38.930  -1.133  1.00  0.00    -0.098 SA
HETATM   21  C1  UNL     1      30.552  37.384  -0.606  1.00  0.00     0.099 C 
ENDBRANCH  11  20
ENDBRANCH   1   8
BRANCH   4  22
HETATM   22  C7  UNL     1      30.644  45.856   5.037  1.00  0.00     0.139 C 
HETATM   23  N4  UNL     1      30.773  47.058   4.523  1.00  0.00    -0.386 N 
ATOM     24  H42 UNL     1      30.343  47.172   3.604  1.00  0.00     0.157 HD
ATOM     25  H41 UNL     1      31.262  47.752   5.087  1.00  0.00     0.157 HD
HETATM   26  N5  UNL     1      31.226  45.702   6.281  1.00  0.00    -0.081 NA
ENDBRANCH   4  22
BRANCH   5  27
HETATM   27  C9  UNL     1      27.465  45.124   4.682  1.00  0.00     0.284 C 
HETATM   28  N6  UNL     1      26.725  44.678   5.777  1.00  0.00    -0.056 NA
HETATM   29  O1  UNL     1      27.005  46.218   4.166  1.00  0.00    -0.269 OA
ENDBRANCH   5  27
TORSDOF 5
ENDMDL
MODEL 4
REMARK VINA RESULT: -6.941474254      3.659      5.652
REMARK  5 active torsions:
REMARK  status: ('A' for Active; 'I' for Inactive)
REMARK    1  A    between atoms: S1_2  and  C2_3 
REMARK    2  A    between atoms: C3_6  and  N2_7 
REMARK    3  A    between atoms: C4_10  and  C5_11 
REMARK    4  A    between atoms: C6_14  and  C7_15 
REMARK    5  A    between atoms: C8_20  and  C9_21 
ROOT
HETATM    1  C5  UNL     1      29.320  46.341   6.035  1.00  0.00     0.126 A 
HETATM    2  N3  UNL     1      30.183  45.581   5.388  1.00  0.00    -0.337 N 
ATOM      3  H3  UNL     1      31.182  45.540   5.592  1.00  0.00     0.167 HD
HETATM    4  C6  UNL     1      29.550  44.837   4.384  1.00  0.00     0.107 A 
HETATM    5  C8  UNL     1      28.240  45.204   4.474  1.00  0.00     0.131 A 
HETATM    6  N7  UNL     1      28.115  46.134   5.498  1.00  0.00    -0.331 N 
HETATM    7  C10 UNL     1      26.846  46.730   5.860  1.00  0.00     0.158 C 
ENDROOT
BRANCH   1   8
HETATM    8  C4  UNL     1      29.630  47.252   7.148  1.00  0.00     0.093 A 
HETATM    9  C3  UNL     1      29.761  48.615   6.972  1.00  0.00     0.118 A 
HETATM   10  N1  UNL     1      30.044  49.445   7.991  1.00  0.00    -0.322 N 
HETATM   11  C2  UNL     1      30.203  48.916   9.214  1.00  0.00     0.146 A 
ATOM     12  H1  UNL     1      30.137  50.449   7.838  1.00  0.00     0.169 HD
HETATM   13  N9  UNL     1      30.083  47.603   9.419  1.00  0.00    -0.324 N 
HETATM   14  C11 UNL     1      29.800  46.747   8.417  1.00  0.00     0.136 A 
ATOM     15  H9  UNL     1      30.209  47.235  10.361  1.00  0.00     0.169 HD
HETATM   16  N8  UNL     1      29.683  45.349   8.698  1.00  0.00    -0.082 NA
BRANCH   9  17
HETATM   17  N2  UNL     1      29.608  49.132   5.783  1.00  0.00    -0.385 N 
ATOM     18  H22 UNL     1      30.405  49.185   5.148  1.00  0.00     0.157 HD
ATOM     19  H21 UNL     1      28.682  49.472   5.523  1.00  0.00     0.157 HD
ENDBRANCH   9  17
BRANCH  11  20
HETATM   20  S1  UNL     1      30.579  50.008  10.572  1.00  0.00    -0.098 SA
HETATM   21  C1  UNL     1      30.373  49.075  12.108  1.00  0.00     0.099 C 
ENDBRANCH  11  20
ENDBRANCH   1   8
BRANCH   4  22
HETATM   22  C7  UNL     1      30.289  43.949   3.524  1.00  0.00     0.139 C 
HETATM   23  N4  UNL     1      31.036  44.503   2.595  1.00  0.00    -0.386 N 
ATOM     24  H42 UNL     1      31.024  45.524   2.598  1.00  0.00     0.157 HD
ATOM     25  H41 UNL     1      31.559  43.875   1.987  1.00  0.00     0.157 HD
HETATM   26  N5  UNL     1      30.305  42.567   3.519  1.00  0.00    -0.081 NA
ENDBRANCH   4  22
BRANCH   5  27
HETATM   27  C9  UNL     1      27.104  44.711   3.719  1.00  0.00     0.284 C 
HETATM   28  N6  UNL     1      26.274  43.630   4.016  1.00  0.00    -0.056 NA
HETATM   29  O1  UNL     1      26.775  45.322   2.626  1.00  0.00    -0.269 OA
ENDBRANCH   5  27
TORSDOF 5
ENDMDL
MODEL 5
REMARK VINA RESULT: -6.922984672      8.827     11.611
REMARK  5 active torsions:
REMARK  status: ('A' for Active; 'I' for Inactive)
REMARK    1  A    between atoms: S1_2  and  C2_3 
REMARK    2  A    between atoms: C3_6  and  N2_7 
REMARK    3  A    between atoms: C4_10  and  C5_11 
REMARK    4  A    between atoms: C6_14  and  C7_15 
REMARK    5  A    between atoms: C8_20  and  C9_21 
ROOT
HETATM    1  C5  UNL     1      30.126  42.668   1.912  1.00  0.00     0.126 A 
HETATM    2  N3  UNL     1      30.712  43.440   2.809  1.00  0.00    -0.337 N 
ATOM      3  H3  UNL     1      31.721  43.488   2.957  1.00  0.00     0.167 HD
HETATM    4  C6  UNL     1      29.770  44.186   3.529  1.00  0.00     0.107 A 
HETATM    5  C8  UNL     1      28.572  43.808   3.001  1.00  0.00     0.131 A 
HETATM    6  N7  UNL     1      28.809  42.870   2.004  1.00  0.00    -0.331 N 
HETATM    7  C10 UNL     1      27.743  42.262   1.236  1.00  0.00     0.158 C 
ENDROOT
BRANCH   1   8
HETATM    8  C4  UNL     1      30.802  41.752   0.981  1.00  0.00     0.093 A 
HETATM    9  C3  UNL     1      31.104  40.448   1.317  1.00  0.00     0.118 A 
HETATM   10  N1  UNL     1      31.721  39.613   0.463  1.00  0.00    -0.322 N 
HETATM   11  C2  UNL     1      32.049  40.078  -0.752  1.00  0.00     0.146 A 
ATOM     12  H1  UNL     1      31.935  38.653   0.733  1.00  0.00     0.169 HD
HETATM   13  N9  UNL     1      31.772  41.333  -1.109  1.00  0.00    -0.324 N 
HETATM   14  C11 UNL     1      31.154  42.192  -0.275  1.00  0.00     0.136 A 
ATOM     15  H9  UNL     1      32.035  41.653  -2.041  1.00  0.00     0.169 HD
HETATM   16  N8  UNL     1      30.883  43.526  -0.714  1.00  0.00    -0.082 NA
BRANCH   9  17
HETATM   17  N2  UNL     1      30.786  39.994   2.499  1.00  0.00    -0.385 N 
ATOM     18  H22 UNL     1      30.147  39.203   2.582  1.00  0.00     0.157 HD
ATOM     19  H21 UNL     1      31.194  40.452   3.315  1.00  0.00     0.157 HD
ENDBRANCH   9  17
BRANCH  11  20
HETATM   20  S1  UNL     1      32.869  38.978  -1.892  1.00  0.00    -0.098 SA
HETATM   21  C1  UNL     1      34.647  39.084  -1.582  1.00  0.00     0.099 C 
ENDBRANCH  11  20
ENDBRANCH   1   8
BRANCH   4  22
HETATM   22  C7  UNL     1      30.167  45.086   4.582  1.00  0.00     0.139 C 
HETATM   23  N4  UNL     1      30.405  46.333   4.241  1.00  0.00    -0.386 N 
ATOM     24  H42 UNL     1      30.262  46.534   3.251  1.00  0.00     0.157 HD
ATOM     25  H41 UNL     1      30.686  46.970   4.986  1.00  0.00     0.157 HD
HETATM   26  N5  UNL     1      30.361  44.814   5.923  1.00  0.00    -0.081 NA
ENDBRANCH   4  22
BRANCH   5  27
HETATM   27  C9  UNL     1      27.244  44.297   3.318  1.00  0.00     0.284 C 
HETATM   28  N6  UNL     1      26.312  43.751   4.202  1.00  0.00    -0.056 NA
HETATM   29  O1  UNL     1      26.825  45.375   2.738  1.00  0.00    -0.269 OA
ENDBRANCH   5  27
TORSDOF 5
ENDMDL
