MODEL 1
REMARK VINA RESULT: -7.571902744      0.000      0.000
REMARK  5 active torsions:
REMARK  status: ('A' for Active; 'I' for Inactive)
REMARK    1  A    between atoms: N1_1  and  C1_4 
REMARK    2  A    between atoms: C2_7  and  C3_8 
REMARK    3  A    between atoms: C4_12  and  C5_13 
REMARK    4  A    between atoms: N4_19  and  O3_21 
REMARK    5  A    between atoms: C8_23  and  N5_24 
ROOT
HETATM    1  C1  UNL     1      32.060  50.785   9.800  1.00  0.00     0.679 A 
HETATM    2  N2  UNL     1      31.166  49.823   9.618  1.00  0.00    -0.191 N 
ATOM      3  H2  UNL     1      30.315  49.859  10.178  1.00  0.00     0.184 HD
HETATM    4  C2  UNL     1      31.300  48.781   8.731  1.00  0.00     0.102 A 
HETATM    5  C8  UNL     1      32.446  48.772   8.004  1.00  0.00     0.196 A 
HETATM    6  C9  UNL     1      33.391  49.801   8.207  1.00  0.00     0.294 A 
HETATM    7  O6  UNL     1      34.466  49.795   7.528  1.00  0.00    -0.265 OA
HETATM    8  N6  UNL     1      33.189  50.772   9.082  1.00  0.00    -0.154 N 
ATOM      9  H6  UNL     1      33.888  51.504   9.209  1.00  0.00     0.187 HD
ENDROOT
BRANCH   4  10
HETATM   10  C3  UNL     1      30.244  47.789   8.642  1.00  0.00     0.297 C 
HETATM   11  N3  UNL     1      29.547  47.535   9.875  1.00  0.00    -0.044 N 
HETATM   12  C4  UNL     1      29.055  46.134   9.882  1.00  0.00     0.296 C 
ATOM     13  H32 UNL     1      30.118  47.747  10.693  1.00  0.00     0.279 HD
ATOM     14  H31 UNL     1      28.799  48.208  10.042  1.00  0.00     0.279 HD
HETATM   15  C6  UNL     1      27.694  46.100   9.198  1.00  0.00     0.125 C 
HETATM   16  S1  UNL     1      27.558  47.536   8.070  1.00  0.00    -0.110 SA
HETATM   17  C7  UNL     1      29.273  47.885   7.549  1.00  0.00     0.105 C 
HETATM   18  N4  UNL     1      29.539  48.145   6.316  1.00  0.00    -0.264 N 
ATOM     19  H4  UNL     1      30.497  48.308   6.007  1.00  0.00     0.194 HD
BRANCH  12  20
HETATM   20  C5  UNL     1      28.997  45.629  11.269  1.00  0.00     0.205 C 
HETATM   21  O1  UNL     1      28.704  44.440  11.524  1.00  0.00    -0.646 OA
HETATM   22  O2  UNL     1      29.267  46.465  12.338  1.00  0.00    -0.646 OA
ENDBRANCH  12  20
BRANCH  18  23
HETATM   23  O3  UNL     1      28.493  48.195   5.430  1.00  0.00    -0.289 OA
ATOM     24  H3  UNL     1      28.143  47.372   5.107  1.00  0.00     0.244 HD
ENDBRANCH  18  23
ENDBRANCH   4  10
BRANCH   5  25
HETATM   25  N5  UNL     1      32.763  47.809   7.019  1.00  0.00    -0.108 N 
HETATM   26  O4  UNL     1      32.303  47.887   5.888  1.00  0.00    -0.532 OA
HETATM   27  O5  UNL     1      33.616  46.798   7.330  1.00  0.00    -0.532 OA
ENDBRANCH   5  25
BRANCH   1  28
HETATM   28  N1  UNL     1      31.835  51.737  10.677  1.00  0.00    -0.234 N 
ATOM     29  H12 UNL     1      32.399  51.805  11.524  1.00  0.00     0.174 HD
ATOM     30  H11 UNL     1      31.092  52.417  10.516  1.00  0.00     0.174 HD
ENDBRANCH   1  28
TORSDOF 5
ENDMDL
MODEL 2
REMARK VINA RESULT: -7.428322902      2.056      4.667
REMARK  5 active torsions:
REMARK  status: ('A' for Active; 'I' for Inactive)
REMARK    1  A    between atoms: N1_1  and  C1_4 
REMARK    2  A    between atoms: C2_7  and  C3_8 
REMARK    3  A    between atoms: C4_12  and  C5_13 
REMARK    4  A    between atoms: N4_19  and  O3_21 
REMARK    5  A    between atoms: C8_23  and  N5_24 
ROOT
HETATM    1  C1  UNL     1      30.390  49.722  11.047  1.00  0.00     0.679 A 
HETATM    2  N2  UNL     1      30.453  49.334   9.782  1.00  0.00    -0.191 N 
ATOM      3  H2  UNL     1      30.825  49.999   9.103  1.00  0.00     0.184 HD
HETATM    4  C2  UNL     1      30.057  48.103   9.314  1.00  0.00     0.102 A 
HETATM    5  C8  UNL     1      29.571  47.249  10.250  1.00  0.00     0.196 A 
HETATM    6  C9  UNL     1      29.507  47.673  11.595  1.00  0.00     0.294 A 
HETATM    7  O6  UNL     1      29.052  46.875  12.474  1.00  0.00    -0.265 OA
HETATM    8  N6  UNL     1      29.909  48.877  11.967  1.00  0.00    -0.154 N 
ATOM      9  H6  UNL     1      29.852  49.159  12.945  1.00  0.00     0.187 HD
ENDROOT
BRANCH   4  10
HETATM   10  C3  UNL     1      30.174  47.815   7.896  1.00  0.00     0.297 C 
HETATM   11  N3  UNL     1      31.221  46.890   7.551  1.00  0.00    -0.044 N 
HETATM   12  C4  UNL     1      31.713  47.194   6.183  1.00  0.00     0.296 C 
ATOM     13  H32 UNL     1      31.973  46.884   8.239  1.00  0.00     0.279 HD
ATOM     14  H31 UNL     1      30.927  45.919   7.649  1.00  0.00     0.279 HD
HETATM   15  C6  UNL     1      30.836  46.451   5.183  1.00  0.00     0.125 C 
HETATM   16  S1  UNL     1      29.208  46.117   5.950  1.00  0.00    -0.110 SA
HETATM   17  C7  UNL     1      28.964  47.478   7.142  1.00  0.00     0.105 C 
HETATM   18  N4  UNL     1      27.823  48.069   7.231  1.00  0.00    -0.264 N 
ATOM     19  H4  UNL     1      27.684  48.852   7.868  1.00  0.00     0.194 HD
BRANCH  12  20
HETATM   20  C5  UNL     1      33.136  46.819   6.067  1.00  0.00     0.205 C 
HETATM   21  O1  UNL     1      33.555  46.107   5.126  1.00  0.00    -0.646 OA
HETATM   22  O2  UNL     1      34.060  47.245   7.005  1.00  0.00    -0.646 OA
ENDBRANCH  12  20
BRANCH  18  23
HETATM   23  O3  UNL     1      26.799  47.611   6.440  1.00  0.00    -0.289 OA
ATOM     24  H3  UNL     1      26.042  48.173   6.322  1.00  0.00     0.244 HD
ENDBRANCH  18  23
ENDBRANCH   4  10
BRANCH   5  25
HETATM   25  N5  UNL     1      29.141  45.929   9.984  1.00  0.00    -0.108 N 
HETATM   26  O4  UNL     1      29.917  44.985  10.052  1.00  0.00    -0.532 OA
HETATM   27  O5  UNL     1      27.837  45.706   9.674  1.00  0.00    -0.532 OA
ENDBRANCH   5  25
BRANCH   1  28
HETATM   28  N1  UNL     1      30.794  50.924  11.390  1.00  0.00    -0.234 N 
ATOM     29  H12 UNL     1      30.121  51.678  11.526  1.00  0.00     0.174 HD
ATOM     30  H11 UNL     1      31.788  51.113  11.522  1.00  0.00     0.174 HD
ENDBRANCH   1  28
TORSDOF 5
ENDMDL
MODEL 3
REMARK VINA RESULT: -7.412859891      5.229      7.379
REMARK  5 active torsions:
REMARK  status: ('A' for Active; 'I' for Inactive)
REMARK    1  A    between atoms: N1_1  and  C1_4 
REMARK    2  A    between atoms: C2_7  and  C3_8 
REMARK    3  A    between atoms: C4_12  and  C5_13 
REMARK    4  A    between atoms: N4_19  and  O3_21 
REMARK    5  A    between atoms: C8_23  and  N5_24 
ROOT
HETATM    1  C1  UNL     1      28.945  45.592   7.825  1.00  0.00     0.679 A 
HETATM    2  N2  UNL     1      29.604  45.126   6.774  1.00  0.00    -0.191 N 
ATOM      3  H2  UNL     1      30.602  44.947   6.886  1.00  0.00     0.184 HD
HETATM    4  C2  UNL     1      29.045  44.864   5.546  1.00  0.00     0.102 A 
HETATM    5  C8  UNL     1      27.715  45.114   5.441  1.00  0.00     0.196 A 
HETATM    6  C9  UNL     1      27.023  45.611   6.567  1.00  0.00     0.294 A 
HETATM    7  O6  UNL     1      25.777  45.847   6.471  1.00  0.00    -0.265 OA
HETATM    8  N6  UNL     1      27.634  45.838   7.718  1.00  0.00    -0.154 N 
ATOM      9  H6  UNL     1      27.111  46.198   8.516  1.00  0.00     0.187 HD
ENDROOT
BRANCH   4  10
HETATM   10  C3  UNL     1      29.890  44.363   4.477  1.00  0.00     0.297 C 
HETATM   11  N3  UNL     1      29.301  43.321   3.677  1.00  0.00    -0.044 N 
HETATM   12  C4  UNL     1      30.374  42.440   3.153  1.00  0.00     0.296 C 
ATOM     13  H32 UNL     1      28.588  42.801   4.187  1.00  0.00     0.279 HD
ATOM     14  H31 UNL     1      28.708  43.692   2.935  1.00  0.00     0.279 HD
HETATM   15  C6  UNL     1      30.892  43.037   1.851  1.00  0.00     0.125 C 
HETATM   16  S1  UNL     1      30.546  44.834   1.840  1.00  0.00    -0.110 SA
HETATM   17  C7  UNL     1      30.563  45.324   3.599  1.00  0.00     0.105 C 
HETATM   18  N4  UNL     1      31.162  46.403   3.969  1.00  0.00    -0.264 N 
ATOM     19  H4  UNL     1      31.207  46.669   4.952  1.00  0.00     0.194 HD
BRANCH  12  20
HETATM   20  C5  UNL     1      29.854  41.069   2.973  1.00  0.00     0.205 C 
HETATM   21  O1  UNL     1      30.464  40.218   2.288  1.00  0.00    -0.646 OA
HETATM   22  O2  UNL     1      28.662  40.681   3.560  1.00  0.00    -0.646 OA
ENDBRANCH  12  20
BRANCH  18  23
HETATM   23  O3  UNL     1      31.737  47.183   2.998  1.00  0.00    -0.289 OA
ATOM     24  H3  UNL     1      32.311  47.887   3.276  1.00  0.00     0.244 HD
ENDBRANCH  18  23
ENDBRANCH   4  10
BRANCH   5  25
HETATM   25  N5  UNL     1      26.945  44.884   4.278  1.00  0.00    -0.108 N 
HETATM   26  O4  UNL     1      26.913  45.703   3.369  1.00  0.00    -0.532 OA
HETATM   27  O5  UNL     1      26.254  43.720   4.159  1.00  0.00    -0.532 OA
ENDBRANCH   5  25
BRANCH   1  28
HETATM   28  N1  UNL     1      29.575  45.811   8.957  1.00  0.00    -0.234 N 
ATOM     29  H12 UNL     1      29.780  45.041   9.594  1.00  0.00     0.174 HD
ATOM     30  H11 UNL     1      29.866  46.756   9.208  1.00  0.00     0.174 HD
ENDBRANCH   1  28
TORSDOF 5
ENDMDL
MODEL 4
REMARK VINA RESULT: -7.387337721      2.872      5.193
REMARK  5 active torsions:
REMARK  status: ('A' for Active; 'I' for Inactive)
REMARK    1  A    between atoms: N1_1  and  C1_4 
REMARK    2  A    between atoms: C2_7  and  C3_8 
REMARK    3  A    between atoms: C4_12  and  C5_13 
REMARK    4  A    between atoms: N4_19  and  O3_21 
REMARK    5  A    between atoms: C8_23  and  N5_24 
ROOT
HETATM    1  C1  UNL     1      28.970  45.296  11.589  1.00  0.00     0.679 A 
HETATM    2  N2  UNL     1      28.806  45.425  10.280  1.00  0.00    -0.191 N 
ATOM      3  H2  UNL     1      28.427  44.625   9.772  1.00  0.00     0.184 HD
HETATM    4  C2  UNL     1      29.107  46.553   9.555  1.00  0.00     0.102 A 
HETATM    5  C8  UNL     1      29.607  47.594  10.270  1.00  0.00     0.196 A 
HETATM    6  C9  UNL     1      29.778  47.445  11.663  1.00  0.00     0.294 A 
HETATM    7  O6  UNL     1      30.247  48.418  12.334  1.00  0.00    -0.265 OA
HETATM    8  N6  UNL     1      29.464  46.324  12.290  1.00  0.00    -0.154 N 
ATOM      9  H6  UNL     1      29.598  46.243  13.297  1.00  0.00     0.187 HD
ENDROOT
BRANCH   4  10
HETATM   10  C3  UNL     1      28.885  46.552   8.120  1.00  0.00     0.297 C 
HETATM   11  N3  UNL     1      29.950  45.973   7.344  1.00  0.00    -0.044 N 
HETATM   12  C4  UNL     1      29.990  46.616   6.008  1.00  0.00     0.296 C 
ATOM     13  H32 UNL     1      30.849  46.023   7.824  1.00  0.00     0.279 HD
ATOM     14  H31 UNL     1      29.875  44.958   7.283  1.00  0.00     0.279 HD
HETATM   15  C6  UNL     1      29.025  45.876   5.090  1.00  0.00     0.125 C 
HETATM   16  S1  UNL     1      27.754  45.041   6.110  1.00  0.00    -0.110 SA
HETATM   17  C7  UNL     1      27.599  46.079   7.604  1.00  0.00     0.105 C 
HETATM   18  N4  UNL     1      26.436  46.361   8.082  1.00  0.00    -0.264 N 
ATOM     19  H4  UNL     1      26.335  46.967   8.896  1.00  0.00     0.194 HD
BRANCH  12  20
HETATM   20  C5  UNL     1      31.372  46.610   5.488  1.00  0.00     0.205 C 
HETATM   21  O1  UNL     1      32.271  45.918   6.016  1.00  0.00    -0.646 OA
HETATM   22  O2  UNL     1      31.719  47.380   4.392  1.00  0.00    -0.646 OA
ENDBRANCH  12  20
BRANCH  18  23
HETATM   23  O3  UNL     1      25.338  45.821   7.462  1.00  0.00    -0.289 OA
ATOM     24  H3  UNL     1      25.403  44.930   7.139  1.00  0.00     0.244 HD
ENDBRANCH  18  23
ENDBRANCH   4  10
BRANCH   5  25
HETATM   25  N5  UNL     1      29.950  48.850   9.722  1.00  0.00    -0.108 N 
HETATM   26  O4  UNL     1      29.111  49.731   9.585  1.00  0.00    -0.532 OA
HETATM   27  O5  UNL     1      31.240  49.090   9.367  1.00  0.00    -0.532 OA
ENDBRANCH   5  25
BRANCH   1  28
HETATM   28  N1  UNL     1      28.652  44.171  12.187  1.00  0.00    -0.234 N 
ATOM     29  H12 UNL     1      28.040  43.495  11.730  1.00  0.00     0.174 HD
ATOM     30  H11 UNL     1      29.015  43.964  13.118  1.00  0.00     0.174 HD
ENDBRANCH   1  28
TORSDOF 5
ENDMDL
MODEL 5
REMARK VINA RESULT: -7.381971037      2.625      4.446
REMARK  5 active torsions:
REMARK  status: ('A' for Active; 'I' for Inactive)
REMARK    1  A    between atoms: N1_1  and  C1_4 
REMARK    2  A    between atoms: C2_7  and  C3_8 
REMARK    3  A    between atoms: C4_12  and  C5_13 
REMARK    4  A    between atoms: N4_19  and  O3_21 
REMARK    5  A    between atoms: C8_23  and  N5_24 
ROOT
HETATM    1  C1  UNL     1      28.914  48.387  10.486  1.00  0.00     0.679 A 
HETATM    2  N2  UNL     1      29.320  48.020   9.279  1.00  0.00    -0.191 N 
ATOM      3  H2  UNL     1      28.780  47.301   8.798  1.00  0.00     0.184 HD
HETATM    4  C2  UNL     1      30.415  48.536   8.626  1.00  0.00     0.102 A 
HETATM    5  C8  UNL     1      31.104  49.491   9.300  1.00  0.00     0.196 A 
HETATM    6  C9  UNL     1      30.662  49.874  10.585  1.00  0.00     0.294 A 
HETATM    7  O6  UNL     1      31.306  50.768  11.219  1.00  0.00    -0.265 OA
HETATM    8  N6  UNL     1      29.597  49.329  11.148  1.00  0.00    -0.154 N 
ATOM      9  H6  UNL     1      29.298  49.623  12.077  1.00  0.00     0.187 HD
ENDROOT
BRANCH   4  10
HETATM   10  C3  UNL     1      30.752  48.033   7.307  1.00  0.00     0.297 C 
HETATM   11  N3  UNL     1      31.849  47.101   7.277  1.00  0.00    -0.044 N 
HETATM   12  C4  UNL     1      32.544  47.203   5.970  1.00  0.00     0.296 C 
ATOM     13  H32 UNL     1      32.485  47.228   8.064  1.00  0.00     0.279 HD
ATOM     14  H31 UNL     1      31.552  46.148   7.483  1.00  0.00     0.279 HD
HETATM   15  C6  UNL     1      31.841  46.283   4.979  1.00  0.00     0.125 C 
HETATM   16  S1  UNL     1      30.116  46.019   5.534  1.00  0.00    -0.110 SA
HETATM   17  C7  UNL     1      29.677  47.541   6.441  1.00  0.00     0.105 C 
HETATM   18  N4  UNL     1      28.531  48.100   6.260  1.00  0.00    -0.264 N 
ATOM     19  H4  UNL     1      28.288  48.969   6.735  1.00  0.00     0.194 HD
BRANCH  12  20
HETATM   20  C5  UNL     1      33.972  46.862   6.132  1.00  0.00     0.205 C 
HETATM   21  O1  UNL     1      34.392  45.694   5.976  1.00  0.00    -0.646 OA
HETATM   22  O2  UNL     1      34.898  47.835   6.468  1.00  0.00    -0.646 OA
ENDBRANCH  12  20
BRANCH  18  23
HETATM   23  O3  UNL     1      27.647  47.489   5.407  1.00  0.00    -0.289 OA
ATOM     24  H3  UNL     1      27.806  46.581   5.177  1.00  0.00     0.244 HD
ENDBRANCH  18  23
ENDBRANCH   4  10
BRANCH   5  25
HETATM   25  N5  UNL     1      32.237  50.169   8.795  1.00  0.00    -0.108 N 
HETATM   26  O4  UNL     1      32.138  51.283   8.296  1.00  0.00    -0.532 OA
HETATM   27  O5  UNL     1      33.459  49.582   8.891  1.00  0.00    -0.532 OA
ENDBRANCH   5  25
BRANCH   1  28
HETATM   28  N1  UNL     1      27.852  47.829  11.023  1.00  0.00    -0.234 N 
ATOM     29  H12 UNL     1      27.475  48.174  11.905  1.00  0.00     0.174 HD
ATOM     30  H11 UNL     1      27.397  47.042  10.560  1.00  0.00     0.174 HD
ENDBRANCH   1  28
TORSDOF 5
ENDMDL
