MODEL 1
REMARK VINA RESULT: -7.164527391      0.000      0.000
REMARK  6 active torsions:
REMARK  status: ('A' for Active; 'I' for Inactive)
REMARK    1  A    between atoms: N1_2  and  N2_3 
REMARK       I    between atoms: N2_3  and  C2_5 
REMARK    2  A    between atoms: C2_5  and  C3_7 
REMARK    3  A    between atoms: N3_11  and  S1_12 
REMARK    4  A    between atoms: S1_12  and  N4_15 
REMARK    5  A    between atoms: N4_15  and  C6_17 
REMARK    6  A    between atoms: C6_17  and  C7_18 
ROOT
HETATM    1  C3  UNL     1      -3.774  -0.809  14.746  1.00  0.00     0.237 C 
HETATM    2  O2  UNL     1      -3.150  -1.600  13.826  1.00  0.00    -0.373 OA
HETATM    3  C4  UNL     1      -2.399  -2.578  14.399  1.00  0.00     0.189 C 
HETATM    4  C5  UNL     1      -3.174  -3.286  15.489  1.00  0.00     0.163 C 
HETATM    5  N3  UNL     1      -4.548  -2.908  15.557  1.00  0.00    -0.285 N 
HETATM    6  C11 UNL     1      -4.722  -1.527  15.678  1.00  0.00     0.131 C 
HETATM    7  C12 UNL     1      -6.127  -1.039  15.379  1.00  0.00     0.036 C 
ENDROOT
BRANCH   5   8
HETATM    8  S1  UNL     1      -5.564  -3.829  14.602  1.00  0.00     0.317 S 
HETATM    9  O3  UNL     1      -4.967  -5.228  14.479  1.00  0.00    -0.183 OA
HETATM   10  O4  UNL     1      -5.810  -3.367  13.222  1.00  0.00    -0.183 OA
BRANCH   8  11
HETATM   11  N4  UNL     1      -7.127  -4.090  15.354  1.00  0.00    -0.300 N 
ATOM     12  H4  UNL     1      -7.316  -4.282  16.338  1.00  0.00     0.173 HD
BRANCH  11  13
HETATM   13  C6  UNL     1      -8.098  -3.975  14.271  1.00  0.00     0.165 C 
BRANCH  13  14
HETATM   14  C7  UNL     1      -9.438  -4.550  14.609  1.00  0.00     0.140 C 
HETATM   15  C8  UNL     1      -9.365  -5.683  15.590  1.00  0.00     0.035 C 
HETATM   16  C9  UNL     1      -9.327  -6.926  14.766  1.00  0.00     0.029 C 
HETATM   17  C10 UNL     1      -9.652  -6.424  13.388  1.00  0.00     0.168 C 
HETATM   18  O5  UNL     1      -9.986  -5.095  13.473  1.00  0.00    -0.384 OA
ENDBRANCH  13  14
ENDBRANCH  11  13
ENDBRANCH   8  11
ENDBRANCH   5   8
BRANCH   1  19
HETATM   19  C2  UNL     1      -2.858   0.101  15.480  1.00  0.00     0.264 C 
HETATM   20  N2  UNL     1      -2.025   1.054  14.839  1.00  0.00    -0.272 N 
ATOM     21  H2  UNL     1      -2.053   1.120  13.822  1.00  0.00     0.185 HD
HETATM   22  O1  UNL     1      -2.804   0.036  16.729  1.00  0.00    -0.269 OA
BRANCH  20  23
HETATM   23  N1  UNL     1      -1.175   1.898  15.534  1.00  0.00    -0.143 NA
HETATM   24  C1  UNL     1      -0.677   2.987  14.756  1.00  0.00     0.159 C 
ENDBRANCH  20  23
ENDBRANCH   1  19
TORSDOF 6
ENDMDL
MODEL 2
REMARK VINA RESULT: -6.971491235      3.094      5.455
REMARK  6 active torsions:
REMARK  status: ('A' for Active; 'I' for Inactive)
REMARK    1  A    between atoms: N1_2  and  N2_3 
REMARK       I    between atoms: N2_3  and  C2_5 
REMARK    2  A    between atoms: C2_5  and  C3_7 
REMARK    3  A    between atoms: N3_11  and  S1_12 
REMARK    4  A    between atoms: S1_12  and  N4_15 
REMARK    5  A    between atoms: N4_15  and  C6_17 
REMARK    6  A    between atoms: C6_17  and  C7_18 
ROOT
HETATM    1  C3  UNL     1      -3.050  -2.118  14.338  1.00  0.00     0.237 C 
HETATM    2  O2  UNL     1      -2.017  -2.610  15.082  1.00  0.00    -0.373 OA
HETATM    3  C4  UNL     1      -2.206  -2.440  16.417  1.00  0.00     0.189 C 
HETATM    4  C5  UNL     1      -3.599  -2.867  16.825  1.00  0.00     0.163 C 
HETATM    5  N3  UNL     1      -4.334  -3.507  15.782  1.00  0.00    -0.285 N 
HETATM    6  C11 UNL     1      -4.400  -2.736  14.619  1.00  0.00     0.131 C 
HETATM    7  C12 UNL     1      -4.828  -3.499  13.379  1.00  0.00     0.036 C 
ENDROOT
BRANCH   5   8
HETATM    8  S1  UNL     1      -4.132  -5.164  15.714  1.00  0.00     0.317 S 
HETATM    9  O3  UNL     1      -5.389  -5.774  15.102  1.00  0.00    -0.183 OA
HETATM   10  O4  UNL     1      -3.907  -5.879  16.985  1.00  0.00    -0.183 OA
BRANCH   8  11
HETATM   11  N4  UNL     1      -2.846  -5.631  14.616  1.00  0.00    -0.300 N 
ATOM     12  H4  UNL     1      -2.817  -5.500  13.605  1.00  0.00     0.173 HD
BRANCH  11  13
HETATM   13  C6  UNL     1      -1.827  -6.249  15.459  1.00  0.00     0.165 C 
BRANCH  13  14
HETATM   14  C7  UNL     1      -0.482  -6.328  14.806  1.00  0.00     0.140 C 
HETATM   15  C8  UNL     1       0.563  -6.957  15.678  1.00  0.00     0.035 C 
HETATM   16  C9  UNL     1       1.250  -5.823  16.364  1.00  0.00     0.029 C 
HETATM   17  C10 UNL     1       0.726  -4.622  15.629  1.00  0.00     0.168 C 
HETATM   18  O5  UNL     1      -0.030  -5.053  14.566  1.00  0.00    -0.384 OA
ENDBRANCH  13  14
ENDBRANCH  11  13
ENDBRANCH   8  11
ENDBRANCH   5   8
BRANCH   1  19
HETATM   19  C2  UNL     1      -3.116  -0.635  14.304  1.00  0.00     0.264 C 
HETATM   20  N2  UNL     1      -2.030   0.187  13.905  1.00  0.00    -0.272 N 
ATOM     21  H2  UNL     1      -1.157  -0.261  13.626  1.00  0.00     0.185 HD
HETATM   22  O1  UNL     1      -4.177  -0.062  14.644  1.00  0.00    -0.269 OA
BRANCH  20  23
HETATM   23  N1  UNL     1      -2.104   1.569  13.876  1.00  0.00    -0.143 NA
HETATM   24  C1  UNL     1      -1.270   2.214  14.840  1.00  0.00     0.159 C 
ENDBRANCH  20  23
ENDBRANCH   1  19
TORSDOF 6
ENDMDL
MODEL 3
REMARK VINA RESULT: -6.840951741      3.106      4.860
REMARK  6 active torsions:
REMARK  status: ('A' for Active; 'I' for Inactive)
REMARK    1  A    between atoms: N1_2  and  N2_3 
REMARK       I    between atoms: N2_3  and  C2_5 
REMARK    2  A    between atoms: C2_5  and  C3_7 
REMARK    3  A    between atoms: N3_11  and  S1_12 
REMARK    4  A    between atoms: S1_12  and  N4_15 
REMARK    5  A    between atoms: N4_15  and  C6_17 
REMARK    6  A    between atoms: C6_17  and  C7_18 
ROOT
HETATM    1  C3  UNL     1      -2.981  -0.963  15.446  1.00  0.00     0.237 C 
HETATM    2  O2  UNL     1      -3.968  -0.766  16.368  1.00  0.00    -0.373 OA
HETATM    3  C4  UNL     1      -5.207  -0.725  15.809  1.00  0.00     0.189 C 
HETATM    4  C5  UNL     1      -5.402  -1.871  14.841  1.00  0.00     0.163 C 
HETATM    5  N3  UNL     1      -4.341  -2.826  14.858  1.00  0.00    -0.285 N 
HETATM    6  C11 UNL     1      -3.089  -2.243  14.649  1.00  0.00     0.131 C 
HETATM    7  C12 UNL     1      -1.911  -3.123  15.025  1.00  0.00     0.036 C 
ENDROOT
BRANCH   5   8
HETATM    8  S1  UNL     1      -4.547  -4.066  15.959  1.00  0.00     0.317 S 
HETATM    9  O3  UNL     1      -6.043  -4.249  16.199  1.00  0.00    -0.183 OA
HETATM   10  O4  UNL     1      -3.935  -3.907  17.292  1.00  0.00    -0.183 OA
BRANCH   8  11
HETATM   11  N4  UNL     1      -4.020  -5.613  15.322  1.00  0.00    -0.300 N 
ATOM     12  H4  UNL     1      -4.186  -5.987  14.388  1.00  0.00     0.173 HD
BRANCH  11  13
HETATM   13  C6  UNL     1      -3.293  -6.251  16.415  1.00  0.00     0.165 C 
BRANCH  13  14
HETATM   14  C7  UNL     1      -2.428  -7.388  15.971  1.00  0.00     0.140 C 
HETATM   15  C8  UNL     1      -1.339  -7.720  16.949  1.00  0.00     0.035 C 
HETATM   16  C9  UNL     1      -0.139  -6.965  16.485  1.00  0.00     0.029 C 
HETATM   17  C10 UNL     1      -0.557  -6.473  15.128  1.00  0.00     0.168 C 
HETATM   18  O5  UNL     1      -1.775  -7.025  14.817  1.00  0.00    -0.384 OA
ENDBRANCH  13  14
ENDBRANCH  11  13
ENDBRANCH   8  11
ENDBRANCH   5   8
BRANCH   1  19
HETATM   19  C2  UNL     1      -2.726   0.212  14.574  1.00  0.00     0.264 C 
HETATM   20  N2  UNL     1      -1.767   1.214  14.874  1.00  0.00    -0.272 N 
ATOM     21  H2  UNL     1      -1.223   1.126  15.732  1.00  0.00     0.185 HD
HETATM   22  O1  UNL     1      -3.383   0.343  13.516  1.00  0.00    -0.269 OA
BRANCH  20  23
HETATM   23  N1  UNL     1      -1.537   2.305  14.054  1.00  0.00    -0.143 NA
HETATM   24  C1  UNL     1      -0.597   3.241  14.584  1.00  0.00     0.159 C 
ENDBRANCH  20  23
ENDBRANCH   1  19
TORSDOF 6
ENDMDL
MODEL 4
REMARK VINA RESULT: -6.794338500      1.640      2.538
REMARK  6 active torsions:
REMARK  status: ('A' for Active; 'I' for Inactive)
REMARK    1  A    between atoms: N1_2  and  N2_3 
REMARK       I    between atoms: N2_3  and  C2_5 
REMARK    2  A    between atoms: C2_5  and  C3_7 
REMARK    3  A    between atoms: N3_11  and  S1_12 
REMARK    4  A    between atoms: S1_12  and  N4_15 
REMARK    5  A    between atoms: N4_15  and  C6_17 
REMARK    6  A    between atoms: C6_17  and  C7_18 
ROOT
HETATM    1  C3  UNL     1      -3.097  -1.756  15.338  1.00  0.00     0.237 C 
HETATM    2  O2  UNL     1      -3.885  -1.303  16.357  1.00  0.00    -0.373 OA
HETATM    3  C4  UNL     1      -5.143  -0.991  15.947  1.00  0.00     0.189 C 
HETATM    4  C5  UNL     1      -5.719  -2.091  15.082  1.00  0.00     0.163 C 
HETATM    5  N3  UNL     1      -4.911  -3.266  15.031  1.00  0.00    -0.285 N 
HETATM    6  C11 UNL     1      -3.596  -3.000  14.640  1.00  0.00     0.131 C 
HETATM    7  C12 UNL     1      -2.613  -4.119  14.927  1.00  0.00     0.036 C 
ENDROOT
BRANCH   5   8
HETATM    8  S1  UNL     1      -5.251  -4.388  16.223  1.00  0.00     0.317 S 
HETATM    9  O3  UNL     1      -6.546  -3.973  16.915  1.00  0.00    -0.183 OA
HETATM   10  O4  UNL     1      -4.254  -4.570  17.295  1.00  0.00    -0.183 OA
BRANCH   8  11
HETATM   11  N4  UNL     1      -5.603  -5.973  15.561  1.00  0.00    -0.300 N 
ATOM     12  H4  UNL     1      -4.938  -6.714  15.338  1.00  0.00     0.173 HD
BRANCH  11  13
HETATM   13  C6  UNL     1      -7.053  -6.007  15.396  1.00  0.00     0.165 C 
BRANCH  13  14
HETATM   14  C7  UNL     1      -7.509  -5.556  14.043  1.00  0.00     0.140 C 
HETATM   15  C8  UNL     1      -8.443  -4.383  14.094  1.00  0.00     0.035 C 
HETATM   16  C9  UNL     1      -9.818  -4.964  14.079  1.00  0.00     0.029 C 
HETATM   17  C10 UNL     1      -9.567  -6.408  13.749  1.00  0.00     0.168 C 
HETATM   18  O5  UNL     1      -8.234  -6.567  13.460  1.00  0.00    -0.384 OA
ENDBRANCH  13  14
ENDBRANCH  11  13
ENDBRANCH   8  11
ENDBRANCH   5   8
BRANCH   1  19
HETATM   19  C2  UNL     1      -2.695  -0.702  14.372  1.00  0.00     0.264 C 
HETATM   20  N2  UNL     1      -2.160   0.552  14.763  1.00  0.00    -0.272 N 
ATOM     21  H2  UNL     1      -2.043   0.744  15.758  1.00  0.00     0.185 HD
HETATM   22  O1  UNL     1      -2.831  -0.914  13.146  1.00  0.00    -0.269 OA
BRANCH  20  23
HETATM   23  N1  UNL     1      -1.788   1.527  13.853  1.00  0.00    -0.143 NA
HETATM   24  C1  UNL     1      -1.077   2.621  14.434  1.00  0.00     0.159 C 
ENDBRANCH  20  23
ENDBRANCH   1  19
TORSDOF 6
ENDMDL
MODEL 5
REMARK VINA RESULT: -6.765445820      2.751      4.445
REMARK  6 active torsions:
REMARK  status: ('A' for Active; 'I' for Inactive)
REMARK    1  A    between atoms: N1_2  and  N2_3 
REMARK       I    between atoms: N2_3  and  C2_5 
REMARK    2  A    between atoms: C2_5  and  C3_7 
REMARK    3  A    between atoms: N3_11  and  S1_12 
REMARK    4  A    between atoms: S1_12  and  N4_15 
REMARK    5  A    between atoms: N4_15  and  C6_17 
REMARK    6  A    between atoms: C6_17  and  C7_18 
ROOT
HETATM    1  C3  UNL     1      -3.428  -4.798  14.599  1.00  0.00     0.237 C 
HETATM    2  O2  UNL     1      -4.556  -5.549  14.438  1.00  0.00    -0.373 OA
HETATM    3  C4  UNL     1      -5.205  -5.778  15.610  1.00  0.00     0.189 C 
HETATM    4  C5  UNL     1      -5.349  -4.500  16.407  1.00  0.00     0.163 C 
HETATM    5  N3  UNL     1      -4.946  -3.330  15.696  1.00  0.00    -0.285 N 
HETATM    6  C11 UNL     1      -3.646  -3.426  15.193  1.00  0.00     0.131 C 
HETATM    7  C12 UNL     1      -3.302  -2.399  14.131  1.00  0.00     0.036 C 
ENDROOT
BRANCH   5   8
HETATM    8  S1  UNL     1      -6.166  -2.606  14.812  1.00  0.00     0.317 S 
HETATM    9  O3  UNL     1      -6.064  -3.093  13.369  1.00  0.00    -0.183 OA
HETATM   10  O4  UNL     1      -6.182  -1.133  14.747  1.00  0.00    -0.183 OA
BRANCH   8  11
HETATM   11  N4  UNL     1      -7.759  -3.124  15.331  1.00  0.00    -0.300 N 
ATOM     12  H4  UNL     1      -8.215  -2.927  16.222  1.00  0.00     0.173 HD
BRANCH  11  13
HETATM   13  C6  UNL     1      -8.294  -3.898  14.216  1.00  0.00     0.165 C 
BRANCH  13  14
HETATM   14  C7  UNL     1      -9.589  -4.580  14.530  1.00  0.00     0.140 C 
HETATM   15  C8  UNL     1      -9.449  -5.682  15.539  1.00  0.00     0.035 C 
HETATM   16  C9  UNL     1      -9.281  -6.934  14.745  1.00  0.00     0.029 C 
HETATM   17  C10 UNL     1      -9.607  -6.490  13.347  1.00  0.00     0.168 C 
HETATM   18  O5  UNL     1     -10.056  -5.193  13.392  1.00  0.00    -0.384 OA
ENDBRANCH  13  14
ENDBRANCH  11  13
ENDBRANCH   8  11
ENDBRANCH   5   8
BRANCH   1  19
HETATM   19  C2  UNL     1      -2.312  -5.519  15.262  1.00  0.00     0.264 C 
HETATM   20  N2  UNL     1      -1.744  -6.716  14.755  1.00  0.00    -0.272 N 
ATOM     21  H2  UNL     1      -2.119  -7.105  13.890  1.00  0.00     0.185 HD
HETATM   22  O1  UNL     1      -1.837  -5.061  16.327  1.00  0.00    -0.269 OA
BRANCH  20  23
HETATM   23  N1  UNL     1      -0.703  -7.379  15.383  1.00  0.00    -0.143 NA
HETATM   24  C1  UNL     1      -1.120  -8.482  16.188  1.00  0.00     0.159 C 
ENDBRANCH  20  23
ENDBRANCH   1  19
TORSDOF 6
ENDMDL
