MODEL 1
REMARK VINA RESULT: -7.905376852      0.000      0.000
REMARK  4 active torsions:
REMARK  status: ('A' for Active; 'I' for Inactive)
REMARK    1  A    between atoms: N1_1  and  C1_4 
REMARK    2  A    between atoms: C5_10  and  C6_11 
REMARK    3  A    between atoms: C6_11  and  C7_12 
REMARK    4  A    between atoms: C11_19  and  C12_20 
ROOT
HETATM    1  C7  UNL     1     -14.439  45.863  51.543  1.00  0.00    -0.007 A 
HETATM    2  C8  UNL     1     -15.543  46.036  50.755  1.00  0.00     0.047 A 
HETATM    3  C9  UNL     1     -16.357  47.075  51.056  1.00  0.00     0.068 A 
HETATM    4  N3  UNL     1     -17.511  47.429  50.403  1.00  0.00    -0.341 N 
ATOM      5  H3  UNL     1     -17.809  46.871  49.602  1.00  0.00     0.167 HD
HETATM    6  C10 UNL     1     -18.258  48.472  50.768  1.00  0.00     0.144 A 
HETATM    7  N4  UNL     1     -19.456  48.776  50.010  1.00  0.00    -0.080 NA
HETATM    8  C11 UNL     1     -17.898  49.255  51.840  1.00  0.00     0.085 A 
HETATM    9  N6  UNL     1     -16.773  48.931  52.499  1.00  0.00    -0.345 N 
ATOM     10  H6  UNL     1     -16.480  49.493  53.298  1.00  0.00     0.167 HD
HETATM   11  C18 UNL     1     -16.011  47.855  52.115  1.00  0.00     0.102 A 
HETATM   12  S1  UNL     1     -14.565  47.135  52.669  1.00  0.00    -0.074 SA
ENDROOT
BRANCH   1  13
HETATM   13  C6  UNL     1     -13.385  44.789  51.418  1.00  0.00     0.103 C 
BRANCH  13  14
HETATM   14  C5  UNL     1     -12.204  45.405  50.784  1.00  0.00     0.015 A 
HETATM   15  C4  UNL     1     -10.959  45.104  51.268  1.00  0.00     0.027 A 
HETATM   16  C3  UNL     1      -9.850  45.672  50.687  1.00  0.00     0.036 A 
HETATM   17  C2  UNL     1      -9.994  46.537  49.627  1.00  0.00     0.093 A 
HETATM   18  N2  UNL     1      -9.137  47.242  48.854  1.00  0.00    -0.188 N 
HETATM   19  C19 UNL     1     -11.252  46.824  49.158  1.00  0.00     0.148 A 
HETATM   20  C1  UNL     1      -9.854  47.929  47.955  1.00  0.00     0.678 A 
ATOM     21  H2  UNL     1      -8.121  47.250  48.941  1.00  0.00     0.184 HD
HETATM   22  N8  UNL     1     -11.166  47.690  48.118  1.00  0.00    -0.175 N 
ATOM     23  H8  UNL     1     -11.936  48.078  47.573  1.00  0.00     0.186 HD
HETATM   24  N7  UNL     1     -12.322  46.248  49.754  1.00  0.00    -0.343 N 
ATOM     25  H7  UNL     1     -13.254  46.465  49.403  1.00  0.00     0.167 HD
BRANCH  20  26
HETATM   26  N1  UNL     1      -9.335  48.708  47.061  1.00  0.00    -0.234 N 
ATOM     27  H12 UNL     1      -9.832  49.125  46.273  1.00  0.00     0.174 HD
ATOM     28  H11 UNL     1      -8.354  48.990  47.051  1.00  0.00     0.174 HD
ENDBRANCH  20  26
ENDBRANCH  13  14
ENDBRANCH   1  13
BRANCH   8  29
HETATM   29  C12 UNL     1     -18.678  50.405  52.268  1.00  0.00    -0.006 A 
HETATM   30  C13 UNL     1     -19.644  50.279  53.276  1.00  0.00     0.015 A 
HETATM   31  C14 UNL     1     -20.379  51.366  53.668  1.00  0.00     0.027 A 
HETATM   32  C15 UNL     1     -20.197  52.618  53.087  1.00  0.00     0.046 A 
HETATM   33  N5  UNL     1     -21.011  53.661  53.572  1.00  0.00    -0.102 NA
HETATM   34  C16 UNL     1     -19.262  52.763  52.105  1.00  0.00     0.027 A 
HETATM   35  C17 UNL     1     -18.528  51.665  51.717  1.00  0.00     0.015 A 
ENDBRANCH   8  29
TORSDOF 4
ENDMDL
MODEL 2
REMARK VINA RESULT: -7.660081579      2.340      3.632
REMARK  4 active torsions:
REMARK  status: ('A' for Active; 'I' for Inactive)
REMARK    1  A    between atoms: N1_1  and  C1_4 
REMARK    2  A    between atoms: C5_10  and  C6_11 
REMARK    3  A    between atoms: C6_11  and  C7_12 
REMARK    4  A    between atoms: C11_19  and  C12_20 
ROOT
HETATM    1  C7  UNL     1     -14.413  45.622  51.671  1.00  0.00    -0.007 A 
HETATM    2  C8  UNL     1     -15.119  46.719  52.082  1.00  0.00     0.047 A 
HETATM    3  C9  UNL     1     -16.234  47.031  51.381  1.00  0.00     0.068 A 
HETATM    4  N3  UNL     1     -17.085  48.082  51.617  1.00  0.00    -0.341 N 
ATOM      5  H3  UNL     1     -16.882  48.708  52.396  1.00  0.00     0.167 HD
HETATM    6  C10 UNL     1     -18.166  48.319  50.874  1.00  0.00     0.144 A 
HETATM    7  N4  UNL     1     -19.012  49.449  51.205  1.00  0.00    -0.080 NA
HETATM    8  C11 UNL     1     -18.484  47.504  49.813  1.00  0.00     0.085 A 
HETATM    9  N6  UNL     1     -17.668  46.467  49.557  1.00  0.00    -0.345 N 
ATOM     10  H6  UNL     1     -17.877  45.844  48.777  1.00  0.00     0.167 HD
HETATM   11  C18 UNL     1     -16.557  46.232  50.329  1.00  0.00     0.102 A 
HETATM   12  S1  UNL     1     -15.310  45.065  50.335  1.00  0.00    -0.074 SA
ENDROOT
BRANCH   1  13
HETATM   13  C6  UNL     1     -13.145  45.071  52.278  1.00  0.00     0.103 C 
BRANCH  13  14
HETATM   14  C5  UNL     1     -12.019  45.566  51.465  1.00  0.00     0.015 A 
HETATM   15  C4  UNL     1     -10.739  45.310  51.880  1.00  0.00     0.027 A 
HETATM   16  C3  UNL     1      -9.680  45.765  51.131  1.00  0.00     0.036 A 
HETATM   17  C2  UNL     1      -9.907  46.473  49.974  1.00  0.00     0.093 A 
HETATM   18  N2  UNL     1      -9.115  47.043  49.038  1.00  0.00    -0.188 N 
HETATM   19  C19 UNL     1     -11.198  46.718  49.576  1.00  0.00     0.148 A 
HETATM   20  C1  UNL     1      -9.901  47.610  48.113  1.00  0.00     0.678 A 
ATOM     21  H2  UNL     1      -8.095  47.041  49.037  1.00  0.00     0.184 HD
HETATM   22  N8  UNL     1     -11.196  47.425  48.419  1.00  0.00    -0.175 N 
ATOM     23  H8  UNL     1     -12.007  47.747  47.891  1.00  0.00     0.186 HD
HETATM   24  N7  UNL     1     -12.218  46.255  50.337  1.00  0.00    -0.343 N 
ATOM     25  H7  UNL     1     -13.175  46.440  50.039  1.00  0.00     0.167 HD
BRANCH  20  26
HETATM   26  N1  UNL     1      -9.454  48.243  47.075  1.00  0.00    -0.234 N 
ATOM     27  H12 UNL     1      -9.422  47.877  46.123  1.00  0.00     0.174 HD
ATOM     28  H11 UNL     1      -9.079  49.191  47.105  1.00  0.00     0.174 HD
ENDBRANCH  20  26
ENDBRANCH  13  14
ENDBRANCH   1  13
BRANCH   8  29
HETATM   29  C12 UNL     1     -19.656  47.720  48.980  1.00  0.00    -0.006 A 
HETATM   30  C13 UNL     1     -19.663  48.723  48.002  1.00  0.00     0.015 A 
HETATM   31  C14 UNL     1     -20.774  48.926  47.227  1.00  0.00     0.027 A 
HETATM   32  C15 UNL     1     -21.922  48.152  47.382  1.00  0.00     0.046 A 
HETATM   33  N5  UNL     1     -23.002  48.451  46.528  1.00  0.00    -0.102 NA
HETATM   34  C16 UNL     1     -21.936  47.170  48.327  1.00  0.00     0.027 A 
HETATM   35  C17 UNL     1     -20.815  46.974  49.102  1.00  0.00     0.015 A 
ENDBRANCH   8  29
TORSDOF 4
ENDMDL
MODEL 3
REMARK VINA RESULT: -7.479678740      3.707      9.419
REMARK  4 active torsions:
REMARK  status: ('A' for Active; 'I' for Inactive)
REMARK    1  A    between atoms: N1_1  and  C1_4 
REMARK    2  A    between atoms: C5_10  and  C6_11 
REMARK    3  A    between atoms: C6_11  and  C7_12 
REMARK    4  A    between atoms: C11_19  and  C12_20 
ROOT
HETATM    1  C7  UNL     1     -18.671  45.734  50.662  1.00  0.00    -0.007 A 
HETATM    2  C8  UNL     1     -17.865  46.134  51.691  1.00  0.00     0.047 A 
HETATM    3  C9  UNL     1     -16.535  46.187  51.446  1.00  0.00     0.068 A 
HETATM    4  N3  UNL     1     -15.552  46.558  52.330  1.00  0.00    -0.341 N 
ATOM      5  H3  UNL     1     -15.823  46.827  53.276  1.00  0.00     0.167 HD
HETATM    6  C10 UNL     1     -14.259  46.581  52.005  1.00  0.00     0.144 A 
HETATM    7  N4  UNL     1     -13.292  46.996  53.003  1.00  0.00    -0.080 NA
HETATM    8  C11 UNL     1     -13.843  46.227  50.743  1.00  0.00     0.085 A 
HETATM    9  N6  UNL     1     -14.784  45.859  49.857  1.00  0.00    -0.345 N 
ATOM     10  H6  UNL     1     -14.507  45.591  48.912  1.00  0.00     0.167 HD
HETATM   11  C18 UNL     1     -16.113  45.838  50.201  1.00  0.00     0.102 A 
HETATM   12  S1  UNL     1     -17.568  45.446  49.398  1.00  0.00    -0.074 SA
ENDROOT
BRANCH   1  13
HETATM   13  C6  UNL     1     -20.175  45.592  50.680  1.00  0.00     0.103 C 
BRANCH  13  14
HETATM   14  C5  UNL     1     -20.678  46.101  49.390  1.00  0.00     0.015 A 
HETATM   15  C4  UNL     1     -20.475  47.417  49.072  1.00  0.00     0.027 A 
HETATM   16  C3  UNL     1     -20.939  47.904  47.873  1.00  0.00     0.036 A 
HETATM   17  C2  UNL     1     -21.602  47.073  47.002  1.00  0.00     0.093 A 
HETATM   18  N2  UNL     1     -22.167  47.230  45.783  1.00  0.00    -0.188 N 
HETATM   19  C19 UNL     1     -21.795  45.757  47.341  1.00  0.00     0.148 A 
HETATM   20  C1  UNL     1     -22.680  46.052  45.404  1.00  0.00     0.678 A 
ATOM     21  H2  UNL     1     -22.196  48.097  45.245  1.00  0.00     0.184 HD
HETATM   22  N8  UNL     1     -22.464  45.121  46.348  1.00  0.00    -0.175 N 
ATOM     23  H8  UNL     1     -22.745  44.140  46.322  1.00  0.00     0.186 HD
HETATM   24  N7  UNL     1     -21.325  45.310  48.529  1.00  0.00    -0.343 N 
ATOM     25  H7  UNL     1     -21.471  44.332  48.777  1.00  0.00     0.167 HD
BRANCH  20  26
HETATM   26  N1  UNL     1     -23.293  45.860  44.280  1.00  0.00    -0.234 N 
ATOM     27  H12 UNL     1     -23.397  46.548  43.534  1.00  0.00     0.174 HD
ATOM     28  H11 UNL     1     -23.745  44.982  44.021  1.00  0.00     0.174 HD
ENDBRANCH  20  26
ENDBRANCH  13  14
ENDBRANCH   1  13
BRANCH   8  29
HETATM   29  C12 UNL     1     -12.445  46.245  50.342  1.00  0.00    -0.006 A 
HETATM   30  C13 UNL     1     -12.020  47.035  49.265  1.00  0.00     0.015 A 
HETATM   31  C14 UNL     1     -10.703  47.040  48.890  1.00  0.00     0.027 A 
HETATM   32  C15 UNL     1      -9.753  46.270  49.554  1.00  0.00     0.046 A 
HETATM   33  N5  UNL     1      -8.428  46.357  49.079  1.00  0.00    -0.102 NA
HETATM   34  C16 UNL     1     -10.144  45.494  50.604  1.00  0.00     0.027 A 
HETATM   35  C17 UNL     1     -11.470  45.495  50.975  1.00  0.00     0.015 A 
ENDBRANCH   8  29
TORSDOF 4
ENDMDL
MODEL 4
REMARK VINA RESULT: -7.372496060      3.038      4.327
REMARK  4 active torsions:
REMARK  status: ('A' for Active; 'I' for Inactive)
REMARK    1  A    between atoms: N1_1  and  C1_4 
REMARK    2  A    between atoms: C5_10  and  C6_11 
REMARK    3  A    between atoms: C6_11  and  C7_12 
REMARK    4  A    between atoms: C11_19  and  C12_20 
ROOT
HETATM    1  C7  UNL     1     -15.586  45.165  51.731  1.00  0.00    -0.007 A 
HETATM    2  C8  UNL     1     -15.947  46.443  51.408  1.00  0.00     0.047 A 
HETATM    3  C9  UNL     1     -17.104  46.602  50.723  1.00  0.00     0.068 A 
HETATM    4  N3  UNL     1     -17.651  47.787  50.299  1.00  0.00    -0.341 N 
ATOM      5  H3  UNL     1     -17.157  48.654  50.509  1.00  0.00     0.167 HD
HETATM    6  C10 UNL     1     -18.799  47.853  49.625  1.00  0.00     0.144 A 
HETATM    7  N4  UNL     1     -19.304  49.152  49.226  1.00  0.00    -0.080 NA
HETATM    8  C11 UNL     1     -19.502  46.712  49.317  1.00  0.00     0.085 A 
HETATM    9  N6  UNL     1     -18.990  45.537  49.720  1.00  0.00    -0.345 N 
ATOM     10  H6  UNL     1     -19.489  44.673  49.507  1.00  0.00     0.167 HD
HETATM   11  C18 UNL     1     -17.807  45.479  50.413  1.00  0.00     0.102 A 
HETATM   12  S1  UNL     1     -16.851  44.230  51.078  1.00  0.00    -0.074 SA
ENDROOT
BRANCH   1  13
HETATM   13  C6  UNL     1     -14.353  44.725  52.484  1.00  0.00     0.103 C 
BRANCH  13  14
HETATM   14  C5  UNL     1     -13.183  45.204  51.726  1.00  0.00     0.015 A 
HETATM   15  C4  UNL     1     -11.932  44.804  52.114  1.00  0.00     0.027 A 
HETATM   16  C3  UNL     1     -10.832  45.244  51.416  1.00  0.00     0.036 A 
HETATM   17  C2  UNL     1     -10.990  46.080  50.336  1.00  0.00     0.093 A 
HETATM   18  N2  UNL     1     -10.146  46.674  49.463  1.00  0.00    -0.188 N 
HETATM   19  C19 UNL     1     -12.253  46.469  49.964  1.00  0.00     0.148 A 
HETATM   20  C1  UNL     1     -10.874  47.394  48.599  1.00  0.00     0.678 A 
ATOM     21  H2  UNL     1      -9.129  46.589  49.462  1.00  0.00     0.184 HD
HETATM   22  N8  UNL     1     -12.182  47.286  48.884  1.00  0.00    -0.175 N 
ATOM     23  H8  UNL     1     -12.960  47.725  48.391  1.00  0.00     0.186 HD
HETATM   24  N7  UNL     1     -13.314  46.018  50.674  1.00  0.00    -0.343 N 
ATOM     25  H7  UNL     1     -14.250  46.310  50.394  1.00  0.00     0.167 HD
BRANCH  20  26
HETATM   26  N1  UNL     1     -10.368  48.089  47.631  1.00  0.00    -0.234 N 
ATOM     27  H12 UNL     1      -9.673  47.757  46.961  1.00  0.00     0.174 HD
ATOM     28  H11 UNL     1     -10.616  49.059  47.436  1.00  0.00     0.174 HD
ENDBRANCH  20  26
ENDBRANCH  13  14
ENDBRANCH   1  13
BRANCH   8  29
HETATM   29  C12 UNL     1     -20.762  46.738  48.592  1.00  0.00    -0.006 A 
HETATM   30  C13 UNL     1     -21.984  46.695  49.277  1.00  0.00     0.015 A 
HETATM   31  C14 UNL     1     -23.166  46.711  48.586  1.00  0.00     0.027 A 
HETATM   32  C15 UNL     1     -23.196  46.769  47.195  1.00  0.00     0.046 A 
HETATM   33  N5  UNL     1     -24.471  46.781  46.593  1.00  0.00    -0.102 NA
HETATM   34  C16 UNL     1     -22.019  46.811  46.508  1.00  0.00     0.027 A 
HETATM   35  C17 UNL     1     -20.836  46.794  47.211  1.00  0.00     0.015 A 
ENDBRANCH   8  29
TORSDOF 4
ENDMDL
MODEL 5
REMARK VINA RESULT: -7.299539603      3.373      4.666
REMARK  4 active torsions:
REMARK  status: ('A' for Active; 'I' for Inactive)
REMARK    1  A    between atoms: N1_1  and  C1_4 
REMARK    2  A    between atoms: C5_10  and  C6_11 
REMARK    3  A    between atoms: C6_11  and  C7_12 
REMARK    4  A    between atoms: C11_19  and  C12_20 
ROOT
HETATM    1  C7  UNL     1     -14.331  44.488  53.195  1.00  0.00    -0.007 A 
HETATM    2  C8  UNL     1     -14.706  45.750  52.826  1.00  0.00     0.047 A 
HETATM    3  C9  UNL     1     -15.786  45.859  52.016  1.00  0.00     0.068 A 
HETATM    4  N3  UNL     1     -16.331  47.019  51.526  1.00  0.00    -0.341 N 
ATOM      5  H3  UNL     1     -15.899  47.907  51.783  1.00  0.00     0.167 HD
HETATM    6  C10 UNL     1     -17.399  47.037  50.729  1.00  0.00     0.144 A 
HETATM    7  N4  UNL     1     -17.910  48.313  50.268  1.00  0.00    -0.080 NA
HETATM    8  C11 UNL     1     -18.017  45.866  50.353  1.00  0.00     0.085 A 
HETATM    9  N6  UNL     1     -17.505  44.714  50.818  1.00  0.00    -0.345 N 
ATOM     10  H6  UNL     1     -17.941  43.830  50.557  1.00  0.00     0.167 HD
HETATM   11  C18 UNL     1     -16.403  44.707  51.638  1.00  0.00     0.102 A 
HETATM   12  S1  UNL     1     -15.477  43.500  52.413  1.00  0.00    -0.074 SA
ENDROOT
BRANCH   1  13
HETATM   13  C6  UNL     1     -13.172  44.102  54.083  1.00  0.00     0.103 C 
BRANCH  13  14
HETATM   14  C5  UNL     1     -11.946  44.629  53.456  1.00  0.00     0.015 A 
HETATM   15  C4  UNL     1     -10.867  44.918  54.249  1.00  0.00     0.027 A 
HETATM   16  C3  UNL     1      -9.718  45.410  53.677  1.00  0.00     0.036 A 
HETATM   17  C2  UNL     1      -9.654  45.611  52.318  1.00  0.00     0.093 A 
HETATM   18  N2  UNL     1      -8.706  46.065  51.468  1.00  0.00    -0.188 N 
HETATM   19  C19 UNL     1     -10.747  45.314  51.542  1.00  0.00     0.148 A 
HETATM   20  C1  UNL     1      -9.211  46.043  50.227  1.00  0.00     0.678 A 
ATOM     21  H2  UNL     1      -7.769  46.372  51.727  1.00  0.00     0.184 HD
HETATM   22  N8  UNL     1     -10.473  45.582  50.241  1.00  0.00    -0.175 N 
ATOM     23  H8  UNL     1     -11.094  45.459  49.442  1.00  0.00     0.186 HD
HETATM   24  N7  UNL     1     -11.863  44.831  52.137  1.00  0.00    -0.343 N 
ATOM     25  H7  UNL     1     -12.673  44.613  51.557  1.00  0.00     0.167 HD
BRANCH  20  26
HETATM   26  N1  UNL     1      -8.556  46.418  49.175  1.00  0.00    -0.234 N 
ATOM     27  H12 UNL     1      -8.044  45.802  48.542  1.00  0.00     0.174 HD
ATOM     28  H11 UNL     1      -8.483  47.387  48.865  1.00  0.00     0.174 HD
ENDBRANCH  20  26
ENDBRANCH  13  14
ENDBRANCH   1  13
BRANCH   8  29
HETATM   29  C12 UNL     1     -19.189  45.838  49.493  1.00  0.00    -0.006 A 
HETATM   30  C13 UNL     1     -19.055  45.679  48.107  1.00  0.00     0.015 A 
HETATM   31  C14 UNL     1     -20.163  45.661  47.303  1.00  0.00     0.027 A 
HETATM   32  C15 UNL     1     -21.446  45.800  47.826  1.00  0.00     0.046 A 
HETATM   33  N5  UNL     1     -22.510  45.766  46.902  1.00  0.00    -0.102 NA
HETATM   34  C16 UNL     1     -21.599  45.956  49.171  1.00  0.00     0.027 A 
HETATM   35  C17 UNL     1     -20.480  45.973  49.972  1.00  0.00     0.015 A 
ENDBRANCH   8  29
TORSDOF 4
ENDMDL
