MODEL 1
REMARK VINA RESULT: -7.368079649      0.000      0.000
REMARK  2 active torsions:
REMARK  status: ('A' for Active; 'I' for Inactive)
REMARK    1  A    between atoms: C2_2  and  C3_3 
REMARK    2  A    between atoms: C3_3  and  C4_4 
ROOT
HETATM    1  C4  UNL     1      21.597  84.794  25.188  1.00  0.00     0.132 C 
HETATM    2  C5  UNL     1      22.762  84.354  24.406  1.00  0.00     0.050 C 
HETATM    3  C6  UNL     1      22.695  84.543  22.919  1.00  0.00     0.060 C 
HETATM    4  C7  UNL     1      22.246  83.323  22.182  1.00  0.00     0.011 C 
HETATM    5  C8  UNL     1      20.971  82.711  22.589  1.00  0.00     0.001 C 
HETATM    6  C9  UNL     1      20.500  82.893  23.967  1.00  0.00     0.009 C 
HETATM    7  C10 UNL     1      20.344  84.195  24.579  1.00  0.00     0.052 C 
HETATM    8  C11 UNL     1      20.056  85.440  23.915  1.00  0.00     0.199 C 
HETATM    9  C12 UNL     1      20.505  85.728  22.533  1.00  0.00     0.113 C 
HETATM   10  C13 UNL     1      22.012  85.755  22.427  1.00  0.00     0.249 C 
HETATM   11  F1  UNL     1      22.542  86.914  22.970  1.00  0.00    -0.206 F 
HETATM   12  F2  UNL     1      22.288  85.846  21.054  1.00  0.00    -0.206 F 
HETATM   13  N1  UNL     1      21.035  86.105  24.793  1.00  0.00    -0.061 N 
ATOM     14  H11 UNL     1      21.650  86.824  24.412  1.00  0.00     0.278 HD
ATOM     15  H12 UNL     1      20.712  86.753  25.510  1.00  0.00     0.278 HD
ENDROOT
BRANCH   1  16
HETATM   16  C3  UNL     1      21.734  84.796  26.647  1.00  0.00     0.039 C 
BRANCH  16  17
HETATM   17  C2  UNL     1      22.078  85.985  27.417  1.00  0.00    -0.002 C 
HETATM   18  C1  UNL     1      20.997  86.637  28.237  1.00  0.00     0.005 C 
ENDBRANCH  16  17
ENDBRANCH   1  16
TORSDOF 2
ENDMDL
MODEL 2
REMARK VINA RESULT: -7.365604969      1.681      3.041
REMARK  2 active torsions:
REMARK  status: ('A' for Active; 'I' for Inactive)
REMARK    1  A    between atoms: C2_2  and  C3_3 
REMARK    2  A    between atoms: C3_3  and  C4_4 
ROOT
HETATM    1  C4  UNL     1      21.675  85.497  25.181  1.00  0.00     0.132 C 
HETATM    2  C5  UNL     1      20.496  85.925  24.413  1.00  0.00     0.050 C 
HETATM    3  C6  UNL     1      20.543  85.727  22.926  1.00  0.00     0.060 C 
HETATM    4  C7  UNL     1      20.974  86.945  22.175  1.00  0.00     0.011 C 
HETATM    5  C8  UNL     1      22.251  87.567  22.561  1.00  0.00     0.001 C 
HETATM    6  C9  UNL     1      22.743  87.397  23.933  1.00  0.00     0.009 C 
HETATM    7  C10 UNL     1      22.915  86.100  24.551  1.00  0.00     0.052 C 
HETATM    8  C11 UNL     1      23.201  84.852  23.890  1.00  0.00     0.199 C 
HETATM    9  C12 UNL     1      22.734  84.554  22.517  1.00  0.00     0.113 C 
HETATM   10  C13 UNL     1      21.226  84.516  22.432  1.00  0.00     0.249 C 
HETATM   11  F1  UNL     1      20.711  83.357  22.990  1.00  0.00    -0.206 F 
HETATM   12  F2  UNL     1      20.932  84.415  21.063  1.00  0.00    -0.206 F 
HETATM   13  N1  UNL     1      22.239  84.187  24.786  1.00  0.00    -0.061 N 
ATOM     14  H11 UNL     1      21.623  83.462  24.418  1.00  0.00     0.278 HD
ATOM     15  H12 UNL     1      22.577  83.546  25.502  1.00  0.00     0.278 HD
ENDROOT
BRANCH   1  16
HETATM   16  C3  UNL     1      21.558  85.503  26.642  1.00  0.00     0.039 C 
BRANCH  16  17
HETATM   17  C2  UNL     1      21.159  84.336  27.418  1.00  0.00    -0.002 C 
HETATM   18  C1  UNL     1      22.209  83.635  28.238  1.00  0.00     0.005 C 
ENDBRANCH  16  17
ENDBRANCH   1  16
TORSDOF 2
ENDMDL
MODEL 3
REMARK VINA RESULT: -7.341332768      0.706      1.065
REMARK  2 active torsions:
REMARK  status: ('A' for Active; 'I' for Inactive)
REMARK    1  A    between atoms: C2_2  and  C3_3 
REMARK    2  A    between atoms: C3_3  and  C4_4 
ROOT
HETATM    1  C4  UNL     1      21.698  84.937  25.179  1.00  0.00     0.132 C 
HETATM    2  C5  UNL     1      22.832  84.477  24.364  1.00  0.00     0.050 C 
HETATM    3  C6  UNL     1      22.698  84.608  22.875  1.00  0.00     0.060 C 
HETATM    4  C7  UNL     1      22.230  83.356  22.206  1.00  0.00     0.011 C 
HETATM    5  C8  UNL     1      20.981  82.750  22.693  1.00  0.00     0.001 C 
HETATM    6  C9  UNL     1      20.568  82.981  24.082  1.00  0.00     0.009 C 
HETATM    7  C10 UNL     1      20.427  84.303  24.650  1.00  0.00     0.052 C 
HETATM    8  C11 UNL     1      20.097  85.520  23.951  1.00  0.00     0.199 C 
HETATM    9  C12 UNL     1      20.482  85.757  22.542  1.00  0.00     0.113 C 
HETATM   10  C13 UNL     1      21.982  85.794  22.367  1.00  0.00     0.249 C 
HETATM   11  F1  UNL     1      22.523  86.978  22.842  1.00  0.00    -0.206 F 
HETATM   12  F2  UNL     1      22.197  85.833  20.981  1.00  0.00    -0.206 F 
HETATM   13  N1  UNL     1      21.106  86.226  24.759  1.00  0.00    -0.061 N 
ATOM     14  H11 UNL     1      21.696  86.935  24.324  1.00  0.00     0.278 HD
ATOM     15  H12 UNL     1      20.808  86.899  25.465  1.00  0.00     0.278 HD
ENDROOT
BRANCH   1  16
HETATM   16  C3  UNL     1      21.900  84.996  26.630  1.00  0.00     0.039 C 
BRANCH  16  17
HETATM   17  C2  UNL     1      21.414  83.974  27.548  1.00  0.00    -0.002 C 
HETATM   18  C1  UNL     1      22.417  83.268  28.421  1.00  0.00     0.005 C 
ENDBRANCH  16  17
ENDBRANCH   1  16
TORSDOF 2
ENDMDL
MODEL 4
REMARK VINA RESULT: -7.339127439      1.566      2.869
REMARK  2 active torsions:
REMARK  status: ('A' for Active; 'I' for Inactive)
REMARK    1  A    between atoms: C2_2  and  C3_3 
REMARK    2  A    between atoms: C3_3  and  C4_4 
ROOT
HETATM    1  C4  UNL     1      21.583  85.322  25.166  1.00  0.00     0.132 C 
HETATM    2  C5  UNL     1      20.438  85.792  24.373  1.00  0.00     0.050 C 
HETATM    3  C6  UNL     1      20.552  85.682  22.881  1.00  0.00     0.060 C 
HETATM    4  C7  UNL     1      21.011  86.943  22.223  1.00  0.00     0.011 C 
HETATM    5  C8  UNL     1      22.266  87.543  22.700  1.00  0.00     0.001 C 
HETATM    6  C9  UNL     1      22.697  87.293  24.081  1.00  0.00     0.009 C 
HETATM    7  C10 UNL     1      22.847  85.963  24.628  1.00  0.00     0.052 C 
HETATM    8  C11 UNL     1      23.168  84.756  23.909  1.00  0.00     0.199 C 
HETATM    9  C12 UNL     1      22.764  84.538  22.501  1.00  0.00     0.113 C 
HETATM   10  C13 UNL     1      21.261  84.504  22.346  1.00  0.00     0.249 C 
HETATM   11  F1  UNL     1      20.727  83.313  22.812  1.00  0.00    -0.206 F 
HETATM   12  F2  UNL     1      21.028  84.483  20.963  1.00  0.00    -0.206 F 
HETATM   13  N1  UNL     1      22.169  84.038  24.720  1.00  0.00    -0.061 N 
ATOM     14  H11 UNL     1      21.574  83.335  24.283  1.00  0.00     0.278 HD
ATOM     15  H12 UNL     1      22.478  83.356  25.412  1.00  0.00     0.278 HD
ENDROOT
BRANCH   1  16
HETATM   16  C3  UNL     1      21.401  85.241  26.618  1.00  0.00     0.039 C 
BRANCH  16  17
HETATM   17  C2  UNL     1      21.808  86.299  27.535  1.00  0.00    -0.002 C 
HETATM   18  C1  UNL     1      20.745  86.966  28.367  1.00  0.00     0.005 C 
ENDBRANCH  16  17
ENDBRANCH   1  16
TORSDOF 2
ENDMDL
MODEL 5
REMARK VINA RESULT: -6.986854454      1.939      3.845
REMARK  2 active torsions:
REMARK  status: ('A' for Active; 'I' for Inactive)
REMARK    1  A    between atoms: C2_2  and  C3_3 
REMARK    2  A    between atoms: C3_3  and  C4_4 
ROOT
HETATM    1  C4  UNL     1      21.664  85.453  22.557  1.00  0.00     0.132 C 
HETATM    2  C5  UNL     1      20.341  85.276  23.172  1.00  0.00     0.050 C 
HETATM    3  C6  UNL     1      20.287  84.513  24.463  1.00  0.00     0.060 C 
HETATM    4  C7  UNL     1      19.953  83.067  24.287  1.00  0.00     0.011 C 
HETATM    5  C8  UNL     1      20.788  82.281  23.365  1.00  0.00     0.001 C 
HETATM    6  C9  UNL     1      21.473  82.966  22.263  1.00  0.00     0.009 C 
HETATM    7  C10 UNL     1      22.346  84.102  22.465  1.00  0.00     0.052 C 
HETATM    8  C11 UNL     1      23.127  84.402  23.638  1.00  0.00     0.199 C 
HETATM    9  C12 UNL     1      22.697  84.014  25.000  1.00  0.00     0.113 C 
HETATM   10  C13 UNL     1      21.411  84.699  25.401  1.00  0.00     0.249 C 
HETATM   11  F1  UNL     1      21.619  86.033  25.714  1.00  0.00    -0.206 F 
HETATM   12  F2  UNL     1      21.031  84.102  26.612  1.00  0.00    -0.206 F 
HETATM   13  N1  UNL     1      22.749  85.819  23.495  1.00  0.00    -0.061 N 
ATOM     14  H11 UNL     1      22.534  86.371  24.325  1.00  0.00     0.278 HD
ATOM     15  H12 UNL     1      23.451  86.503  23.214  1.00  0.00     0.278 HD
ENDROOT
BRANCH   1  16
HETATM   16  C3  UNL     1      21.751  86.361  21.409  1.00  0.00     0.039 C 
BRANCH  16  17
HETATM   17  C2  UNL     1      21.231  87.722  21.424  1.00  0.00    -0.002 C 
HETATM   18  C1  UNL     1      21.596  88.609  22.584  1.00  0.00     0.005 C 
ENDBRANCH  16  17
ENDBRANCH   1  16
TORSDOF 2
ENDMDL
