MODEL 1
REMARK VINA RESULT: -7.137212676      0.000      0.000
REMARK  1 active torsions:
REMARK  status: ('A' for Active; 'I' for Inactive)
REMARK    1  A    between atoms: N1_1  and  N2_4 
REMARK       I    between atoms: N2_4  and  C1_6 
REMARK       I    between atoms: C1_6  and  N3_8 
ROOT
HETATM    1  N2  UNL     1      27.598  65.943   9.481  1.00  0.00    -0.258 N 
ATOM      2  H2  UNL     1      28.060  65.625  10.334  1.00  0.00     0.191 HD
HETATM    3  C1  UNL     1      28.355  66.045   8.312  1.00  0.00     0.344 C 
HETATM    4  O1  UNL     1      27.686  66.462   7.288  1.00  0.00    -0.245 OA
HETATM    5  N3  UNL     1      29.729  65.746   8.162  1.00  0.00    -0.250 N 
HETATM    6  C2  UNL     1      30.172  66.051   6.815  1.00  0.00     0.140 C 
HETATM    7  C3  UNL     1      31.644  65.999   6.650  1.00  0.00     0.040 C 
HETATM    8  C4  UNL     1      32.233  67.092   7.524  1.00  0.00     0.122 C 
HETATM    9  N4  UNL     1      33.238  66.491   8.323  1.00  0.00    -0.386 N 
ATOM     10  H4  UNL     1      34.166  66.260   7.968  1.00  0.00     0.160 HD
HETATM   11  C5  UNL     1      32.842  66.242   9.650  1.00  0.00     0.180 C 
HETATM   12  N5  UNL     1      31.647  65.505   9.885  1.00  0.00    -0.305 N 
ATOM     13  H5  UNL     1      31.704  65.032  10.787  1.00  0.00     0.171 HD
HETATM   14  C6  UNL     1      30.399  65.216   9.265  1.00  0.00     0.331 C 
HETATM   15  O2  UNL     1      29.716  64.285   9.791  1.00  0.00    -0.246 OA
ENDROOT
BRANCH   1  16
HETATM   16  N1  UNL     1      26.217  66.260   9.538  1.00  0.00    -0.341 N 
ATOM     17  H12 UNL     1      25.944  67.215   9.308  1.00  0.00     0.177 HD
ATOM     18  H11 UNL     1      25.500  65.580   9.794  1.00  0.00     0.177 HD
ENDBRANCH   1  16
TORSDOF 1
ENDMDL
MODEL 2
REMARK VINA RESULT: -5.968962437      3.013      5.589
REMARK  1 active torsions:
REMARK  status: ('A' for Active; 'I' for Inactive)
REMARK    1  A    between atoms: N1_1  and  N2_4 
REMARK       I    between atoms: N2_4  and  C1_6 
REMARK       I    between atoms: C1_6  and  N3_8 
ROOT
HETATM    1  N2  UNL     1      30.463  64.492  10.273  1.00  0.00    -0.258 N 
ATOM      2  H2  UNL     1      30.433  63.510  10.548  1.00  0.00     0.191 HD
HETATM    3  C1  UNL     1      29.272  65.222  10.281  1.00  0.00     0.344 C 
HETATM    4  O1  UNL     1      29.409  66.453   9.912  1.00  0.00    -0.245 OA
HETATM    5  N3  UNL     1      27.989  64.749  10.641  1.00  0.00    -0.250 N 
HETATM    6  C2  UNL     1      26.993  65.785  10.448  1.00  0.00     0.140 C 
HETATM    7  C3  UNL     1      25.599  65.294  10.567  1.00  0.00     0.040 C 
HETATM    8  C4  UNL     1      25.373  64.304   9.438  1.00  0.00     0.122 C 
HETATM    9  N4  UNL     1      24.850  63.122  10.019  1.00  0.00    -0.386 N 
ATOM     10  H4  UNL     1      23.876  63.029  10.310  1.00  0.00     0.160 HD
HETATM   11  C5  UNL     1      25.792  62.087  10.160  1.00  0.00     0.180 C 
HETATM   12  N5  UNL     1      27.017  62.357  10.834  1.00  0.00    -0.305 N 
ATOM     13  H5  UNL     1      27.383  61.498  11.244  1.00  0.00     0.171 HD
HETATM   14  C6  UNL     1      27.893  63.441  11.118  1.00  0.00     0.331 C 
HETATM   15  O2  UNL     1      28.794  63.220  11.984  1.00  0.00    -0.246 OA
ENDROOT
BRANCH   1  16
HETATM   16  N1  UNL     1      31.711  65.053   9.901  1.00  0.00    -0.341 N 
ATOM     17  H12 UNL     1      32.213  65.592  10.606  1.00  0.00     0.177 HD
ATOM     18  H11 UNL     1      32.117  64.939   8.972  1.00  0.00     0.177 HD
ENDBRANCH   1  16
TORSDOF 1
ENDMDL
MODEL 3
REMARK VINA RESULT: -5.827182925      2.167      3.718
REMARK  1 active torsions:
REMARK  status: ('A' for Active; 'I' for Inactive)
REMARK    1  A    between atoms: N1_1  and  N2_4 
REMARK       I    between atoms: N2_4  and  C1_6 
REMARK       I    between atoms: C1_6  and  N3_8 
ROOT
HETATM    1  N2  UNL     1      27.197  63.657  11.111  1.00  0.00    -0.258 N 
ATOM      2  H2  UNL     1      26.409  64.021  10.574  1.00  0.00     0.191 HD
HETATM    3  C1  UNL     1      28.456  64.228  10.916  1.00  0.00     0.344 C 
HETATM    4  O1  UNL     1      29.391  63.696  11.633  1.00  0.00    -0.245 OA
HETATM    5  N3  UNL     1      28.781  65.288  10.038  1.00  0.00    -0.250 N 
HETATM    6  C2  UNL     1      30.207  65.549  10.060  1.00  0.00     0.140 C 
HETATM    7  C3  UNL     1      30.656  66.473   8.992  1.00  0.00     0.040 C 
HETATM    8  C4  UNL     1      30.394  65.786   7.664  1.00  0.00     0.122 C 
HETATM    9  N4  UNL     1      29.668  66.699   6.858  1.00  0.00    -0.386 N 
ATOM     10  H4  UNL     1      30.106  67.486   6.377  1.00  0.00     0.160 HD
HETATM   11  C5  UNL     1      28.291  66.425   6.780  1.00  0.00     0.180 C 
HETATM   12  N5  UNL     1      27.548  66.276   7.986  1.00  0.00    -0.305 N 
ATOM     13  H5  UNL     1      26.572  66.520   7.824  1.00  0.00     0.171 HD
HETATM   14  C6  UNL     1      27.734  65.896   9.345  1.00  0.00     0.331 C 
HETATM   15  O2  UNL     1      26.768  66.144  10.131  1.00  0.00    -0.246 OA
ENDROOT
BRANCH   1  16
HETATM   16  N1  UNL     1      26.963  62.595  12.021  1.00  0.00    -0.341 N 
ATOM     17  H12 UNL     1      27.707  61.908  12.144  1.00  0.00     0.177 HD
ATOM     18  H11 UNL     1      26.095  62.495  12.547  1.00  0.00     0.177 HD
ENDBRANCH   1  16
TORSDOF 1
ENDMDL
MODEL 4
REMARK VINA RESULT: -5.644135045      2.979      5.635
REMARK  1 active torsions:
REMARK  status: ('A' for Active; 'I' for Inactive)
REMARK    1  A    between atoms: N1_1  and  N2_4 
REMARK       I    between atoms: N2_4  and  C1_6 
REMARK       I    between atoms: C1_6  and  N3_8 
ROOT
HETATM    1  N2  UNL     1      29.854  64.668  10.477  1.00  0.00    -0.258 N 
ATOM      2  H2  UNL     1      29.620  64.275  11.389  1.00  0.00     0.191 HD
HETATM    3  C1  UNL     1      28.819  65.157   9.678  1.00  0.00     0.344 C 
HETATM    4  O1  UNL     1      29.213  65.627   8.540  1.00  0.00    -0.245 OA
HETATM    5  N3  UNL     1      27.441  65.179   9.992  1.00  0.00    -0.250 N 
HETATM    6  C2  UNL     1      26.672  65.695   8.876  1.00  0.00     0.140 C 
HETATM    7  C3  UNL     1      25.208  65.519   9.035  1.00  0.00     0.040 C 
HETATM    8  C4  UNL     1      24.935  64.026   9.055  1.00  0.00     0.122 C 
HETATM    9  N4  UNL     1      24.149  63.762  10.204  1.00  0.00    -0.386 N 
ATOM     10  H4  UNL     1      23.148  63.957  10.250  1.00  0.00     0.160 HD
HETATM   11  C5  UNL     1      24.870  63.206  11.276  1.00  0.00     0.180 C 
HETATM   12  N5  UNL     1      26.042  63.871  11.736  1.00  0.00    -0.305 N 
ATOM     13  H5  UNL     1      26.202  63.651  12.719  1.00  0.00     0.171 HD
HETATM   14  C6  UNL     1      27.062  64.744  11.263  1.00  0.00     0.331 C 
HETATM   15  O2  UNL     1      27.809  65.263  12.148  1.00  0.00    -0.246 OA
ENDROOT
BRANCH   1  16
HETATM   16  N1  UNL     1      31.215  64.692  10.080  1.00  0.00    -0.341 N 
ATOM     17  H12 UNL     1      31.766  63.847  10.234  1.00  0.00     0.177 HD
ATOM     18  H11 UNL     1      31.656  65.508   9.654  1.00  0.00     0.177 HD
ENDBRANCH   1  16
TORSDOF 1
ENDMDL
MODEL 5
REMARK VINA RESULT: -5.641654596      5.580      6.327
REMARK  1 active torsions:
REMARK  status: ('A' for Active; 'I' for Inactive)
REMARK    1  A    between atoms: N1_1  and  N2_4 
REMARK       I    between atoms: N2_4  and  C1_6 
REMARK       I    between atoms: C1_6  and  N3_8 
ROOT
HETATM    1  N2  UNL     1      24.078  64.013  10.167  1.00  0.00    -0.258 N 
ATOM      2  H2  UNL     1      23.509  64.078  11.011  1.00  0.00     0.191 HD
HETATM    3  C1  UNL     1      25.403  63.590  10.287  1.00  0.00     0.344 C 
HETATM    4  O1  UNL     1      26.044  63.547   9.166  1.00  0.00    -0.245 OA
HETATM    5  N3  UNL     1      26.072  63.223  11.478  1.00  0.00    -0.250 N 
HETATM    6  C2  UNL     1      27.462  62.914  11.206  1.00  0.00     0.140 C 
HETATM    7  C3  UNL     1      28.285  62.762  12.430  1.00  0.00     0.040 C 
HETATM    8  C4  UNL     1      28.302  64.109  13.131  1.00  0.00     0.122 C 
HETATM    9  N4  UNL     1      27.929  63.882  14.479  1.00  0.00    -0.386 N 
ATOM     10  H4  UNL     1      28.569  63.500  15.176  1.00  0.00     0.160 HD
HETATM   11  C5  UNL     1      26.598  64.231  14.772  1.00  0.00     0.180 C 
HETATM   12  N5  UNL     1      25.552  63.693  13.971  1.00  0.00    -0.305 N 
ATOM     13  H5  UNL     1      24.689  63.648  14.513  1.00  0.00     0.171 HD
HETATM   14  C6  UNL     1      25.325  63.197  12.657  1.00  0.00     0.331 C 
HETATM   15  O2  UNL     1      24.224  62.595  12.468  1.00  0.00    -0.246 OA
ENDROOT
BRANCH   1  16
HETATM   16  N1  UNL     1      23.486  64.357   8.925  1.00  0.00    -0.341 N 
ATOM     17  H12 UNL     1      23.742  65.255   8.514  1.00  0.00     0.177 HD
ATOM     18  H11 UNL     1      22.827  63.750   8.436  1.00  0.00     0.177 HD
ENDBRANCH   1  16
TORSDOF 1
ENDMDL
