MODEL 1
REMARK VINA RESULT: -9.262273941      0.000      0.000
REMARK  12 active torsions:
REMARK  status: ('A' for Active; 'I' for Inactive)
REMARK    1  A    between atoms: O1_2  and  C2_3 
REMARK    2  A    between atoms: C7_8  and  O2_9 
REMARK    3  A    between atoms: N1_12  and  C10_13 
REMARK    4  A    between atoms: C10_13  and  C11_14 
REMARK    5  A    between atoms: C11_14  and  C12_15 
REMARK    6  A    between atoms: C12_15  and  C13_16 
REMARK    7  A    between atoms: C13_16  and  O3_17 
REMARK    8  A    between atoms: O3_17  and  C14_18 
REMARK    9  A    between atoms: C17_21  and  N2_22 
REMARK   10  A    between atoms: C20_26  and  N3_27 
REMARK   11  A    between atoms: C27_41  and  C28_42 
REMARK   12  A    between atoms: C28_42  and  N7_43 
ROOT
HETATM    1  C14 UNL     1      12.988  21.071  15.206  1.00  0.00     0.076 A 
HETATM    2  C15 UNL     1      13.359  22.197  15.944  1.00  0.00     0.039 A 
HETATM    3  C16 UNL     1      14.511  22.889  15.755  1.00  0.00     0.032 A 
HETATM    4  C17 UNL     1      15.382  22.459  14.769  1.00  0.00     0.034 A 
HETATM    5  C26 UNL     1      15.074  21.363  14.013  1.00  0.00     0.041 A 
HETATM    6  C27 UNL     1      13.901  20.676  14.221  1.00  0.00     0.003 A 
ENDROOT
BRANCH   1   7
HETATM    7  O3  UNL     1      11.886  20.454  15.427  1.00  0.00    -0.351 OA
BRANCH   7   8
HETATM    8  C13 UNL     1      10.796  19.842  15.756  1.00  0.00     0.175 C 
BRANCH   8   9
HETATM    9  C12 UNL     1      10.713  19.062  17.065  1.00  0.00     0.028 C 
BRANCH   9  10
HETATM   10  C11 UNL     1      11.233  17.677  16.885  1.00  0.00     0.022 C 
BRANCH  10  11
HETATM   11  C10 UNL     1      11.627  17.024  18.195  1.00  0.00     0.126 C 
BRANCH  11  12
HETATM   12  N1  UNL     1      12.635  17.788  18.902  1.00  0.00    -0.348 N 
HETATM   13  C9  UNL     1      13.955  17.802  18.312  1.00  0.00     0.165 C 
HETATM   14  C5  UNL     1      14.666  19.021  18.727  1.00  0.00    -0.031 A 
HETATM   15  C4  UNL     1      14.463  19.513  19.996  1.00  0.00    -0.039 A 
HETATM   16  C6  UNL     1      15.541  19.659  17.836  1.00  0.00     0.049 A 
HETATM   17  C3  UNL     1      15.138  20.658  20.390  1.00  0.00     0.047 A 
HETATM   18  C30 UNL     1      13.519  18.834  20.954  1.00  0.00     0.142 C 
HETATM   19  C2  UNL     1      16.004  21.297  19.523  1.00  0.00     0.102 A 
HETATM   20  C7  UNL     1      16.205  20.796  18.242  1.00  0.00     0.102 A 
HETATM   21  C29 UNL     1      12.328  18.477  20.104  1.00  0.00     0.224 C 
HETATM   22  O4  UNL     1      11.171  18.765  20.435  1.00  0.00    -0.273 OA
BRANCH  19  23
HETATM   23  O1  UNL     1      16.691  22.442  19.892  1.00  0.00    -0.353 OA
HETATM   24  C1  UNL     1      18.087  22.357  20.087  1.00  0.00     0.210 C 
ENDBRANCH  19  23
BRANCH  20  25
HETATM   25  O2  UNL     1      17.074  21.455  17.400  1.00  0.00    -0.353 OA
HETATM   26  C8  UNL     1      18.091  20.772  16.704  1.00  0.00     0.210 C 
ENDBRANCH  20  25
ENDBRANCH  11  12
ENDBRANCH  10  11
ENDBRANCH   9  10
ENDBRANCH   8   9
ENDBRANCH   7   8
ENDBRANCH   1   7
BRANCH   6  27
HETATM   27  C28 UNL     1      13.532  19.484  13.422  1.00  0.00     0.271 C 
BRANCH  27  28
HETATM   28  N7  UNL     1      12.385  19.841  12.602  1.00  0.00    -0.075 N 
ATOM     29  H73 UNL     1      12.000  20.757  12.836  1.00  0.00     0.274 HD
ATOM     30  H72 UNL     1      12.637  20.045  11.635  1.00  0.00     0.274 HD
ATOM     31  H71 UNL     1      11.700  19.089  12.685  1.00  0.00     0.274 HD
ENDBRANCH  27  28
ENDBRANCH   6  27
BRANCH   4  32
HETATM   32  N2  UNL     1      16.576  23.201  14.589  1.00  0.00    -0.342 N 
HETATM   33  C18 UNL     1      17.074  23.992  15.464  1.00  0.00     0.110 A 
HETATM   34  C19 UNL     1      18.249  24.677  15.199  1.00  0.00     0.097 A 
HETATM   35  N6  UNL     1      16.467  24.156  16.641  1.00  0.00    -0.338 N 
HETATM   36  C20 UNL     1      18.821  25.532  16.122  1.00  0.00     0.107 A 
HETATM   37  N5  UNL     1      18.166  25.659  17.288  1.00  0.00    -0.339 N 
HETATM   38  C25 UNL     1      17.005  24.990  17.563  1.00  0.00     0.183 A 
ATOM     39  H5  UNL     1      18.551  26.281  17.998  1.00  0.00     0.168 HD
ATOM     40  H6  UNL     1      15.601  23.657  16.845  1.00  0.00     0.168 HD
ATOM     41  H2  UNL     1      17.072  23.097  13.704  1.00  0.00     0.167 HD
BRANCH  36  42
HETATM   42  N3  UNL     1      20.045  26.221  15.840  1.00  0.00    -0.364 N 
HETATM   43  C21 UNL     1      20.997  26.598  16.862  1.00  0.00     0.152 C 
HETATM   44  C22 UNL     1      21.674  27.896  16.607  1.00  0.00     0.252 C 
HETATM   45  N4  UNL     1      21.773  28.338  15.260  1.00  0.00    -0.072 N 
HETATM   46  C23 UNL     1      20.571  28.093  14.484  1.00  0.00     0.252 C 
ATOM     47  H42 UNL     1      22.034  29.323  15.220  1.00  0.00     0.277 HD
ATOM     48  H41 UNL     1      22.588  27.929  14.803  1.00  0.00     0.277 HD
HETATM   49  C24 UNL     1      20.425  26.564  14.483  1.00  0.00     0.152 C 
ENDBRANCH  36  42
ENDBRANCH   4  32
TORSDOF 12
ENDMDL
MODEL 2
REMARK VINA RESULT: -9.033031603      3.204     10.790
REMARK  12 active torsions:
REMARK  status: ('A' for Active; 'I' for Inactive)
REMARK    1  A    between atoms: O1_2  and  C2_3 
REMARK    2  A    between atoms: C7_8  and  O2_9 
REMARK    3  A    between atoms: N1_12  and  C10_13 
REMARK    4  A    between atoms: C10_13  and  C11_14 
REMARK    5  A    between atoms: C11_14  and  C12_15 
REMARK    6  A    between atoms: C12_15  and  C13_16 
REMARK    7  A    between atoms: C13_16  and  O3_17 
REMARK    8  A    between atoms: O3_17  and  C14_18 
REMARK    9  A    between atoms: C17_21  and  N2_22 
REMARK   10  A    between atoms: C20_26  and  N3_27 
REMARK   11  A    between atoms: C27_41  and  C28_42 
REMARK   12  A    between atoms: C28_42  and  N7_43 
ROOT
HETATM    1  C14 UNL     1      16.079  21.396  19.201  1.00  0.00     0.076 A 
HETATM    2  C15 UNL     1      15.083  20.989  20.093  1.00  0.00     0.039 A 
HETATM    3  C16 UNL     1      14.327  19.873  19.936  1.00  0.00     0.032 A 
HETATM    4  C17 UNL     1      14.548  19.080  18.825  1.00  0.00     0.034 A 
HETATM    5  C26 UNL     1      15.508  19.425  17.916  1.00  0.00     0.041 A 
HETATM    6  C27 UNL     1      16.264  20.560  18.094  1.00  0.00     0.003 A 
ENDROOT
BRANCH   1   7
HETATM    7  O3  UNL     1      16.764  22.461  19.398  1.00  0.00    -0.351 OA
BRANCH   7   8
HETATM    8  C13 UNL     1      17.420  23.571  19.500  1.00  0.00     0.175 C 
BRANCH   8   9
HETATM    9  C12 UNL     1      18.150  23.919  20.793  1.00  0.00     0.028 C 
BRANCH   9  10
HETATM   10  C11 UNL     1      19.625  23.833  20.603  1.00  0.00     0.022 C 
BRANCH  10  11
HETATM   11  C10 UNL     1      20.338  25.124  20.955  1.00  0.00     0.126 C 
BRANCH  11  12
HETATM   12  N1  UNL     1      21.018  25.697  19.811  1.00  0.00    -0.348 N 
HETATM   13  C9  UNL     1      20.652  25.164  18.518  1.00  0.00     0.165 C 
HETATM   14  C5  UNL     1      20.910  26.174  17.480  1.00  0.00    -0.031 A 
HETATM   15  C4  UNL     1      22.001  27.002  17.610  1.00  0.00    -0.039 A 
HETATM   16  C6  UNL     1      20.052  26.275  16.374  1.00  0.00     0.049 A 
HETATM   17  C3  UNL     1      22.248  27.949  16.628  1.00  0.00     0.047 A 
HETATM   18  C30 UNL     1      22.920  26.901  18.799  1.00  0.00     0.142 C 
HETATM   19  C2  UNL     1      21.412  28.060  15.532  1.00  0.00     0.102 A 
HETATM   20  C7  UNL     1      20.311  27.221  15.406  1.00  0.00     0.102 A 
HETATM   21  C29 UNL     1      21.988  26.722  19.968  1.00  0.00     0.224 C 
HETATM   22  O4  UNL     1      22.067  27.419  20.988  1.00  0.00    -0.273 OA
BRANCH  19  23
HETATM   23  O1  UNL     1      21.637  28.998  14.537  1.00  0.00    -0.353 OA
HETATM   24  C1  UNL     1      22.961  29.436  14.312  1.00  0.00     0.210 C 
ENDBRANCH  19  23
BRANCH  20  25
HETATM   25  O2  UNL     1      19.496  27.356  14.303  1.00  0.00    -0.353 OA
HETATM   26  C8  UNL     1      18.396  26.503  14.087  1.00  0.00     0.210 C 
ENDBRANCH  20  25
ENDBRANCH  11  12
ENDBRANCH  10  11
ENDBRANCH   9  10
ENDBRANCH   8   9
ENDBRANCH   7   8
ENDBRANCH   1   7
BRANCH   6  27
HETATM   27  C28 UNL     1      17.315  20.967  17.132  1.00  0.00     0.271 C 
BRANCH  27  28
HETATM   28  N7  UNL     1      16.750  21.996  16.273  1.00  0.00    -0.075 N 
ATOM     29  H73 UNL     1      15.831  21.748  15.908  1.00  0.00     0.274 HD
ATOM     30  H72 UNL     1      16.470  22.832  16.787  1.00  0.00     0.274 HD
ATOM     31  H71 UNL     1      17.430  22.192  15.538  1.00  0.00     0.274 HD
ENDBRANCH  27  28
ENDBRANCH   6  27
BRANCH   4  32
HETATM   32  N2  UNL     1      13.747  17.918  18.686  1.00  0.00    -0.342 N 
HETATM   33  C18 UNL     1      12.594  17.898  18.130  1.00  0.00     0.110 A 
HETATM   34  C19 UNL     1      11.882  16.713  18.039  1.00  0.00     0.097 A 
HETATM   35  N6  UNL     1      12.073  19.020  17.626  1.00  0.00    -0.338 N 
HETATM   36  C20 UNL     1      10.639  16.651  17.439  1.00  0.00     0.107 A 
HETATM   37  N5  UNL     1      10.165  17.809  16.951  1.00  0.00    -0.339 N 
HETATM   38  C25 UNL     1      10.856  18.987  17.033  1.00  0.00     0.183 A 
ATOM     39  H5  UNL     1       9.250  17.811  16.500  1.00  0.00     0.168 HD
ATOM     40  H6  UNL     1      12.590  19.897  17.689  1.00  0.00     0.168 HD
ATOM     41  H2  UNL     1      14.113  17.041  19.054  1.00  0.00     0.167 HD
BRANCH  36  42
HETATM   42  N3  UNL     1       9.921  15.415  17.338  1.00  0.00    -0.364 N 
HETATM   43  C21 UNL     1      10.529  14.177  16.901  1.00  0.00     0.152 C 
HETATM   44  C22 UNL     1       9.627  13.314  16.095  1.00  0.00     0.252 C 
HETATM   45  N4  UNL     1       8.226  13.462  16.282  1.00  0.00    -0.072 N 
HETATM   46  C23 UNL     1       7.806  14.843  16.430  1.00  0.00     0.252 C 
ATOM     47  H42 UNL     1       7.709  13.006  15.530  1.00  0.00     0.277 HD
ATOM     48  H41 UNL     1       7.905  12.901  17.071  1.00  0.00     0.277 HD
HETATM   49  C24 UNL     1       8.520  15.323  17.704  1.00  0.00     0.152 C 
ENDBRANCH  36  42
ENDBRANCH   4  32
TORSDOF 12
ENDMDL
MODEL 3
REMARK VINA RESULT: -8.991653724      2.517      5.188
REMARK  12 active torsions:
REMARK  status: ('A' for Active; 'I' for Inactive)
REMARK    1  A    between atoms: O1_2  and  C2_3 
REMARK    2  A    between atoms: C7_8  and  O2_9 
REMARK    3  A    between atoms: N1_12  and  C10_13 
REMARK    4  A    between atoms: C10_13  and  C11_14 
REMARK    5  A    between atoms: C11_14  and  C12_15 
REMARK    6  A    between atoms: C12_15  and  C13_16 
REMARK    7  A    between atoms: C13_16  and  O3_17 
REMARK    8  A    between atoms: O3_17  and  C14_18 
REMARK    9  A    between atoms: C17_21  and  N2_22 
REMARK   10  A    between atoms: C20_26  and  N3_27 
REMARK   11  A    between atoms: C27_41  and  C28_42 
REMARK   12  A    between atoms: C28_42  and  N7_43 
ROOT
HETATM    1  C14 UNL     1      13.828  19.566  18.599  1.00  0.00     0.076 A 
HETATM    2  C15 UNL     1      14.674  19.899  17.537  1.00  0.00     0.039 A 
HETATM    3  C16 UNL     1      15.930  20.390  17.687  1.00  0.00     0.032 A 
HETATM    4  C17 UNL     1      16.414  20.578  18.969  1.00  0.00     0.034 A 
HETATM    5  C26 UNL     1      15.635  20.271  20.049  1.00  0.00     0.041 A 
HETATM    6  C27 UNL     1      14.364  19.773  19.875  1.00  0.00     0.003 A 
ENDROOT
BRANCH   1   7
HETATM    7  O3  UNL     1      12.649  19.105  18.400  1.00  0.00    -0.351 OA
BRANCH   7   8
HETATM    8  C13 UNL     1      11.454  18.703  18.112  1.00  0.00     0.175 C 
BRANCH   8   9
HETATM    9  C12 UNL     1      10.977  18.678  16.664  1.00  0.00     0.028 C 
BRANCH   9  10
HETATM   10  C11 UNL     1      10.979  20.052  16.086  1.00  0.00     0.022 C 
BRANCH  10  11
HETATM   11  C10 UNL     1      11.282  20.064  14.601  1.00  0.00     0.126 C 
BRANCH  11  12
HETATM   12  N1  UNL     1      12.509  20.774  14.303  1.00  0.00    -0.348 N 
HETATM   13  C9  UNL     1      12.637  22.095  14.878  1.00  0.00     0.165 C 
HETATM   14  C5  UNL     1      14.062  22.430  15.027  1.00  0.00    -0.031 A 
HETATM   15  C4  UNL     1      14.953  21.994  14.073  1.00  0.00    -0.039 A 
HETATM   16  C6  UNL     1      14.492  23.189  16.125  1.00  0.00     0.049 A 
HETATM   17  C3  UNL     1      16.295  22.314  14.209  1.00  0.00     0.047 A 
HETATM   18  C30 UNL     1      14.497  21.172  12.896  1.00  0.00     0.142 C 
HETATM   19  C2  UNL     1      16.733  23.063  15.286  1.00  0.00     0.102 A 
HETATM   20  C7  UNL     1      15.829  23.501  16.246  1.00  0.00     0.102 A 
HETATM   21  C29 UNL     1      13.517  20.195  13.489  1.00  0.00     0.224 C 
HETATM   22  O4  UNL     1      13.590  18.977  13.278  1.00  0.00    -0.273 OA
BRANCH  19  23
HETATM   23  O1  UNL     1      18.069  23.398  15.445  1.00  0.00    -0.353 OA
HETATM   24  C1  UNL     1      18.942  22.436  15.998  1.00  0.00     0.210 C 
ENDBRANCH  19  23
BRANCH  20  25
HETATM   25  O2  UNL     1      16.296  24.244  17.308  1.00  0.00    -0.353 OA
HETATM   26  C8  UNL     1      17.038  25.426  17.114  1.00  0.00     0.210 C 
ENDBRANCH  20  25
ENDBRANCH  11  12
ENDBRANCH  10  11
ENDBRANCH   9  10
ENDBRANCH   8   9
ENDBRANCH   7   8
ENDBRANCH   1   7
BRANCH   6  27
HETATM   27  C28 UNL     1      13.488  19.428  21.019  1.00  0.00     0.271 C 
BRANCH  27  28
HETATM   28  N7  UNL     1      13.221  18.000  20.955  1.00  0.00    -0.075 N 
ATOM     29  H73 UNL     1      14.003  17.467  20.574  1.00  0.00     0.274 HD
ATOM     30  H72 UNL     1      13.194  17.560  21.875  1.00  0.00     0.274 HD
ATOM     31  H71 UNL     1      12.358  17.871  20.426  1.00  0.00     0.274 HD
ENDBRANCH  27  28
ENDBRANCH   6  27
BRANCH   4  32
HETATM   32  N2  UNL     1      17.730  21.089  19.098  1.00  0.00    -0.342 N 
HETATM   33  C18 UNL     1      18.014  22.236  19.590  1.00  0.00     0.110 A 
HETATM   34  C19 UNL     1      19.333  22.653  19.676  1.00  0.00     0.097 A 
HETATM   35  N6  UNL     1      17.040  23.036  20.031  1.00  0.00    -0.338 N 
HETATM   36  C20 UNL     1      19.678  23.880  20.209  1.00  0.00     0.107 A 
HETATM   37  N5  UNL     1      18.658  24.643  20.636  1.00  0.00    -0.339 N 
HETATM   38  C25 UNL     1      17.352  24.245  20.557  1.00  0.00     0.183 A 
ATOM     39  H5  UNL     1      18.866  25.557  21.035  1.00  0.00     0.168 HD
ATOM     40  H6  UNL     1      16.066  22.738  19.971  1.00  0.00     0.168 HD
ATOM     41  H2  UNL     1      18.501  20.504  18.777  1.00  0.00     0.167 HD
BRANCH  36  42
HETATM   42  N3  UNL     1      21.048  24.291  20.307  1.00  0.00    -0.364 N 
HETATM   43  C21 UNL     1      21.520  25.589  19.875  1.00  0.00     0.152 C 
HETATM   44  C22 UNL     1      22.880  25.567  19.277  1.00  0.00     0.252 C 
HETATM   45  N4  UNL     1      23.756  24.516  19.660  1.00  0.00    -0.072 N 
HETATM   46  C23 UNL     1      23.097  23.227  19.767  1.00  0.00     0.252 C 
ATOM     47  H42 UNL     1      24.555  24.462  19.028  1.00  0.00     0.277 HD
ATOM     48  H41 UNL     1      24.242  24.746  20.527  1.00  0.00     0.277 HD
HETATM   49  C24 UNL     1      22.058  23.424  20.882  1.00  0.00     0.152 C 
ENDBRANCH  36  42
ENDBRANCH   4  32
TORSDOF 12
ENDMDL
MODEL 4
REMARK VINA RESULT: -8.860631822      4.573     11.499
REMARK  12 active torsions:
REMARK  status: ('A' for Active; 'I' for Inactive)
REMARK    1  A    between atoms: O1_2  and  C2_3 
REMARK    2  A    between atoms: C7_8  and  O2_9 
REMARK    3  A    between atoms: N1_12  and  C10_13 
REMARK    4  A    between atoms: C10_13  and  C11_14 
REMARK    5  A    between atoms: C11_14  and  C12_15 
REMARK    6  A    between atoms: C12_15  and  C13_16 
REMARK    7  A    between atoms: C13_16  and  O3_17 
REMARK    8  A    between atoms: O3_17  and  C14_18 
REMARK    9  A    between atoms: C17_21  and  N2_22 
REMARK   10  A    between atoms: C20_26  and  N3_27 
REMARK   11  A    between atoms: C27_41  and  C28_42 
REMARK   12  A    between atoms: C28_42  and  N7_43 
ROOT
HETATM    1  C14 UNL     1      22.446  24.851  21.147  1.00  0.00     0.076 A 
HETATM    2  C15 UNL     1      22.233  23.484  20.954  1.00  0.00     0.039 A 
HETATM    3  C16 UNL     1      21.020  22.926  20.711  1.00  0.00     0.032 A 
HETATM    4  C17 UNL     1      19.915  23.757  20.649  1.00  0.00     0.034 A 
HETATM    5  C26 UNL     1      20.059  25.104  20.830  1.00  0.00     0.041 A 
HETATM    6  C27 UNL     1      21.298  25.648  21.075  1.00  0.00     0.003 A 
ENDROOT
BRANCH   1   7
HETATM    7  O3  UNL     1      23.615  25.325  21.374  1.00  0.00    -0.351 OA
BRANCH   7   8
HETATM    8  C13 UNL     1      24.753  25.851  21.691  1.00  0.00     0.175 C 
BRANCH   8   9
HETATM    9  C12 UNL     1      26.025  25.010  21.666  1.00  0.00     0.028 C 
BRANCH   9  10
HETATM   10  C11 UNL     1      26.355  24.596  20.273  1.00  0.00     0.022 C 
BRANCH  10  11
HETATM   11  C10 UNL     1      27.090  25.673  19.500  1.00  0.00     0.126 C 
BRANCH  11  12
HETATM   12  N1  UNL     1      26.352  26.102  18.330  1.00  0.00    -0.348 N 
HETATM   13  C9  UNL     1      25.032  25.535  18.166  1.00  0.00     0.165 C 
HETATM   14  C5  UNL     1      24.201  26.448  17.366  1.00  0.00    -0.031 A 
HETATM   15  C4  UNL     1      24.786  27.162  16.345  1.00  0.00    -0.039 A 
HETATM   16  C6  UNL     1      22.832  26.575  17.644  1.00  0.00     0.049 A 
HETATM   17  C3  UNL     1      24.003  28.017  15.586  1.00  0.00     0.047 A 
HETATM   18  C30 UNL     1      26.258  27.034  16.047  1.00  0.00     0.142 C 
HETATM   19  C2  UNL     1      22.651  28.151  15.849  1.00  0.00     0.102 A 
HETATM   20  C7  UNL     1      22.066  27.428  16.881  1.00  0.00     0.102 A 
HETATM   21  C29 UNL     1      26.907  27.025  17.405  1.00  0.00     0.224 C 
HETATM   22  O4  UNL     1      27.855  27.769  17.689  1.00  0.00    -0.273 OA
BRANCH  19  23
HETATM   23  O1  UNL     1      21.846  28.999  15.105  1.00  0.00    -0.353 OA
HETATM   24  C1  UNL     1      21.623  28.693  13.744  1.00  0.00     0.210 C 
ENDBRANCH  19  23
BRANCH  20  25
HETATM   25  O2  UNL     1      20.718  27.584  17.118  1.00  0.00    -0.353 OA
HETATM   26  C8  UNL     1      19.805  26.529  16.921  1.00  0.00     0.210 C 
ENDBRANCH  20  25
ENDBRANCH  11  12
ENDBRANCH  10  11
ENDBRANCH   9  10
ENDBRANCH   8   9
ENDBRANCH   7   8
ENDBRANCH   1   7
BRANCH   6  27
HETATM   27  C28 UNL     1      21.494  27.103  21.276  1.00  0.00     0.271 C 
BRANCH  27  28
HETATM   28  N7  UNL     1      20.745  27.796  20.241  1.00  0.00    -0.075 N 
ATOM     29  H73 UNL     1      19.804  28.056  20.538  1.00  0.00     0.274 HD
ATOM     30  H72 UNL     1      21.093  28.738  20.061  1.00  0.00     0.274 HD
ATOM     31  H71 UNL     1      20.749  27.206  19.408  1.00  0.00     0.274 HD
ENDBRANCH  27  28
ENDBRANCH   6  27
BRANCH   4  32
HETATM   32  N2  UNL     1      18.660  23.150  20.391  1.00  0.00    -0.342 N 
HETATM   33  C18 UNL     1      18.208  22.895  19.222  1.00  0.00     0.110 A 
HETATM   34  C19 UNL     1      16.967  22.298  19.066  1.00  0.00     0.097 A 
HETATM   35  N6  UNL     1      18.933  23.196  18.142  1.00  0.00    -0.338 N 
HETATM   36  C20 UNL     1      16.449  22.000  17.820  1.00  0.00     0.107 A 
HETATM   37  N5  UNL     1      17.223  22.325  16.771  1.00  0.00    -0.339 N 
HETATM   38  C25 UNL     1      18.450  22.914  16.908  1.00  0.00     0.183 A 
ATOM     39  H5  UNL     1      16.881  22.124  15.832  1.00  0.00     0.168 HD
ATOM     40  H6  UNL     1      19.848  23.636  18.246  1.00  0.00     0.168 HD
ATOM     41  H2  UNL     1      18.079  22.901  21.191  1.00  0.00     0.167 HD
BRANCH  36  42
HETATM   42  N3  UNL     1      15.171  21.368  17.676  1.00  0.00    -0.364 N 
HETATM   43  C21 UNL     1      14.696  20.327  18.561  1.00  0.00     0.152 C 
HETATM   44  C22 UNL     1      13.884  19.284  17.883  1.00  0.00     0.252 C 
HETATM   45  N4  UNL     1      13.213  19.642  16.683  1.00  0.00    -0.072 N 
HETATM   46  C23 UNL     1      14.007  20.486  15.809  1.00  0.00     0.252 C 
ATOM     47  H42 UNL     1      12.889  18.811  16.187  1.00  0.00     0.277 HD
ATOM     48  H41 UNL     1      12.314  20.078  16.887  1.00  0.00     0.277 HD
HETATM   49  C24 UNL     1      14.248  21.762  16.629  1.00  0.00     0.152 C 
ENDBRANCH  36  42
ENDBRANCH   4  32
TORSDOF 12
ENDMDL
MODEL 5
REMARK VINA RESULT: -8.802849139      4.340     11.117
REMARK  12 active torsions:
REMARK  status: ('A' for Active; 'I' for Inactive)
REMARK    1  A    between atoms: O1_2  and  C2_3 
REMARK    2  A    between atoms: C7_8  and  O2_9 
REMARK    3  A    between atoms: N1_12  and  C10_13 
REMARK    4  A    between atoms: C10_13  and  C11_14 
REMARK    5  A    between atoms: C11_14  and  C12_15 
REMARK    6  A    between atoms: C12_15  and  C13_16 
REMARK    7  A    between atoms: C13_16  and  O3_17 
REMARK    8  A    between atoms: O3_17  and  C14_18 
REMARK    9  A    between atoms: C17_21  and  N2_22 
REMARK   10  A    between atoms: C20_26  and  N3_27 
REMARK   11  A    between atoms: C27_41  and  C28_42 
REMARK   12  A    between atoms: C28_42  and  N7_43 
ROOT
HETATM    1  C14 UNL     1      23.302  27.788  16.260  1.00  0.00     0.076 A 
HETATM    2  C15 UNL     1      23.185  26.983  17.396  1.00  0.00     0.039 A 
HETATM    3  C16 UNL     1      22.013  26.471  17.851  1.00  0.00     0.032 A 
HETATM    4  C17 UNL     1      20.854  26.759  17.152  1.00  0.00     0.034 A 
HETATM    5  C26 UNL     1      20.904  27.541  16.033  1.00  0.00     0.041 A 
HETATM    6  C27 UNL     1      22.103  28.050  15.588  1.00  0.00     0.003 A 
ENDROOT
BRANCH   1   7
HETATM    7  O3  UNL     1      24.436  28.246  15.874  1.00  0.00    -0.351 OA
BRANCH   7   8
HETATM    8  C13 UNL     1      25.625  28.627  15.540  1.00  0.00     0.175 C 
BRANCH   8   9
HETATM    9  C12 UNL     1      26.475  29.442  16.508  1.00  0.00     0.028 C 
BRANCH   9  10
HETATM   10  C11 UNL     1      26.604  28.738  17.816  1.00  0.00     0.022 C 
BRANCH  10  11
HETATM   11  C10 UNL     1      27.394  27.449  17.713  1.00  0.00     0.126 C 
BRANCH  11  12
HETATM   12  N1  UNL     1      26.699  26.336  18.326  1.00  0.00    -0.348 N 
HETATM   13  C9  UNL     1      26.332  26.501  19.715  1.00  0.00     0.165 C 
HETATM   14  C5  UNL     1      25.172  25.649  20.020  1.00  0.00    -0.031 A 
HETATM   15  C4  UNL     1      25.067  24.420  19.411  1.00  0.00    -0.039 A 
HETATM   16  C6  UNL     1      24.197  26.093  20.926  1.00  0.00     0.049 A 
HETATM   17  C3  UNL     1      23.977  23.614  19.703  1.00  0.00     0.047 A 
HETATM   18  C30 UNL     1      26.108  23.942  18.432  1.00  0.00     0.142 C 
HETATM   19  C2  UNL     1      23.009  24.038  20.596  1.00  0.00     0.102 A 
HETATM   20  C7  UNL     1      23.120  25.281  21.207  1.00  0.00     0.102 A 
HETATM   21  C29 UNL     1      26.405  25.156  17.593  1.00  0.00     0.224 C 
HETATM   22  O4  UNL     1      26.393  25.122  16.355  1.00  0.00    -0.273 OA
BRANCH  19  23
HETATM   23  O1  UNL     1      21.911  23.251  20.905  1.00  0.00    -0.353 OA
HETATM   24  C1  UNL     1      20.869  23.147  19.957  1.00  0.00     0.210 C 
ENDBRANCH  19  23
BRANCH  20  25
HETATM   25  O2  UNL     1      22.139  25.675  22.091  1.00  0.00    -0.353 OA
HETATM   26  C8  UNL     1      21.339  26.810  21.850  1.00  0.00     0.210 C 
ENDBRANCH  20  25
ENDBRANCH  11  12
ENDBRANCH  10  11
ENDBRANCH   9  10
ENDBRANCH   8   9
ENDBRANCH   7   8
ENDBRANCH   1   7
BRANCH   6  27
HETATM   27  C28 UNL     1      22.198  28.901  14.380  1.00  0.00     0.271 C 
BRANCH  27  28
HETATM   28  N7  UNL     1      21.012  28.658  13.575  1.00  0.00    -0.075 N 
ATOM     29  H73 UNL     1      20.837  27.666  13.415  1.00  0.00     0.274 HD
ATOM     30  H72 UNL     1      20.146  28.869  14.071  1.00  0.00     0.274 HD
ATOM     31  H71 UNL     1      21.113  29.187  12.708  1.00  0.00     0.274 HD
ENDBRANCH  27  28
ENDBRANCH   6  27
BRANCH   4  32
HETATM   32  N2  UNL     1      19.644  26.210  17.646  1.00  0.00    -0.342 N 
HETATM   33  C18 UNL     1      19.125  25.116  17.231  1.00  0.00     0.110 A 
HETATM   34  C19 UNL     1      17.936  24.655  17.775  1.00  0.00     0.097 A 
HETATM   35  N6  UNL     1      19.730  24.407  16.276  1.00  0.00    -0.338 N 
HETATM   36  C20 UNL     1      17.350  23.476  17.358  1.00  0.00     0.107 A 
HETATM   37  N5  UNL     1      18.003  22.805  16.395  1.00  0.00    -0.339 N 
HETATM   38  C25 UNL     1      19.176  23.247  15.848  1.00  0.00     0.183 A 
ATOM     39  H5  UNL     1      17.606  21.929  16.056  1.00  0.00     0.168 HD
ATOM     40  H6  UNL     1      20.605  24.738  15.869  1.00  0.00     0.168 HD
ATOM     41  H2  UNL     1      19.155  26.720  18.381  1.00  0.00     0.167 HD
BRANCH  36  42
HETATM   42  N3  UNL     1      16.129  23.004  17.941  1.00  0.00    -0.364 N 
HETATM   43  C21 UNL     1      16.078  22.250  19.175  1.00  0.00     0.152 C 
HETATM   44  C22 UNL     1      15.023  21.203  19.198  1.00  0.00     0.252 C 
HETATM   45  N4  UNL     1      13.893  21.382  18.356  1.00  0.00    -0.072 N 
HETATM   46  C23 UNL     1      14.229  21.905  17.045  1.00  0.00     0.252 C 
ATOM     47  H42 UNL     1      13.361  20.515  18.274  1.00  0.00     0.277 HD
ATOM     48  H41 UNL     1      13.192  21.967  18.810  1.00  0.00     0.277 HD
HETATM   49  C24 UNL     1      14.843  23.284  17.332  1.00  0.00     0.152 C 
ENDBRANCH  36  42
ENDBRANCH   4  32
TORSDOF 12
ENDMDL
