MODEL 1
REMARK VINA RESULT: -9.107569873      0.000      0.000
REMARK  12 active torsions:
REMARK  status: ('A' for Active; 'I' for Inactive)
REMARK    1  A    between atoms: C1_2  and  C2_3 
REMARK       I    between atoms: C1_2  and  N2_15 
REMARK    2  A    between atoms: C2_3  and  C3_4 
REMARK    3  A    between atoms: C3_4  and  C4_5 
REMARK       I    between atoms: C4_5  and  N1_7 
REMARK    4  A    between atoms: N1_7  and  C5_9 
REMARK    5  A    between atoms: N2_15  and  C11_17 
REMARK    6  A    between atoms: C12_22  and  C13_23 
REMARK    7  A    between atoms: C13_23  and  C14_24 
REMARK    8  A    between atoms: C14_24  and  S1_25 
REMARK    9  A    between atoms: S1_25  and  C15_26 
REMARK   10  A    between atoms: C15_26  and  C16_27 
REMARK   11  A    between atoms: C16_27  and  C17_28 
REMARK       I    between atoms: N7_34  and  C19_36 
REMARK   12  A    between atoms: C19_36  and  C20_38 
ROOT
HETATM    1  C11 UNL     1      14.768  21.700  14.918  1.00  0.00     0.167 A 
HETATM    2  N3  UNL     1      14.240  21.959  16.115  1.00  0.00    -0.279 N 
ATOM      3  H3  UNL     1      14.753  22.519  16.796  1.00  0.00     0.189 HD
HETATM    4  N4  UNL     1      13.093  21.497  16.395  1.00  0.00    -0.296 N 
ATOM      5  H4  UNL     1      12.679  21.687  17.307  1.00  0.00     0.187 HD
HETATM    6  C12 UNL     1      12.429  20.770  15.511  1.00  0.00     0.070 A 
HETATM    7  S3  UNL     1      13.525  20.751  14.199  1.00  0.00    -0.038 SA
ENDROOT
BRANCH   6   8
HETATM    8  C13 UNL     1      11.071  20.154  15.683  1.00  0.00     0.076 C 
BRANCH   8   9
HETATM    9  C14 UNL     1      11.225  18.695  16.056  1.00  0.00     0.080 C 
BRANCH   9  10
HETATM   10  S1  UNL     1      10.709  18.430  17.774  1.00  0.00    -0.168 SA
BRANCH  10  11
HETATM   11  C15 UNL     1      12.057  18.807  18.928  1.00  0.00     0.080 C 
BRANCH  11  12
HETATM   12  C16 UNL     1      13.318  18.168  18.325  1.00  0.00     0.076 C 
BRANCH  12  13
HETATM   13  C17 UNL     1      14.437  19.125  18.655  1.00  0.00     0.070 A 
HETATM   14  N5  UNL     1      15.545  19.329  17.960  1.00  0.00    -0.296 N 
HETATM   15  N6  UNL     1      16.405  20.171  18.364  1.00  0.00    -0.279 N 
ATOM     16  H5  UNL     1      15.708  18.808  17.098  1.00  0.00     0.187 HD
HETATM   17  C18 UNL     1      16.169  20.841  19.495  1.00  0.00     0.167 A 
ATOM     18  H6  UNL     1      17.262  20.332  17.834  1.00  0.00     0.189 HD
HETATM   19  N7  UNL     1      16.921  21.742  20.077  1.00  0.00    -0.306 N 
HETATM   20  S2  UNL     1      14.651  20.207  19.959  1.00  0.00    -0.038 SA
HETATM   21  C19 UNL     1      18.164  22.141  19.538  1.00  0.00     0.227 C 
ATOM     22  H7  UNL     1      16.599  22.168  20.945  1.00  0.00     0.171 HD
HETATM   23  O3  UNL     1      19.067  21.322  19.228  1.00  0.00    -0.273 OA
BRANCH  21  24
HETATM   24  C20 UNL     1      18.382  23.602  19.339  1.00  0.00     0.078 C 
HETATM   25  C21 UNL     1      19.816  24.058  19.509  1.00  0.00     0.014 C 
HETATM   26  C22 UNL     1      19.520  24.314  20.969  1.00  0.00     0.002 C 
HETATM   27  C23 UNL     1      18.049  24.389  20.604  1.00  0.00     0.014 C 
ENDBRANCH  21  24
ENDBRANCH  12  13
ENDBRANCH  11  12
ENDBRANCH  10  11
ENDBRANCH   9  10
ENDBRANCH   8   9
ENDBRANCH   6   8
BRANCH   1  28
HETATM   28  N2  UNL     1      15.921  22.070  14.419  1.00  0.00    -0.306 N 
HETATM   29  C1  UNL     1      16.943  22.401  15.338  1.00  0.00     0.224 C 
HETATM   30  O1  UNL     1      17.377  21.486  16.089  1.00  0.00    -0.273 OA
ATOM     31  H2  UNL     1      16.076  22.117  13.412  1.00  0.00     0.171 HD
BRANCH  29  32
HETATM   32  C2  UNL     1      17.517  23.758  15.455  1.00  0.00     0.112 C 
BRANCH  32  33
HETATM   33  C3  UNL     1      18.984  23.803  15.696  1.00  0.00     0.112 C 
BRANCH  33  34
HETATM   34  C4  UNL     1      19.487  25.176  15.909  1.00  0.00     0.218 C 
HETATM   35  O2  UNL     1      18.938  25.980  16.691  1.00  0.00    -0.274 OA
HETATM   36  N1  UNL     1      20.640  25.606  15.201  1.00  0.00    -0.356 N 
ATOM     37  H1  UNL     1      21.102  24.961  14.559  1.00  0.00     0.162 HD
BRANCH  36  38
HETATM   38  C5  UNL     1      21.178  26.949  15.374  1.00  0.00     0.084 C 
HETATM   39  C6  UNL     1      22.667  26.839  15.250  1.00  0.00     0.025 C 
HETATM   40  C7  UNL     1      23.392  28.135  15.452  1.00  0.00     0.002 C 
HETATM   41  C8  UNL     1      22.636  29.228  14.742  1.00  0.00     0.000 C 
HETATM   42  C9  UNL     1      21.770  28.595  13.678  1.00  0.00     0.002 C 
HETATM   43  C10 UNL     1      20.620  27.869  14.332  1.00  0.00     0.025 C 
ENDBRANCH  36  38
ENDBRANCH  33  34
ENDBRANCH  32  33
ENDBRANCH  29  32
ENDBRANCH   1  28
TORSDOF 12
ENDMDL
MODEL 2
REMARK VINA RESULT: -8.877104956      4.085      8.227
REMARK  12 active torsions:
REMARK  status: ('A' for Active; 'I' for Inactive)
REMARK    1  A    between atoms: C1_2  and  C2_3 
REMARK       I    between atoms: C1_2  and  N2_15 
REMARK    2  A    between atoms: C2_3  and  C3_4 
REMARK    3  A    between atoms: C3_4  and  C4_5 
REMARK       I    between atoms: C4_5  and  N1_7 
REMARK    4  A    between atoms: N1_7  and  C5_9 
REMARK    5  A    between atoms: N2_15  and  C11_17 
REMARK    6  A    between atoms: C12_22  and  C13_23 
REMARK    7  A    between atoms: C13_23  and  C14_24 
REMARK    8  A    between atoms: C14_24  and  S1_25 
REMARK    9  A    between atoms: S1_25  and  C15_26 
REMARK   10  A    between atoms: C15_26  and  C16_27 
REMARK   11  A    between atoms: C16_27  and  C17_28 
REMARK       I    between atoms: N7_34  and  C19_36 
REMARK   12  A    between atoms: C19_36  and  C20_38 
ROOT
HETATM    1  C11 UNL     1      15.705  23.707  16.896  1.00  0.00     0.167 A 
HETATM    2  N3  UNL     1      15.843  24.702  17.774  1.00  0.00    -0.279 N 
ATOM      3  H3  UNL     1      15.109  24.895  18.456  1.00  0.00     0.189 HD
HETATM    4  N4  UNL     1      16.899  25.403  17.749  1.00  0.00    -0.296 N 
ATOM      5  H4  UNL     1      17.016  26.166  18.415  1.00  0.00     0.187 HD
HETATM    6  C12 UNL     1      17.851  25.150  16.866  1.00  0.00     0.070 A 
HETATM    7  S3  UNL     1      17.182  23.824  16.020  1.00  0.00    -0.038 SA
ENDROOT
BRANCH   6   8
HETATM    8  C13 UNL     1      19.153  25.880  16.704  1.00  0.00     0.076 C 
BRANCH   8   9
HETATM    9  C14 UNL     1      19.941  25.255  15.573  1.00  0.00     0.080 C 
BRANCH   9  10
HETATM   10  S1  UNL     1      20.210  26.469  14.253  1.00  0.00    -0.168 SA
BRANCH  10  11
HETATM   11  C15 UNL     1      20.314  28.152  14.921  1.00  0.00     0.080 C 
BRANCH  11  12
HETATM   12  C16 UNL     1      21.794  28.552  14.826  1.00  0.00     0.076 C 
BRANCH  12  13
HETATM   13  C17 UNL     1      22.473  27.811  15.951  1.00  0.00     0.070 A 
HETATM   14  N5  UNL     1      22.194  27.889  17.243  1.00  0.00    -0.296 N 
HETATM   15  N6  UNL     1      22.857  27.203  18.081  1.00  0.00    -0.279 N 
ATOM     16  H5  UNL     1      21.445  28.502  17.565  1.00  0.00     0.187 HD
HETATM   17  C18 UNL     1      23.832  26.408  17.634  1.00  0.00     0.167 A 
ATOM     18  H6  UNL     1      22.648  27.259  19.078  1.00  0.00     0.189 HD
HETATM   19  N7  UNL     1      24.625  25.628  18.327  1.00  0.00    -0.306 N 
HETATM   20  S2  UNL     1      23.760  26.688  15.949  1.00  0.00    -0.038 SA
HETATM   21  C19 UNL     1      24.537  25.530  19.733  1.00  0.00     0.227 C 
ATOM     22  H7  UNL     1      25.328  25.076  17.835  1.00  0.00     0.171 HD
HETATM   23  O3  UNL     1      24.561  26.534  20.489  1.00  0.00    -0.273 OA
BRANCH  21  24
HETATM   24  C20 UNL     1      24.408  24.162  20.312  1.00  0.00     0.078 C 
HETATM   25  C21 UNL     1      25.289  23.897  21.513  1.00  0.00     0.014 C 
HETATM   26  C22 UNL     1      26.353  23.381  20.570  1.00  0.00     0.002 C 
HETATM   27  C23 UNL     1      25.257  23.152  19.545  1.00  0.00     0.014 C 
ENDBRANCH  21  24
ENDBRANCH  12  13
ENDBRANCH  11  12
ENDBRANCH  10  11
ENDBRANCH   9  10
ENDBRANCH   8   9
ENDBRANCH   6   8
BRANCH   1  28
HETATM   28  N2  UNL     1      14.714  22.865  16.742  1.00  0.00    -0.306 N 
HETATM   29  C1  UNL     1      14.518  21.908  17.763  1.00  0.00     0.224 C 
HETATM   30  O1  UNL     1      14.196  22.327  18.908  1.00  0.00    -0.273 OA
ATOM     31  H2  UNL     1      14.110  22.898  15.920  1.00  0.00     0.171 HD
BRANCH  29  32
HETATM   32  C2  UNL     1      14.672  20.454  17.549  1.00  0.00     0.112 C 
BRANCH  32  33
HETATM   33  C3  UNL     1      15.759  19.813  18.337  1.00  0.00     0.112 C 
BRANCH  33  34
HETATM   34  C4  UNL     1      17.019  20.584  18.306  1.00  0.00     0.218 C 
HETATM   35  O2  UNL     1      17.784  20.584  17.318  1.00  0.00    -0.274 OA
HETATM   36  N1  UNL     1      17.383  21.358  19.439  1.00  0.00    -0.356 N 
ATOM     37  H1  UNL     1      16.770  21.369  20.254  1.00  0.00     0.162 HD
BRANCH  36  38
HETATM   38  C5  UNL     1      18.615  22.136  19.462  1.00  0.00     0.084 C 
HETATM   39  C6  UNL     1      18.306  23.416  20.176  1.00  0.00     0.025 C 
HETATM   40  C7  UNL     1      19.462  24.367  20.247  1.00  0.00     0.002 C 
HETATM   41  C8  UNL     1      20.711  23.587  20.565  1.00  0.00     0.000 C 
HETATM   42  C9  UNL     1      20.307  22.281  21.208  1.00  0.00     0.002 C 
HETATM   43  C10 UNL     1      19.696  21.376  20.167  1.00  0.00     0.025 C 
ENDBRANCH  36  38
ENDBRANCH  33  34
ENDBRANCH  32  33
ENDBRANCH  29  32
ENDBRANCH   1  28
TORSDOF 12
ENDMDL
MODEL 3
REMARK VINA RESULT: -8.858758008      1.709      1.922
REMARK  12 active torsions:
REMARK  status: ('A' for Active; 'I' for Inactive)
REMARK    1  A    between atoms: C1_2  and  C2_3 
REMARK       I    between atoms: C1_2  and  N2_15 
REMARK    2  A    between atoms: C2_3  and  C3_4 
REMARK    3  A    between atoms: C3_4  and  C4_5 
REMARK       I    between atoms: C4_5  and  N1_7 
REMARK    4  A    between atoms: N1_7  and  C5_9 
REMARK    5  A    between atoms: N2_15  and  C11_17 
REMARK    6  A    between atoms: C12_22  and  C13_23 
REMARK    7  A    between atoms: C13_23  and  C14_24 
REMARK    8  A    between atoms: C14_24  and  S1_25 
REMARK    9  A    between atoms: S1_25  and  C15_26 
REMARK   10  A    between atoms: C15_26  and  C16_27 
REMARK   11  A    between atoms: C16_27  and  C17_28 
REMARK       I    between atoms: N7_34  and  C19_36 
REMARK   12  A    between atoms: C19_36  and  C20_38 
ROOT
HETATM    1  C11 UNL     1      15.312  23.223  16.279  1.00  0.00     0.167 A 
HETATM    2  N3  UNL     1      14.129  23.838  16.321  1.00  0.00    -0.279 N 
ATOM      3  H3  UNL     1      14.028  24.732  16.801  1.00  0.00     0.189 HD
HETATM    4  N4  UNL     1      13.132  23.295  15.756  1.00  0.00    -0.296 N 
ATOM      5  H4  UNL     1      12.223  23.755  15.782  1.00  0.00     0.187 HD
HETATM    6  C12 UNL     1      13.264  22.135  15.132  1.00  0.00     0.070 A 
HETATM    7  S3  UNL     1      14.924  21.809  15.377  1.00  0.00    -0.038 SA
ENDROOT
BRANCH   6   8
HETATM    8  C13 UNL     1      12.192  21.364  14.418  1.00  0.00     0.076 C 
BRANCH   8   9
HETATM    9  C14 UNL     1      12.199  19.930  14.902  1.00  0.00     0.080 C 
BRANCH   9  10
HETATM   10  S1  UNL     1      11.880  19.869  16.686  1.00  0.00    -0.168 SA
BRANCH  10  11
HETATM   11  C15 UNL     1      13.277  19.131  17.576  1.00  0.00     0.080 C 
BRANCH  11  12
HETATM   12  C16 UNL     1      13.198  19.676  19.010  1.00  0.00     0.076 C 
BRANCH  12  13
HETATM   13  C17 UNL     1      14.460  20.483  19.193  1.00  0.00     0.070 A 
HETATM   14  N5  UNL     1      14.572  21.676  19.754  1.00  0.00    -0.296 N 
HETATM   15  N6  UNL     1      15.707  22.238  19.837  1.00  0.00    -0.279 N 
ATOM     16  H5  UNL     1      13.743  22.144  20.122  1.00  0.00     0.187 HD
HETATM   17  C18 UNL     1      16.776  21.604  19.348  1.00  0.00     0.167 A 
ATOM     18  H6  UNL     1      15.801  23.158  20.267  1.00  0.00     0.189 HD
HETATM   19  N7  UNL     1      18.022  22.008  19.333  1.00  0.00    -0.306 N 
HETATM   20  S2  UNL     1      16.080  20.158  18.761  1.00  0.00    -0.038 SA
HETATM   21  C19 UNL     1      18.412  23.255  19.871  1.00  0.00     0.227 C 
ATOM     22  H7  UNL     1      18.733  21.404  18.920  1.00  0.00     0.171 HD
HETATM   23  O3  UNL     1      17.865  24.339  19.544  1.00  0.00    -0.273 OA
BRANCH  21  24
HETATM   24  C20 UNL     1      19.521  23.249  20.867  1.00  0.00     0.078 C 
HETATM   25  C21 UNL     1      20.513  24.382  20.717  1.00  0.00     0.014 C 
HETATM   26  C22 UNL     1      21.337  23.491  19.816  1.00  0.00     0.002 C 
HETATM   27  C23 UNL     1      20.640  22.300  20.446  1.00  0.00     0.014 C 
ENDBRANCH  21  24
ENDBRANCH  12  13
ENDBRANCH  11  12
ENDBRANCH  10  11
ENDBRANCH   9  10
ENDBRANCH   8   9
ENDBRANCH   6   8
BRANCH   1  28
HETATM   28  N2  UNL     1      16.461  23.594  16.785  1.00  0.00    -0.306 N 
HETATM   29  C1  UNL     1      17.337  24.308  15.936  1.00  0.00     0.224 C 
HETATM   30  O1  UNL     1      16.966  25.443  15.528  1.00  0.00    -0.273 OA
ATOM     31  H2  UNL     1      16.714  23.377  17.749  1.00  0.00     0.171 HD
BRANCH  29  32
HETATM   32  C2  UNL     1      18.653  23.789  15.510  1.00  0.00     0.112 C 
BRANCH  32  33
HETATM   33  C3  UNL     1      19.738  23.918  16.520  1.00  0.00     0.112 C 
BRANCH  33  34
HETATM   34  C4  UNL     1      20.253  25.298  16.634  1.00  0.00     0.218 C 
HETATM   35  O2  UNL     1      19.964  26.048  17.591  1.00  0.00    -0.274 OA
HETATM   36  N1  UNL     1      21.113  25.800  15.622  1.00  0.00    -0.356 N 
ATOM     37  H1  UNL     1      21.360  25.201  14.834  1.00  0.00     0.162 HD
BRANCH  36  38
HETATM   38  C5  UNL     1      21.649  27.153  15.685  1.00  0.00     0.084 C 
HETATM   39  C6  UNL     1      23.106  27.059  15.346  1.00  0.00     0.025 C 
HETATM   40  C7  UNL     1      23.832  28.368  15.412  1.00  0.00     0.002 C 
HETATM   41  C8  UNL     1      22.962  29.435  14.798  1.00  0.00     0.000 C 
HETATM   42  C9  UNL     1      21.961  28.766  13.886  1.00  0.00     0.002 C 
HETATM   43  C10 UNL     1      20.930  28.042  14.717  1.00  0.00     0.025 C 
ENDBRANCH  36  38
ENDBRANCH  33  34
ENDBRANCH  32  33
ENDBRANCH  29  32
ENDBRANCH   1  28
TORSDOF 12
ENDMDL
MODEL 4
REMARK VINA RESULT: -8.719088678      3.324      9.386
REMARK  12 active torsions:
REMARK  status: ('A' for Active; 'I' for Inactive)
REMARK    1  A    between atoms: C1_2  and  C2_3 
REMARK       I    between atoms: C1_2  and  N2_15 
REMARK    2  A    between atoms: C2_3  and  C3_4 
REMARK    3  A    between atoms: C3_4  and  C4_5 
REMARK       I    between atoms: C4_5  and  N1_7 
REMARK    4  A    between atoms: N1_7  and  C5_9 
REMARK    5  A    between atoms: N2_15  and  C11_17 
REMARK    6  A    between atoms: C12_22  and  C13_23 
REMARK    7  A    between atoms: C13_23  and  C14_24 
REMARK    8  A    between atoms: C14_24  and  S1_25 
REMARK    9  A    between atoms: S1_25  and  C15_26 
REMARK   10  A    between atoms: C15_26  and  C16_27 
REMARK   11  A    between atoms: C16_27  and  C17_28 
REMARK       I    between atoms: N7_34  and  C19_36 
REMARK   12  A    between atoms: C19_36  and  C20_38 
ROOT
HETATM    1  C11 UNL     1      21.285  26.037  19.571  1.00  0.00     0.167 A 
HETATM    2  N3  UNL     1      22.356  25.387  19.114  1.00  0.00    -0.279 N 
ATOM      3  H3  UNL     1      22.702  24.558  19.597  1.00  0.00     0.189 HD
HETATM    4  N4  UNL     1      22.938  25.814  18.072  1.00  0.00    -0.296 N 
ATOM      5  H4  UNL     1      23.758  25.326  17.714  1.00  0.00     0.187 HD
HETATM    6  C12 UNL     1      22.488  26.889  17.445  1.00  0.00     0.070 A 
HETATM    7  S3  UNL     1      21.146  27.309  18.418  1.00  0.00    -0.038 SA
ENDROOT
BRANCH   6   8
HETATM    8  C13 UNL     1      23.056  27.520  16.207  1.00  0.00     0.076 C 
BRANCH   8   9
HETATM    9  C14 UNL     1      22.096  28.571  15.694  1.00  0.00     0.080 C 
BRANCH   9  10
HETATM   10  S1  UNL     1      21.228  27.961  14.223  1.00  0.00    -0.168 SA
BRANCH  10  11
HETATM   11  C15 UNL     1      19.722  27.059  14.679  1.00  0.00     0.080 C 
BRANCH  11  12
HETATM   12  C16 UNL     1      20.179  25.643  15.060  1.00  0.00     0.076 C 
BRANCH  12  13
HETATM   13  C17 UNL     1      18.914  24.912  15.439  1.00  0.00     0.070 A 
HETATM   14  N5  UNL     1      17.741  25.446  15.737  1.00  0.00    -0.296 N 
HETATM   15  N6  UNL     1      16.759  24.700  16.042  1.00  0.00    -0.279 N 
ATOM     16  H5  UNL     1      17.625  26.460  15.722  1.00  0.00     0.187 HD
HETATM   17  C18 UNL     1      16.936  23.376  16.054  1.00  0.00     0.167 A 
ATOM     18  H6  UNL     1      15.852  25.105  16.274  1.00  0.00     0.189 HD
HETATM   19  N7  UNL     1      16.062  22.443  16.340  1.00  0.00    -0.306 N 
HETATM   20  S2  UNL     1      18.581  23.246  15.609  1.00  0.00    -0.038 SA
HETATM   21  C19 UNL     1      14.730  22.749  16.695  1.00  0.00     0.227 C 
ATOM     22  H7  UNL     1      16.353  21.467  16.304  1.00  0.00     0.171 HD
HETATM   23  O3  UNL     1      14.438  23.560  17.611  1.00  0.00    -0.273 OA
BRANCH  21  24
HETATM   24  C20 UNL     1      13.648  22.066  15.930  1.00  0.00     0.078 C 
HETATM   25  C21 UNL     1      14.125  20.979  14.991  1.00  0.00     0.014 C 
HETATM   26  C22 UNL     1      14.222  22.019  13.898  1.00  0.00     0.002 C 
HETATM   27  C23 UNL     1      13.250  22.869  14.695  1.00  0.00     0.014 C 
ENDBRANCH  21  24
ENDBRANCH  12  13
ENDBRANCH  11  12
ENDBRANCH  10  11
ENDBRANCH   9  10
ENDBRANCH   8   9
ENDBRANCH   6   8
BRANCH   1  28
HETATM   28  N2  UNL     1      20.536  25.779  20.613  1.00  0.00    -0.306 N 
HETATM   29  C1  UNL     1      20.012  24.471  20.721  1.00  0.00     0.224 C 
HETATM   30  O1  UNL     1      20.828  23.521  20.868  1.00  0.00    -0.273 OA
ATOM     31  H2  UNL     1      20.340  26.491  21.318  1.00  0.00     0.171 HD
BRANCH  29  32
HETATM   32  C2  UNL     1      18.565  24.173  20.668  1.00  0.00     0.112 C 
BRANCH  32  33
HETATM   33  C3  UNL     1      18.092  23.575  19.391  1.00  0.00     0.112 C 
BRANCH  33  34
HETATM   34  C4  UNL     1      17.659  22.170  19.543  1.00  0.00     0.218 C 
HETATM   35  O2  UNL     1      18.461  21.212  19.511  1.00  0.00    -0.274 OA
HETATM   36  N1  UNL     1      16.281  21.888  19.734  1.00  0.00    -0.356 N 
ATOM     37  H1  UNL     1      15.613  22.658  19.763  1.00  0.00     0.162 HD
BRANCH  36  38
HETATM   38  C5  UNL     1      15.801  20.521  19.889  1.00  0.00     0.084 C 
HETATM   39  C6  UNL     1      14.660  20.569  20.859  1.00  0.00     0.025 C 
HETATM   40  C7  UNL     1      14.073  19.227  21.175  1.00  0.00     0.002 C 
HETATM   41  C8  UNL     1      13.969  18.432  19.899  1.00  0.00     0.000 C 
HETATM   42  C9  UNL     1      13.974  19.396  18.736  1.00  0.00     0.002 C 
HETATM   43  C10 UNL     1      15.357  19.974  18.567  1.00  0.00     0.025 C 
ENDBRANCH  36  38
ENDBRANCH  33  34
ENDBRANCH  32  33
ENDBRANCH  29  32
ENDBRANCH   1  28
TORSDOF 12
ENDMDL
MODEL 5
REMARK VINA RESULT: -8.696915950      2.095      3.210
REMARK  12 active torsions:
REMARK  status: ('A' for Active; 'I' for Inactive)
REMARK    1  A    between atoms: C1_2  and  C2_3 
REMARK       I    between atoms: C1_2  and  N2_15 
REMARK    2  A    between atoms: C2_3  and  C3_4 
REMARK    3  A    between atoms: C3_4  and  C4_5 
REMARK       I    between atoms: C4_5  and  N1_7 
REMARK    4  A    between atoms: N1_7  and  C5_9 
REMARK    5  A    between atoms: N2_15  and  C11_17 
REMARK    6  A    between atoms: C12_22  and  C13_23 
REMARK    7  A    between atoms: C13_23  and  C14_24 
REMARK    8  A    between atoms: C14_24  and  S1_25 
REMARK    9  A    between atoms: S1_25  and  C15_26 
REMARK   10  A    between atoms: C15_26  and  C16_27 
REMARK   11  A    between atoms: C16_27  and  C17_28 
REMARK       I    between atoms: N7_34  and  C19_36 
REMARK   12  A    between atoms: C19_36  and  C20_38 
ROOT
HETATM    1  C11 UNL     1      18.020  23.543  15.780  1.00  0.00     0.167 A 
HETATM    2  N3  UNL     1      17.278  24.443  16.427  1.00  0.00    -0.279 N 
ATOM      3  H3  UNL     1      17.719  25.223  16.915  1.00  0.00     0.189 HD
HETATM    4  N4  UNL     1      16.016  24.315  16.427  1.00  0.00    -0.296 N 
ATOM      5  H4  UNL     1      15.438  24.996  16.919  1.00  0.00     0.187 HD
HETATM    6  C12 UNL     1      15.444  23.305  15.792  1.00  0.00     0.070 A 
HETATM    7  S3  UNL     1      16.808  22.490  15.160  1.00  0.00    -0.038 SA
ENDROOT
BRANCH   6   8
HETATM    8  C13 UNL     1      13.976  23.011  15.696  1.00  0.00     0.076 C 
BRANCH   8   9
HETATM    9  C14 UNL     1      13.774  21.687  14.991  1.00  0.00     0.080 C 
BRANCH   9  10
HETATM   10  S1  UNL     1      12.484  20.724  15.826  1.00  0.00    -0.168 SA
BRANCH  10  11
HETATM   11  C15 UNL     1      13.206  19.518  16.973  1.00  0.00     0.080 C 
BRANCH  11  12
HETATM   12  C16 UNL     1      13.025  20.114  18.377  1.00  0.00     0.076 C 
BRANCH  12  13
HETATM   13  C17 UNL     1      14.318  20.837  18.665  1.00  0.00     0.070 A 
HETATM   14  N5  UNL     1      14.460  22.041  19.196  1.00  0.00    -0.296 N 
HETATM   15  N6  UNL     1      15.619  22.526  19.378  1.00  0.00    -0.279 N 
ATOM     16  H5  UNL     1      13.635  22.582  19.458  1.00  0.00     0.187 HD
HETATM   17  C18 UNL     1      16.684  21.799  19.026  1.00  0.00     0.167 A 
ATOM     18  H6  UNL     1      15.736  23.453  19.786  1.00  0.00     0.189 HD
HETATM   19  N7  UNL     1      17.951  22.113  19.129  1.00  0.00    -0.306 N 
HETATM   20  S2  UNL     1      15.946  20.382  18.417  1.00  0.00    -0.038 SA
HETATM   21  C19 UNL     1      18.375  23.350  19.663  1.00  0.00     0.227 C 
ATOM     22  H7  UNL     1      18.653  21.444  18.814  1.00  0.00     0.171 HD
HETATM   23  O3  UNL     1      17.946  24.455  19.245  1.00  0.00    -0.273 OA
BRANCH  21  24
HETATM   24  C20 UNL     1      19.372  23.307  20.770  1.00  0.00     0.078 C 
HETATM   25  C21 UNL     1      20.452  24.364  20.692  1.00  0.00     0.014 C 
HETATM   26  C22 UNL     1      21.299  23.386  19.910  1.00  0.00     0.002 C 
HETATM   27  C23 UNL     1      20.458  22.269  20.499  1.00  0.00     0.014 C 
ENDBRANCH  21  24
ENDBRANCH  12  13
ENDBRANCH  11  12
ENDBRANCH  10  11
ENDBRANCH   9  10
ENDBRANCH   8   9
ENDBRANCH   6   8
BRANCH   1  28
HETATM   28  N2  UNL     1      19.321  23.478  15.648  1.00  0.00    -0.306 N 
HETATM   29  C1  UNL     1      20.044  24.685  15.793  1.00  0.00     0.224 C 
HETATM   30  O1  UNL     1      20.024  25.249  16.920  1.00  0.00    -0.273 OA
ATOM     31  H2  UNL     1      19.792  22.596  15.448  1.00  0.00     0.171 HD
BRANCH  29  32
HETATM   32  C2  UNL     1      20.812  25.304  14.694  1.00  0.00     0.112 C 
BRANCH  32  33
HETATM   33  C3  UNL     1      20.437  26.708  14.376  1.00  0.00     0.112 C 
BRANCH  33  34
HETATM   34  C4  UNL     1      21.295  27.698  15.060  1.00  0.00     0.218 C 
HETATM   35  O2  UNL     1      20.861  28.798  15.466  1.00  0.00    -0.274 OA
HETATM   36  N1  UNL     1      22.666  27.397  15.269  1.00  0.00    -0.356 N 
ATOM     37  H1  UNL     1      23.036  26.504  14.944  1.00  0.00     0.162 HD
BRANCH  36  38
HETATM   38  C5  UNL     1      23.556  28.338  15.937  1.00  0.00     0.084 C 
HETATM   39  C6  UNL     1      24.643  27.528  16.576  1.00  0.00     0.025 C 
HETATM   40  C7  UNL     1      25.630  28.342  17.356  1.00  0.00     0.002 C 
HETATM   41  C8  UNL     1      25.952  29.590  16.575  1.00  0.00     0.000 C 
HETATM   42  C9  UNL     1      25.620  29.342  15.123  1.00  0.00     0.002 C 
HETATM   43  C10 UNL     1      24.122  29.309  14.948  1.00  0.00     0.025 C 
ENDBRANCH  36  38
ENDBRANCH  33  34
ENDBRANCH  32  33
ENDBRANCH  29  32
ENDBRANCH   1  28
TORSDOF 12
ENDMDL
