MODEL 1
REMARK VINA RESULT: -10.245798189      0.000      0.000
REMARK  12 active torsions:
REMARK  status: ('A' for Active; 'I' for Inactive)
REMARK    1  A    between atoms: C2_2  and  N1_3 
REMARK    2  A    between atoms: C3_4  and  C4_5 
REMARK    3  A    between atoms: C4_5  and  C5_6 
REMARK    4  A    between atoms: C5_6  and  S1_7 
REMARK    5  A    between atoms: S1_7  and  C6_8 
REMARK    6  A    between atoms: C6_8  and  C7_9 
REMARK    7  A    between atoms: C7_9  and  C8_10 
REMARK       I    between atoms: N4_16  and  C10_18 
REMARK    8  A    between atoms: C10_18  and  C11_20 
REMARK    9  A    between atoms: C11_20  and  C14_23 
REMARK   10  A    between atoms: C14_23  and  N5_24 
REMARK       I    between atoms: N8_34  and  C16_36 
REMARK   11  A    between atoms: C16_36  and  C17_38 
REMARK   12  A    between atoms: C17_38  and  C18_39 
ROOT
HETATM    1  N1  UNL     1      11.888  62.462  17.951  1.00  0.00    -0.170 N 
HETATM    2  C3  UNL     1      11.810  61.159  17.580  1.00  0.00     0.115 A 
HETATM    3  N6  UNL     1      12.936  60.556  17.979  1.00  0.00    -0.274 N 
ATOM      4  H6  UNL     1      13.154  59.570  17.835  1.00  0.00     0.189 HD
HETATM    5  N7  UNL     1      13.709  61.409  18.575  1.00  0.00    -0.130 N 
ATOM      6  H7  UNL     1      14.627  61.218  18.978  1.00  0.00     0.205 HD
HETATM    7  C15 UNL     1      13.051  62.627  18.563  1.00  0.00     0.703 A 
HETATM    8  N8  UNL     1      13.605  63.640  19.072  1.00  0.00    -0.158 N 
ATOM      9  H8  UNL     1      14.519  63.434  19.475  1.00  0.00     0.187 HD
HETATM   10  C16 UNL     1      13.243  64.960  19.203  1.00  0.00     0.240 C 
HETATM   11  O2  UNL     1      12.479  65.424  20.108  1.00  0.00    -0.272 OA
ENDROOT
BRANCH   2  12
HETATM   12  C4  UNL     1      10.705  60.511  16.855  1.00  0.00     0.089 C 
BRANCH  12  13
HETATM   13  C5  UNL     1      10.959  60.651  15.360  1.00  0.00     0.081 C 
BRANCH  13  14
HETATM   14  S1  UNL     1       9.612  59.932  14.483  1.00  0.00    -0.168 SA
BRANCH  14  15
HETATM   15  C6  UNL     1       9.162  58.260  14.771  1.00  0.00     0.080 C 
BRANCH  15  16
HETATM   16  C7  UNL     1       7.782  57.977  15.138  1.00  0.00     0.076 C 
BRANCH  16  17
HETATM   17  C8  UNL     1       7.110  58.696  16.238  1.00  0.00     0.070 A 
HETATM   18  N2  UNL     1       6.098  59.528  16.318  1.00  0.00    -0.296 N 
HETATM   19  N3  UNL     1       5.708  60.019  17.413  1.00  0.00    -0.279 N 
ATOM     20  H2  UNL     1       5.607  59.788  15.462  1.00  0.00     0.187 HD
HETATM   21  C9  UNL     1       6.352  59.676  18.532  1.00  0.00     0.167 A 
ATOM     22  H3  UNL     1       4.917  60.663  17.444  1.00  0.00     0.189 HD
HETATM   23  N4  UNL     1       6.096  60.077  19.754  1.00  0.00    -0.305 N 
HETATM   24  S2  UNL     1       7.545  58.615  17.937  1.00  0.00    -0.038 SA
HETATM   25  C10 UNL     1       6.936  59.561  20.779  1.00  0.00     0.233 C 
ATOM     26  H4  UNL     1       5.334  60.724  19.959  1.00  0.00     0.171 HD
HETATM   27  O1  UNL     1       7.457  58.417  20.612  1.00  0.00    -0.272 OA
BRANCH  25  28
HETATM   28  C11 UNL     1       7.192  60.346  22.006  1.00  0.00     0.057 C 
HETATM   29  C12 UNL     1       7.389  59.447  23.217  1.00  0.00     0.027 C 
HETATM   30  C13 UNL     1       5.981  61.209  22.276  1.00  0.00     0.027 C 
BRANCH  28  31
HETATM   31  C14 UNL     1       8.444  61.191  21.871  1.00  0.00     0.247 C 
BRANCH  31  32
HETATM   32  N5  UNL     1       9.245  60.693  20.772  1.00  0.00    -0.078 N 
ATOM     33  H53 UNL     1      10.227  60.952  20.862  1.00  0.00     0.274 HD
ATOM     34  H52 UNL     1       9.358  59.680  20.805  1.00  0.00     0.274 HD
ATOM     35  H51 UNL     1       8.842  61.007  19.889  1.00  0.00     0.274 HD
ENDBRANCH  31  32
ENDBRANCH  28  31
ENDBRANCH  25  28
ENDBRANCH  16  17
ENDBRANCH  15  16
ENDBRANCH  14  15
ENDBRANCH  13  14
ENDBRANCH  12  13
ENDBRANCH   2  12
BRANCH   1  36
HETATM   36  C2  UNL     1      10.850  63.416  17.695  1.00  0.00     0.144 C 
HETATM   37  C1  UNL     1      11.083  64.222  16.424  1.00  0.00     0.027 C 
ENDBRANCH   1  36
BRANCH  10  38
HETATM   38  C17 UNL     1      13.785  65.940  18.210  1.00  0.00     0.144 C 
BRANCH  38  39
HETATM   39  C18 UNL     1      15.035  66.564  18.687  1.00  0.00    -0.022 A 
HETATM   40  C19 UNL     1      15.112  67.079  19.956  1.00  0.00     0.010 A 
HETATM   41  C20 UNL     1      16.247  67.674  20.466  1.00  0.00     0.002 A 
HETATM   42  C21 UNL     1      17.359  67.755  19.666  1.00  0.00     0.014 A 
HETATM   43  C22 UNL     1      17.298  67.243  18.389  1.00  0.00    -0.008 A 
HETATM   44  C23 UNL     1      18.232  67.170  17.348  1.00  0.00     0.030 A 
HETATM   45  C25 UNL     1      16.159  66.648  17.881  1.00  0.00     0.049 A 
HETATM   46  C24 UNL     1      17.606  66.546  16.294  1.00  0.00     0.089 A 
HETATM   47  N9  UNL     1      16.346  66.228  16.616  1.00  0.00    -0.365 N 
ATOM     48  H9  UNL     1      15.663  65.759  16.021  1.00  0.00     0.165 HD
ENDBRANCH  38  39
ENDBRANCH  10  38
TORSDOF 12
ENDMDL
MODEL 2
REMARK VINA RESULT: -10.224453076      2.866      8.361
REMARK  12 active torsions:
REMARK  status: ('A' for Active; 'I' for Inactive)
REMARK    1  A    between atoms: C2_2  and  N1_3 
REMARK    2  A    between atoms: C3_4  and  C4_5 
REMARK    3  A    between atoms: C4_5  and  C5_6 
REMARK    4  A    between atoms: C5_6  and  S1_7 
REMARK    5  A    between atoms: S1_7  and  C6_8 
REMARK    6  A    between atoms: C6_8  and  C7_9 
REMARK    7  A    between atoms: C7_9  and  C8_10 
REMARK       I    between atoms: N4_16  and  C10_18 
REMARK    8  A    between atoms: C10_18  and  C11_20 
REMARK    9  A    between atoms: C11_20  and  C14_23 
REMARK   10  A    between atoms: C14_23  and  N5_24 
REMARK       I    between atoms: N8_34  and  C16_36 
REMARK   11  A    between atoms: C16_36  and  C17_38 
REMARK   12  A    between atoms: C17_38  and  C18_39 
ROOT
HETATM    1  N1  UNL     1      10.453  61.083  16.028  1.00  0.00    -0.170 N 
HETATM    2  C3  UNL     1      11.587  61.829  16.005  1.00  0.00     0.115 A 
HETATM    3  N6  UNL     1      12.283  61.541  17.111  1.00  0.00    -0.274 N 
ATOM      4  H6  UNL     1      13.183  61.954  17.359  1.00  0.00     0.189 HD
HETATM    5  N7  UNL     1      11.648  60.661  17.819  1.00  0.00    -0.130 N 
ATOM      6  H7  UNL     1      11.951  60.264  18.708  1.00  0.00     0.205 HD
HETATM    7  C15 UNL     1      10.480  60.363  17.139  1.00  0.00     0.703 A 
HETATM    8  N8  UNL     1       9.666  59.534  17.632  1.00  0.00    -0.158 N 
ATOM      9  H8  UNL     1       9.984  59.142  18.518  1.00  0.00     0.187 HD
HETATM   10  C16 UNL     1       8.443  59.046  17.233  1.00  0.00     0.240 C 
HETATM   11  O2  UNL     1       8.268  58.106  16.395  1.00  0.00    -0.272 OA
ENDROOT
BRANCH   2  12
HETATM   12  C4  UNL     1      11.988  62.796  14.971  1.00  0.00     0.089 C 
BRANCH  12  13
HETATM   13  C5  UNL     1      13.510  62.813  14.889  1.00  0.00     0.081 C 
BRANCH  13  14
HETATM   14  S1  UNL     1      14.031  64.393  14.309  1.00  0.00    -0.168 SA
BRANCH  14  15
HETATM   15  C6  UNL     1      15.453  65.160  14.993  1.00  0.00     0.080 C 
BRANCH  15  16
HETATM   16  C7  UNL     1      15.336  65.762  16.314  1.00  0.00     0.076 C 
BRANCH  16  17
HETATM   17  C8  UNL     1      14.771  65.018  17.456  1.00  0.00     0.070 A 
HETATM   18  N2  UNL     1      15.262  64.213  18.371  1.00  0.00    -0.296 N 
HETATM   19  N3  UNL     1      14.545  63.689  19.268  1.00  0.00    -0.279 N 
ATOM     20  H2  UNL     1      16.260  64.003  18.356  1.00  0.00     0.187 HD
HETATM   21  C9  UNL     1      13.238  63.966  19.285  1.00  0.00     0.167 A 
ATOM     22  H3  UNL     1      14.955  63.067  19.966  1.00  0.00     0.189 HD
HETATM   23  N4  UNL     1      12.340  63.523  20.132  1.00  0.00    -0.305 N 
HETATM   24  S2  UNL     1      13.086  65.016  17.951  1.00  0.00    -0.038 SA
HETATM   25  C10 UNL     1      11.006  63.971  19.931  1.00  0.00     0.233 C 
ATOM     26  H4  UNL     1      12.586  62.890  20.893  1.00  0.00     0.171 HD
HETATM   27  O1  UNL     1      10.826  65.105  19.394  1.00  0.00    -0.272 OA
BRANCH  25  28
HETATM   28  C11 UNL     1       9.861  63.128  20.341  1.00  0.00     0.057 C 
HETATM   29  C12 UNL     1      10.321  61.803  20.928  1.00  0.00     0.027 C 
HETATM   30  C13 UNL     1       9.040  62.817  19.111  1.00  0.00     0.027 C 
BRANCH  28  31
HETATM   31  C14 UNL     1       9.019  63.815  21.399  1.00  0.00     0.247 C 
BRANCH  31  32
HETATM   32  N5  UNL     1       9.838  64.766  22.123  1.00  0.00    -0.078 N 
ATOM     33  H53 UNL     1      10.617  65.110  21.562  1.00  0.00     0.274 HD
ATOM     34  H52 UNL     1       9.359  65.655  22.268  1.00  0.00     0.274 HD
ATOM     35  H51 UNL     1      10.148  64.347  23.000  1.00  0.00     0.274 HD
ENDBRANCH  31  32
ENDBRANCH  28  31
ENDBRANCH  25  28
ENDBRANCH  16  17
ENDBRANCH  15  16
ENDBRANCH  14  15
ENDBRANCH  13  14
ENDBRANCH  12  13
ENDBRANCH   2  12
BRANCH   1  36
HETATM   36  C2  UNL     1       9.465  61.124  14.992  1.00  0.00     0.144 C 
HETATM   37  C1  UNL     1       9.680  60.062  13.922  1.00  0.00     0.027 C 
ENDBRANCH   1  36
BRANCH  10  38
HETATM   38  C17 UNL     1       7.213  59.659  17.827  1.00  0.00     0.144 C 
BRANCH  38  39
HETATM   39  C18 UNL     1       7.264  59.661  19.302  1.00  0.00    -0.022 A 
HETATM   40  C19 UNL     1       7.982  58.705  19.972  1.00  0.00     0.010 A 
HETATM   41  C20 UNL     1       8.073  58.648  21.347  1.00  0.00     0.002 A 
HETATM   42  C21 UNL     1       7.412  59.598  22.086  1.00  0.00     0.014 A 
HETATM   43  C22 UNL     1       6.686  60.565  21.428  1.00  0.00    -0.008 A 
HETATM   44  C23 UNL     1       5.918  61.646  21.877  1.00  0.00     0.030 A 
HETATM   45  C25 UNL     1       6.596  60.618  20.050  1.00  0.00     0.049 A 
HETATM   46  C24 UNL     1       5.420  62.274  20.758  1.00  0.00     0.089 A 
HETATM   47  N9  UNL     1       5.833  61.650  19.646  1.00  0.00    -0.365 N 
ATOM     48  H9  UNL     1       5.612  61.906  18.684  1.00  0.00     0.165 HD
ENDBRANCH  38  39
ENDBRANCH  10  38
TORSDOF 12
ENDMDL
MODEL 3
REMARK VINA RESULT: -10.067071985      2.823      7.422
REMARK  12 active torsions:
REMARK  status: ('A' for Active; 'I' for Inactive)
REMARK    1  A    between atoms: C2_2  and  N1_3 
REMARK    2  A    between atoms: C3_4  and  C4_5 
REMARK    3  A    between atoms: C4_5  and  C5_6 
REMARK    4  A    between atoms: C5_6  and  S1_7 
REMARK    5  A    between atoms: S1_7  and  C6_8 
REMARK    6  A    between atoms: C6_8  and  C7_9 
REMARK    7  A    between atoms: C7_9  and  C8_10 
REMARK       I    between atoms: N4_16  and  C10_18 
REMARK    8  A    between atoms: C10_18  and  C11_20 
REMARK    9  A    between atoms: C11_20  and  C14_23 
REMARK   10  A    between atoms: C14_23  and  N5_24 
REMARK       I    between atoms: N8_34  and  C16_36 
REMARK   11  A    between atoms: C16_36  and  C17_38 
REMARK   12  A    between atoms: C17_38  and  C18_39 
ROOT
HETATM    1  N1  UNL     1      13.823  63.551  16.551  1.00  0.00    -0.170 N 
HETATM    2  C3  UNL     1      14.916  64.237  16.973  1.00  0.00     0.115 A 
HETATM    3  N6  UNL     1      15.446  63.561  18.000  1.00  0.00    -0.274 N 
ATOM      4  H6  UNL     1      16.279  63.842  18.518  1.00  0.00     0.189 HD
HETATM    5  N7  UNL     1      14.745  62.497  18.240  1.00  0.00    -0.130 N 
ATOM      6  H7  UNL     1      14.924  61.803  18.967  1.00  0.00     0.205 HD
HETATM    7  C15 UNL     1      13.708  62.481  17.323  1.00  0.00     0.703 A 
HETATM    8  N8  UNL     1      12.862  61.546  17.355  1.00  0.00    -0.158 N 
ATOM      9  H8  UNL     1      13.055  60.858  18.082  1.00  0.00     0.187 HD
HETATM   10  C16 UNL     1      11.735  61.254  16.621  1.00  0.00     0.240 C 
HETATM   11  O2  UNL     1      11.729  60.678  15.487  1.00  0.00    -0.272 OA
ENDROOT
BRANCH   2  12
HETATM   12  C4  UNL     1      15.433  65.501  16.428  1.00  0.00     0.089 C 
BRANCH  12  13
HETATM   13  C5  UNL     1      15.546  66.509  17.565  1.00  0.00     0.081 C 
BRANCH  13  14
HETATM   14  S1  UNL     1      13.930  66.875  18.164  1.00  0.00    -0.168 SA
BRANCH  14  15
HETATM   15  C6  UNL     1      13.189  65.856  19.385  1.00  0.00     0.080 C 
BRANCH  15  16
HETATM   16  C7  UNL     1      11.931  65.200  19.056  1.00  0.00     0.076 C 
BRANCH  16  17
HETATM   17  C8  UNL     1      11.430  64.051  19.837  1.00  0.00     0.070 A 
HETATM   18  N2  UNL     1      11.978  62.978  20.359  1.00  0.00    -0.296 N 
HETATM   19  N3  UNL     1      11.311  62.121  21.001  1.00  0.00    -0.279 N 
ATOM     20  H2  UNL     1      12.980  62.831  20.241  1.00  0.00     0.187 HD
HETATM   21  C9  UNL     1       9.998  62.316  21.154  1.00  0.00     0.167 A 
ATOM     22  H3  UNL     1      11.764  61.296  21.396  1.00  0.00     0.189 HD
HETATM   23  N4  UNL     1       9.146  61.544  21.785  1.00  0.00    -0.305 N 
HETATM   24  S2  UNL     1       9.766  63.790  20.332  1.00  0.00    -0.038 SA
HETATM   25  C10 UNL     1       7.792  61.980  21.804  1.00  0.00     0.233 C 
ATOM     26  H4  UNL     1       9.438  60.679  22.238  1.00  0.00     0.171 HD
HETATM   27  O1  UNL     1       7.559  63.225  21.749  1.00  0.00    -0.272 OA
BRANCH  25  28
HETATM   28  C11 UNL     1       6.689  60.998  21.885  1.00  0.00     0.057 C 
HETATM   29  C12 UNL     1       5.452  61.595  22.536  1.00  0.00     0.027 C 
HETATM   30  C13 UNL     1       7.145  59.846  22.751  1.00  0.00     0.027 C 
BRANCH  28  31
HETATM   31  C14 UNL     1       6.277  60.514  20.508  1.00  0.00     0.247 C 
BRANCH  31  32
HETATM   32  N5  UNL     1       6.458  61.583  19.548  1.00  0.00    -0.078 N 
ATOM     33  H53 UNL     1       5.888  62.399  19.768  1.00  0.00     0.274 HD
ATOM     34  H52 UNL     1       7.376  62.021  19.627  1.00  0.00     0.274 HD
ATOM     35  H51 UNL     1       6.279  61.229  18.609  1.00  0.00     0.274 HD
ENDBRANCH  31  32
ENDBRANCH  28  31
ENDBRANCH  25  28
ENDBRANCH  16  17
ENDBRANCH  15  16
ENDBRANCH  14  15
ENDBRANCH  13  14
ENDBRANCH  12  13
ENDBRANCH   2  12
BRANCH   1  36
HETATM   36  C2  UNL     1      13.005  63.977  15.455  1.00  0.00     0.144 C 
HETATM   37  C1  UNL     1      13.512  63.483  14.107  1.00  0.00     0.027 C 
ENDBRANCH   1  36
BRANCH  10  38
HETATM   38  C17 UNL     1      10.405  61.636  17.192  1.00  0.00     0.144 C 
BRANCH  38  39
HETATM   39  C18 UNL     1       9.293  61.058  16.413  1.00  0.00    -0.022 A 
HETATM   40  C19 UNL     1       8.952  61.587  15.195  1.00  0.00     0.010 A 
HETATM   41  C20 UNL     1       7.924  61.096  14.415  1.00  0.00     0.002 A 
HETATM   42  C21 UNL     1       7.206  60.023  14.879  1.00  0.00     0.014 A 
HETATM   43  C22 UNL     1       7.536  59.481  16.101  1.00  0.00    -0.008 A 
HETATM   44  C23 UNL     1       7.012  58.412  16.839  1.00  0.00     0.030 A 
HETATM   45  C25 UNL     1       8.564  59.976  16.880  1.00  0.00     0.049 A 
HETATM   46  C24 UNL     1       7.747  58.331  17.999  1.00  0.00     0.089 A 
HETATM   47  N9  UNL     1       8.692  59.281  18.025  1.00  0.00    -0.365 N 
ATOM     48  H9  UNL     1       9.373  59.444  18.767  1.00  0.00     0.165 HD
ENDBRANCH  38  39
ENDBRANCH  10  38
TORSDOF 12
ENDMDL
MODEL 4
REMARK VINA RESULT: -10.062069844      1.292      1.501
REMARK  12 active torsions:
REMARK  status: ('A' for Active; 'I' for Inactive)
REMARK    1  A    between atoms: C2_2  and  N1_3 
REMARK    2  A    between atoms: C3_4  and  C4_5 
REMARK    3  A    between atoms: C4_5  and  C5_6 
REMARK    4  A    between atoms: C5_6  and  S1_7 
REMARK    5  A    between atoms: S1_7  and  C6_8 
REMARK    6  A    between atoms: C6_8  and  C7_9 
REMARK    7  A    between atoms: C7_9  and  C8_10 
REMARK       I    between atoms: N4_16  and  C10_18 
REMARK    8  A    between atoms: C10_18  and  C11_20 
REMARK    9  A    between atoms: C11_20  and  C14_23 
REMARK   10  A    between atoms: C14_23  and  N5_24 
REMARK       I    between atoms: N8_34  and  C16_36 
REMARK   11  A    between atoms: C16_36  and  C17_38 
REMARK   12  A    between atoms: C17_38  and  C18_39 
ROOT
HETATM    1  N1  UNL     1      11.930  63.781  16.965  1.00  0.00    -0.170 N 
HETATM    2  C3  UNL     1      10.980  62.860  16.662  1.00  0.00     0.115 A 
HETATM    3  N6  UNL     1      10.143  62.784  17.704  1.00  0.00    -0.274 N 
ATOM      4  H6  UNL     1       9.329  62.171  17.757  1.00  0.00     0.189 HD
HETATM    5  N7  UNL     1      10.519  63.604  18.635  1.00  0.00    -0.130 N 
ATOM      6  H7  UNL     1      10.062  63.750  19.536  1.00  0.00     0.205 HD
HETATM    7  C15 UNL     1      11.656  64.244  18.175  1.00  0.00     0.703 A 
HETATM    8  N8  UNL     1      12.236  65.090  18.909  1.00  0.00    -0.158 N 
ATOM      9  H8  UNL     1      11.766  65.230  19.804  1.00  0.00     0.187 HD
HETATM   10  C16 UNL     1      13.363  65.866  18.765  1.00  0.00     0.240 C 
HETATM   11  O2  UNL     1      13.415  66.972  18.141  1.00  0.00    -0.272 OA
ENDROOT
BRANCH   2  12
HETATM   12  C4  UNL     1      10.879  62.065  15.428  1.00  0.00     0.089 C 
BRANCH  12  13
HETATM   13  C5  UNL     1       9.503  61.414  15.382  1.00  0.00     0.081 C 
BRANCH  13  14
HETATM   14  S1  UNL     1       9.550  60.062  14.254  1.00  0.00    -0.168 SA
BRANCH  14  15
HETATM   15  C6  UNL     1       9.187  58.437  14.808  1.00  0.00     0.080 C 
BRANCH  15  16
HETATM   16  C7  UNL     1       7.806  58.121  15.145  1.00  0.00     0.076 C 
BRANCH  16  17
HETATM   17  C8  UNL     1       7.113  58.786  16.266  1.00  0.00     0.070 A 
HETATM   18  N2  UNL     1       6.064  59.570  16.371  1.00  0.00    -0.296 N 
HETATM   19  N3  UNL     1       5.662  60.019  17.480  1.00  0.00    -0.279 N 
ATOM     20  H2  UNL     1       5.554  59.824  15.525  1.00  0.00     0.187 HD
HETATM   21  C9  UNL     1       6.332  59.683  18.586  1.00  0.00     0.167 A 
ATOM     22  H3  UNL     1       4.843  60.626  17.531  1.00  0.00     0.189 HD
HETATM   23  N4  UNL     1       6.068  60.046  19.818  1.00  0.00    -0.305 N 
HETATM   24  S2  UNL     1       7.566  58.690  17.959  1.00  0.00    -0.038 SA
HETATM   25  C10 UNL     1       6.940  59.549  20.825  1.00  0.00     0.233 C 
ATOM     26  H4  UNL     1       5.280  60.654  20.043  1.00  0.00     0.171 HD
HETATM   27  O1  UNL     1       7.512  58.434  20.629  1.00  0.00    -0.272 OA
BRANCH  25  28
HETATM   28  C11 UNL     1       7.172  60.319  22.066  1.00  0.00     0.057 C 
HETATM   29  C12 UNL     1       7.346  59.407  23.270  1.00  0.00     0.027 C 
HETATM   30  C13 UNL     1       5.954  61.178  22.322  1.00  0.00     0.027 C 
BRANCH  28  31
HETATM   31  C14 UNL     1       8.425  61.167  21.966  1.00  0.00     0.247 C 
BRANCH  31  32
HETATM   32  N5  UNL     1       9.206  60.738  20.825  1.00  0.00    -0.078 N 
ATOM     33  H53 UNL     1       9.903  60.037  21.076  1.00  0.00     0.274 HD
ATOM     34  H52 UNL     1       8.661  60.174  20.174  1.00  0.00     0.274 HD
ATOM     35  H51 UNL     1       9.623  61.552  20.374  1.00  0.00     0.274 HD
ENDBRANCH  31  32
ENDBRANCH  28  31
ENDBRANCH  25  28
ENDBRANCH  16  17
ENDBRANCH  15  16
ENDBRANCH  14  15
ENDBRANCH  13  14
ENDBRANCH  12  13
ENDBRANCH   2  12
BRANCH   1  36
HETATM   36  C2  UNL     1      12.994  64.134  16.073  1.00  0.00     0.144 C 
HETATM   37  C1  UNL     1      14.242  63.285  16.271  1.00  0.00     0.027 C 
ENDBRANCH   1  36
BRANCH  10  38
HETATM   38  C17 UNL     1      14.634  65.382  19.390  1.00  0.00     0.144 C 
BRANCH  38  39
HETATM   39  C18 UNL     1      15.644  66.456  19.469  1.00  0.00    -0.022 A 
HETATM   40  C19 UNL     1      15.632  67.344  20.513  1.00  0.00     0.010 A 
HETATM   41  C20 UNL     1      16.545  68.369  20.649  1.00  0.00     0.002 A 
HETATM   42  C21 UNL     1      17.518  68.509  19.692  1.00  0.00     0.014 A 
HETATM   43  C22 UNL     1      17.545  67.625  18.636  1.00  0.00    -0.008 A 
HETATM   44  C23 UNL     1      18.385  67.499  17.524  1.00  0.00     0.030 A 
HETATM   45  C25 UNL     1      16.628  66.600  18.503  1.00  0.00     0.049 A 
HETATM   46  C24 UNL     1      17.928  66.422  16.799  1.00  0.00     0.089 A 
HETATM   47  N9  UNL     1      16.860  65.874  17.394  1.00  0.00    -0.365 N 
ATOM     48  H9  UNL     1      16.328  65.066  17.070  1.00  0.00     0.165 HD
ENDBRANCH  38  39
ENDBRANCH  10  38
TORSDOF 12
ENDMDL
MODEL 5
REMARK VINA RESULT: -10.023637734      1.018      1.140
REMARK  12 active torsions:
REMARK  status: ('A' for Active; 'I' for Inactive)
REMARK    1  A    between atoms: C2_2  and  N1_3 
REMARK    2  A    between atoms: C3_4  and  C4_5 
REMARK    3  A    between atoms: C4_5  and  C5_6 
REMARK    4  A    between atoms: C5_6  and  S1_7 
REMARK    5  A    between atoms: S1_7  and  C6_8 
REMARK    6  A    between atoms: C6_8  and  C7_9 
REMARK    7  A    between atoms: C7_9  and  C8_10 
REMARK       I    between atoms: N4_16  and  C10_18 
REMARK    8  A    between atoms: C10_18  and  C11_20 
REMARK    9  A    between atoms: C11_20  and  C14_23 
REMARK   10  A    between atoms: C14_23  and  N5_24 
REMARK       I    between atoms: N8_34  and  C16_36 
REMARK   11  A    between atoms: C16_36  and  C17_38 
REMARK   12  A    between atoms: C17_38  and  C18_39 
ROOT
HETATM    1  N1  UNL     1      12.402  62.835  17.052  1.00  0.00    -0.170 N 
HETATM    2  C3  UNL     1      11.931  61.562  17.083  1.00  0.00     0.115 A 
HETATM    3  N6  UNL     1      12.073  61.109  18.334  1.00  0.00    -0.274 N 
ATOM      4  H6  UNL     1      11.801  60.178  18.653  1.00  0.00     0.189 HD
HETATM    5  N7  UNL     1      12.605  62.025  19.081  1.00  0.00    -0.130 N 
ATOM      6  H7  UNL     1      12.823  61.947  20.074  1.00  0.00     0.205 HD
HETATM    7  C15 UNL     1      12.820  63.129  18.274  1.00  0.00     0.703 A 
HETATM    8  N8  UNL     1      13.351  64.164  18.762  1.00  0.00    -0.158 N 
ATOM      9  H8  UNL     1      13.559  64.074  19.756  1.00  0.00     0.187 HD
HETATM   10  C16 UNL     1      13.709  65.387  18.244  1.00  0.00     0.240 C 
HETATM   11  O2  UNL     1      12.918  66.367  18.066  1.00  0.00    -0.272 OA
ENDROOT
BRANCH   2  12
HETATM   12  C4  UNL     1      11.377  60.796  15.955  1.00  0.00     0.089 C 
BRANCH  12  13
HETATM   13  C5  UNL     1       9.913  61.180  15.782  1.00  0.00     0.081 C 
BRANCH  13  14
HETATM   14  S1  UNL     1       9.238  60.259  14.441  1.00  0.00    -0.168 SA
BRANCH  14  15
HETATM   15  C6  UNL     1       9.053  58.519  14.568  1.00  0.00     0.080 C 
BRANCH  15  16
HETATM   16  C7  UNL     1       7.829  58.003  15.166  1.00  0.00     0.076 C 
BRANCH  16  17
HETATM   17  C8  UNL     1       7.144  58.715  16.262  1.00  0.00     0.070 A 
HETATM   18  N2  UNL     1       6.127  59.543  16.335  1.00  0.00    -0.296 N 
HETATM   19  N3  UNL     1       5.724  60.027  17.428  1.00  0.00    -0.279 N 
ATOM     20  H2  UNL     1       5.644  59.805  15.475  1.00  0.00     0.187 HD
HETATM   21  C9  UNL     1       6.358  59.682  18.552  1.00  0.00     0.167 A 
ATOM     22  H3  UNL     1       4.930  60.669  17.454  1.00  0.00     0.189 HD
HETATM   23  N4  UNL     1       6.088  60.077  19.773  1.00  0.00    -0.305 N 
HETATM   24  S2  UNL     1       7.561  58.629  17.965  1.00  0.00    -0.038 SA
HETATM   25  C10 UNL     1       6.920  59.561  20.804  1.00  0.00     0.233 C 
ATOM     26  H4  UNL     1       5.322  60.720  19.973  1.00  0.00     0.171 HD
HETATM   27  O1  UNL     1       7.447  58.419  20.637  1.00  0.00    -0.272 OA
BRANCH  25  28
HETATM   28  C11 UNL     1       7.160  60.341  22.037  1.00  0.00     0.057 C 
HETATM   29  C12 UNL     1       7.415  59.438  23.233  1.00  0.00     0.027 C 
HETATM   30  C13 UNL     1       5.916  61.147  22.336  1.00  0.00     0.027 C 
BRANCH  28  31
HETATM   31  C14 UNL     1       8.371  61.243  21.894  1.00  0.00     0.247 C 
BRANCH  31  32
HETATM   32  N5  UNL     1       9.251  60.709  20.875  1.00  0.00    -0.078 N 
ATOM     33  H53 UNL     1       8.878  60.841  19.935  1.00  0.00     0.274 HD
ATOM     34  H52 UNL     1      10.102  61.261  20.772  1.00  0.00     0.274 HD
ATOM     35  H51 UNL     1       9.449  59.729  21.077  1.00  0.00     0.274 HD
ENDBRANCH  31  32
ENDBRANCH  28  31
ENDBRANCH  25  28
ENDBRANCH  16  17
ENDBRANCH  15  16
ENDBRANCH  14  15
ENDBRANCH  13  14
ENDBRANCH  12  13
ENDBRANCH   2  12
BRANCH   1  36
HETATM   36  C2  UNL     1      12.402  63.644  15.870  1.00  0.00     0.144 C 
HETATM   37  C1  UNL     1      13.670  63.488  15.041  1.00  0.00     0.027 C 
ENDBRANCH   1  36
BRANCH  10  38
HETATM   38  C17 UNL     1      15.140  65.595  17.856  1.00  0.00     0.144 C 
BRANCH  38  39
HETATM   39  C18 UNL     1      15.783  66.632  18.686  1.00  0.00    -0.022 A 
HETATM   40  C19 UNL     1      15.437  66.779  20.004  1.00  0.00     0.010 A 
HETATM   41  C20 UNL     1      15.997  67.726  20.836  1.00  0.00     0.002 A 
HETATM   42  C21 UNL     1      16.952  68.566  20.321  1.00  0.00     0.014 A 
HETATM   43  C22 UNL     1      17.312  68.432  18.997  1.00  0.00    -0.008 A 
HETATM   44  C23 UNL     1      18.228  69.114  18.188  1.00  0.00     0.030 A 
HETATM   45  C25 UNL     1      16.747  67.483  18.167  1.00  0.00     0.049 A 
HETATM   46  C24 UNL     1      18.160  68.541  16.939  1.00  0.00     0.089 A 
HETATM   47  N9  UNL     1      17.259  67.549  16.925  1.00  0.00    -0.365 N 
ATOM     48  H9  UNL     1      17.012  66.960  16.130  1.00  0.00     0.165 HD
ENDBRANCH  38  39
ENDBRANCH  10  38
TORSDOF 12
ENDMDL
