MODEL 1
REMARK VINA RESULT: -7.431582860      0.000      0.000
REMARK  15 active torsions:
REMARK  status: ('A' for Active; 'I' for Inactive)
REMARK    1  A    between atoms: C2_2  and  C3_3 
REMARK    2  A    between atoms: C8_8  and  C9_9 
REMARK    3  A    between atoms: C10_10  and  C11_11 
REMARK    4  A    between atoms: C15_17  and  C16_18 
REMARK    5  A    between atoms: C16_18  and  O3_19 
REMARK    6  A    between atoms: C16_18  and  C17_21 
REMARK    7  A    between atoms: C17_21  and  O4_22 
REMARK    8  A    between atoms: O4_22  and  C18_23 
REMARK    9  A    between atoms: C23_29  and  C24_30 
REMARK   10  A    between atoms: C25_31  and  C26_32 
REMARK   11  A    between atoms: C26_32  and  O6_33 
REMARK   12  A    between atoms: C26_32  and  C27_35 
REMARK   13  A    between atoms: C27_35  and  O7_36 
REMARK   14  A    between atoms: C28_38  and  C29_39 
REMARK   15  A    between atoms: C29_39  and  C30_41 
ROOT
HETATM    1  C3  UNL     1      22.746  26.136  18.753  1.00  0.00    -0.015 C 
HETATM    2  C4  UNL     1      22.201  27.238  19.578  1.00  0.00     0.020 C 
HETATM    3  C5  UNL     1      21.642  25.367  18.126  1.00  0.00     0.019 C 
HETATM    4  C6  UNL     1      20.441  25.107  19.010  1.00  0.00    -0.010 C 
HETATM    5  C7  UNL     1      19.208  25.148  18.137  1.00  0.00     0.010 C 
HETATM    6  C8  UNL     1      20.501  23.759  19.671  1.00  0.00     0.015 C 
HETATM    7  C20 UNL     1      21.112  23.751  21.013  1.00  0.00    -0.010 C 
HETATM    8  C21 UNL     1      20.363  24.715  21.947  1.00  0.00     0.010 C 
HETATM    9  C22 UNL     1      22.575  24.088  21.118  1.00  0.00     0.014 C 
HETATM   10  C23 UNL     1      23.415  24.014  19.932  1.00  0.00     0.021 C 
HETATM   11  C28 UNL     1      23.882  25.331  19.316  1.00  0.00     0.082 C 
ENDROOT
BRANCH   6  12
HETATM   12  C9  UNL     1      19.163  23.174  19.733  1.00  0.00    -0.023 C 
HETATM   13  C10 UNL     1      18.749  21.937  19.683  1.00  0.00     0.002 C 
BRANCH  13  14
HETATM   14  C11 UNL     1      17.312  21.552  19.766  1.00  0.00     0.161 C 
HETATM   15  O1  UNL     1      17.148  20.158  19.923  1.00  0.00    -0.311 OA
HETATM   16  C12 UNL     1      15.804  19.905  19.705  1.00  0.00     0.263 C 
HETATM   17  O2  UNL     1      15.033  19.046  20.222  1.00  0.00    -0.265 OA
HETATM   18  C13 UNL     1      15.369  20.902  18.661  1.00  0.00     0.091 C 
HETATM   19  C14 UNL     1      14.910  20.136  17.486  1.00  0.00     0.021 C 
HETATM   20  C15 UNL     1      16.509  21.816  18.537  1.00  0.00     0.063 C 
BRANCH  20  21
HETATM   21  C16 UNL     1      17.292  21.828  17.279  1.00  0.00     0.150 C 
BRANCH  21  22
HETATM   22  O3  UNL     1      17.759  20.607  16.840  1.00  0.00    -0.393 OA
ATOM     23  H3  UNL     1      18.467  20.631  16.208  1.00  0.00     0.210 HD
ENDBRANCH  21  22
BRANCH  21  24
HETATM   24  C17 UNL     1      16.657  22.640  16.163  1.00  0.00     0.210 C 
BRANCH  24  25
HETATM   25  O4  UNL     1      16.435  21.804  15.048  1.00  0.00    -0.319 OA
BRANCH  25  26
HETATM   26  C18 UNL     1      15.199  21.791  14.411  1.00  0.00     0.254 C 
HETATM   27  C19 UNL     1      14.044  22.538  14.951  1.00  0.00     0.126 C 
HETATM   28  O5  UNL     1      15.117  21.115  13.356  1.00  0.00    -0.266 OA
ENDBRANCH  25  26
ENDBRANCH  24  25
ENDBRANCH  21  24
ENDBRANCH  20  21
ENDBRANCH  13  14
ENDBRANCH   6  12
BRANCH   1  29
HETATM   29  C2  UNL     1      23.408  26.901  17.593  1.00  0.00    -0.027 C 
HETATM   30  C1  UNL     1      22.684  27.621  16.776  1.00  0.00     0.007 C 
ENDBRANCH   1  29
BRANCH  10  31
HETATM   31  C24 UNL     1      24.640  23.172  20.077  1.00  0.00    -0.023 C 
HETATM   32  C25 UNL     1      25.337  22.620  19.114  1.00  0.00     0.003 C 
BRANCH  32  33
HETATM   33  C26 UNL     1      26.552  21.800  19.432  1.00  0.00     0.164 C 
BRANCH  33  34
HETATM   34  O6  UNL     1      26.868  21.960  20.781  1.00  0.00    -0.390 OA
ATOM     35  H6  UNL     1      27.229  21.147  21.113  1.00  0.00     0.210 HD
ENDBRANCH  33  34
BRANCH  33  36
HETATM   36  C27 UNL     1      26.297  20.329  19.146  1.00  0.00     0.199 C 
BRANCH  36  37
HETATM   37  O7  UNL     1      25.394  20.287  18.070  1.00  0.00    -0.398 OA
ATOM     38  H7  UNL     1      24.639  19.796  18.374  1.00  0.00     0.209 HD
ENDBRANCH  36  37
ENDBRANCH  33  36
ENDBRANCH  32  33
ENDBRANCH  10  31
BRANCH  11  39
HETATM   39  C29 UNL     1      24.759  26.116  20.206  1.00  0.00     0.192 C 
HETATM   40  O8  UNL     1      24.376  26.477  21.378  1.00  0.00    -0.289 OA
BRANCH  39  41
HETATM   41  C30 UNL     1      26.110  26.550  19.874  1.00  0.00     0.309 C 
HETATM   42  O9  UNL     1      26.427  27.737  19.598  1.00  0.00    -0.298 OA
ENDBRANCH  39  41
ENDBRANCH  11  39
TORSDOF 15
ENDMDL
MODEL 2
REMARK VINA RESULT: -7.336664774      1.688      2.199
REMARK  15 active torsions:
REMARK  status: ('A' for Active; 'I' for Inactive)
REMARK    1  A    between atoms: C2_2  and  C3_3 
REMARK    2  A    between atoms: C8_8  and  C9_9 
REMARK    3  A    between atoms: C10_10  and  C11_11 
REMARK    4  A    between atoms: C15_17  and  C16_18 
REMARK    5  A    between atoms: C16_18  and  O3_19 
REMARK    6  A    between atoms: C16_18  and  C17_21 
REMARK    7  A    between atoms: C17_21  and  O4_22 
REMARK    8  A    between atoms: O4_22  and  C18_23 
REMARK    9  A    between atoms: C23_29  and  C24_30 
REMARK   10  A    between atoms: C25_31  and  C26_32 
REMARK   11  A    between atoms: C26_32  and  O6_33 
REMARK   12  A    between atoms: C26_32  and  C27_35 
REMARK   13  A    between atoms: C27_35  and  O7_36 
REMARK   14  A    between atoms: C28_38  and  C29_39 
REMARK   15  A    between atoms: C29_39  and  C30_41 
ROOT
HETATM    1  C3  UNL     1      23.806  26.095  19.002  1.00  0.00    -0.015 C 
HETATM    2  C4  UNL     1      23.459  27.168  19.960  1.00  0.00     0.020 C 
HETATM    3  C5  UNL     1      22.592  25.640  18.277  1.00  0.00     0.019 C 
HETATM    4  C6  UNL     1      21.339  25.508  19.117  1.00  0.00    -0.010 C 
HETATM    5  C7  UNL     1      20.161  25.897  18.254  1.00  0.00     0.010 C 
HETATM    6  C8  UNL     1      21.121  24.102  19.598  1.00  0.00     0.015 C 
HETATM    7  C20 UNL     1      21.682  23.805  20.930  1.00  0.00    -0.010 C 
HETATM    8  C21 UNL     1      21.107  24.771  21.979  1.00  0.00     0.010 C 
HETATM    9  C22 UNL     1      23.179  23.836  21.081  1.00  0.00     0.014 C 
HETATM   10  C23 UNL     1      24.022  23.751  19.898  1.00  0.00     0.021 C 
HETATM   11  C28 UNL     1      24.750  25.019  19.459  1.00  0.00     0.082 C 
ENDROOT
BRANCH   6  12
HETATM   12  C9  UNL     1      19.695  23.784  19.581  1.00  0.00    -0.023 C 
HETATM   13  C10 UNL     1      19.044  22.713  19.215  1.00  0.00     0.002 C 
BRANCH  13  14
HETATM   14  C11 UNL     1      17.560  22.596  19.280  1.00  0.00     0.161 C 
HETATM   15  O1  UNL     1      17.142  21.251  19.382  1.00  0.00    -0.311 OA
HETATM   16  C12 UNL     1      15.776  21.258  19.151  1.00  0.00     0.263 C 
HETATM   17  O2  UNL     1      14.855  20.537  19.634  1.00  0.00    -0.265 OA
HETATM   18  C13 UNL     1      15.541  22.356  18.146  1.00  0.00     0.091 C 
HETATM   19  C14 UNL     1      14.960  21.733  16.941  1.00  0.00     0.021 C 
HETATM   20  C15 UNL     1      16.831  23.049  18.060  1.00  0.00     0.063 C 
BRANCH  20  21
HETATM   21  C16 UNL     1      17.614  22.964  16.805  1.00  0.00     0.150 C 
BRANCH  21  22
HETATM   22  O3  UNL     1      17.807  21.699  16.291  1.00  0.00    -0.393 OA
ATOM     23  H3  UNL     1      18.665  21.317  16.427  1.00  0.00     0.210 HD
ENDBRANCH  21  22
BRANCH  21  24
HETATM   24  C17 UNL     1      17.189  23.962  15.741  1.00  0.00     0.210 C 
BRANCH  24  25
HETATM   25  O4  UNL     1      17.939  25.148  15.890  1.00  0.00    -0.319 OA
BRANCH  25  26
HETATM   26  C18 UNL     1      18.673  25.658  14.825  1.00  0.00     0.254 C 
HETATM   27  C19 UNL     1      20.092  25.299  14.622  1.00  0.00     0.126 C 
HETATM   28  O5  UNL     1      18.069  26.436  14.046  1.00  0.00    -0.266 OA
ENDBRANCH  25  26
ENDBRANCH  24  25
ENDBRANCH  21  24
ENDBRANCH  20  21
ENDBRANCH  13  14
ENDBRANCH   6  12
BRANCH   1  29
HETATM   29  C2  UNL     1      24.634  26.856  17.951  1.00  0.00    -0.027 C 
HETATM   30  C1  UNL     1      24.546  26.543  16.684  1.00  0.00     0.007 C 
ENDBRANCH   1  29
BRANCH  10  31
HETATM   31  C24 UNL     1      25.057  22.677  19.936  1.00  0.00    -0.023 C 
HETATM   32  C25 UNL     1      25.691  22.153  18.914  1.00  0.00     0.003 C 
BRANCH  32  33
HETATM   33  C26 UNL     1      26.712  21.075  19.126  1.00  0.00     0.164 C 
BRANCH  33  34
HETATM   34  O6  UNL     1      27.153  21.122  20.448  1.00  0.00    -0.390 OA
ATOM     35  H6  UNL     1      27.740  21.861  20.552  1.00  0.00     0.210 HD
ENDBRANCH  33  34
BRANCH  33  36
HETATM   36  C27 UNL     1      26.114  19.707  18.843  1.00  0.00     0.199 C 
BRANCH  36  37
HETATM   37  O7  UNL     1      25.509  19.793  17.577  1.00  0.00    -0.398 OA
ATOM     38  H7  UNL     1      24.743  19.233  17.608  1.00  0.00     0.209 HD
ENDBRANCH  36  37
ENDBRANCH  33  36
ENDBRANCH  32  33
ENDBRANCH  10  31
BRANCH  11  39
HETATM   39  C29 UNL     1      25.736  25.501  20.444  1.00  0.00     0.192 C 
HETATM   40  O8  UNL     1      26.964  25.700  20.122  1.00  0.00    -0.289 OA
BRANCH  39  41
HETATM   41  C30 UNL     1      25.442  25.803  21.839  1.00  0.00     0.309 C 
HETATM   42  O9  UNL     1      25.976  26.738  22.491  1.00  0.00    -0.298 OA
ENDBRANCH  39  41
ENDBRANCH  11  39
TORSDOF 15
ENDMDL
MODEL 3
REMARK VINA RESULT: -7.228966867      5.692     10.239
REMARK  15 active torsions:
REMARK  status: ('A' for Active; 'I' for Inactive)
REMARK    1  A    between atoms: C2_2  and  C3_3 
REMARK    2  A    between atoms: C8_8  and  C9_9 
REMARK    3  A    between atoms: C10_10  and  C11_11 
REMARK    4  A    between atoms: C15_17  and  C16_18 
REMARK    5  A    between atoms: C16_18  and  O3_19 
REMARK    6  A    between atoms: C16_18  and  C17_21 
REMARK    7  A    between atoms: C17_21  and  O4_22 
REMARK    8  A    between atoms: O4_22  and  C18_23 
REMARK    9  A    between atoms: C23_29  and  C24_30 
REMARK   10  A    between atoms: C25_31  and  C26_32 
REMARK   11  A    between atoms: C26_32  and  O6_33 
REMARK   12  A    between atoms: C26_32  and  C27_35 
REMARK   13  A    between atoms: C27_35  and  O7_36 
REMARK   14  A    between atoms: C28_38  and  C29_39 
REMARK   15  A    between atoms: C29_39  and  C30_41 
ROOT
HETATM    1  C3  UNL     1      16.073  22.109  16.273  1.00  0.00    -0.015 C 
HETATM    2  C4  UNL     1      15.555  23.478  16.052  1.00  0.00     0.020 C 
HETATM    3  C5  UNL     1      15.989  21.318  15.019  1.00  0.00     0.019 C 
HETATM    4  C6  UNL     1      14.725  21.511  14.208  1.00  0.00    -0.010 C 
HETATM    5  C7  UNL     1      15.096  21.414  12.746  1.00  0.00     0.010 C 
HETATM    6  C8  UNL     1      13.694  20.457  14.499  1.00  0.00     0.015 C 
HETATM    7  C20 UNL     1      12.717  20.814  15.545  1.00  0.00    -0.010 C 
HETATM    8  C21 UNL     1      11.988  22.116  15.173  1.00  0.00     0.010 C 
HETATM    9  C22 UNL     1      13.228  20.985  16.950  1.00  0.00     0.014 C 
HETATM   10  C23 UNL     1      14.519  20.425  17.318  1.00  0.00     0.021 C 
HETATM   11  C28 UNL     1      15.675  21.399  17.535  1.00  0.00     0.082 C 
ENDROOT
BRANCH   6  12
HETATM   12  C9  UNL     1      12.992  20.094  13.270  1.00  0.00    -0.023 C 
HETATM   13  C10 UNL     1      11.918  19.382  13.058  1.00  0.00     0.002 C 
BRANCH  13  14
HETATM   14  C11 UNL     1      11.361  19.129  11.699  1.00  0.00     0.161 C 
HETATM   15  O1  UNL     1      10.155  19.833  11.485  1.00  0.00    -0.311 OA
HETATM   16  C12 UNL     1       9.605  19.304  10.329  1.00  0.00     0.263 C 
HETATM   17  O2  UNL     1       8.922  19.852   9.416  1.00  0.00    -0.265 OA
HETATM   18  C13 UNL     1       9.982  17.844  10.331  1.00  0.00     0.091 C 
HETATM   19  C14 UNL     1       8.729  17.066  10.360  1.00  0.00     0.021 C 
HETATM   20  C15 UNL     1      10.943  17.722  11.433  1.00  0.00     0.063 C 
BRANCH  20  21
HETATM   21  C16 UNL     1      10.563  16.953  12.641  1.00  0.00     0.150 C 
BRANCH  21  22
HETATM   22  O3  UNL     1       9.261  17.097  13.072  1.00  0.00    -0.393 OA
ATOM     23  H3  UNL     1       9.140  17.553  13.896  1.00  0.00     0.210 HD
ENDBRANCH  21  22
BRANCH  21  24
HETATM   24  C17 UNL     1      11.005  15.499  12.612  1.00  0.00     0.210 C 
BRANCH  24  25
HETATM   25  O4  UNL     1      11.699  15.201  13.805  1.00  0.00    -0.319 OA
BRANCH  25  26
HETATM   26  C18 UNL     1      11.014  14.735  14.922  1.00  0.00     0.254 C 
HETATM   27  C19 UNL     1       9.892  13.781  14.798  1.00  0.00     0.126 C 
HETATM   28  O5  UNL     1      11.398  15.165  16.037  1.00  0.00    -0.266 OA
ENDBRANCH  25  26
ENDBRANCH  24  25
ENDBRANCH  21  24
ENDBRANCH  20  21
ENDBRANCH  13  14
ENDBRANCH   6  12
BRANCH   1  29
HETATM   29  C2  UNL     1      17.577  22.364  16.482  1.00  0.00    -0.027 C 
HETATM   30  C1  UNL     1      18.066  23.572  16.368  1.00  0.00     0.007 C 
ENDBRANCH   1  29
BRANCH  10  31
HETATM   31  C24 UNL     1      14.504  19.534  18.515  1.00  0.00    -0.023 C 
HETATM   32  C25 UNL     1      13.449  19.068  19.140  1.00  0.00     0.003 C 
BRANCH  32  33
HETATM   33  C26 UNL     1      13.609  18.176  20.336  1.00  0.00     0.164 C 
BRANCH  33  34
HETATM   34  O6  UNL     1      14.064  18.938  21.412  1.00  0.00    -0.390 OA
ATOM     35  H6  UNL     1      14.714  18.438  21.891  1.00  0.00     0.210 HD
ENDBRANCH  33  34
BRANCH  33  36
HETATM   36  C27 UNL     1      12.285  17.527  20.702  1.00  0.00     0.199 C 
BRANCH  36  37
HETATM   37  O7  UNL     1      11.413  18.574  21.047  1.00  0.00    -0.398 OA
ATOM     38  H7  UNL     1      10.627  18.450  20.527  1.00  0.00     0.209 HD
ENDBRANCH  36  37
ENDBRANCH  33  36
ENDBRANCH  32  33
ENDBRANCH  10  31
BRANCH  11  39
HETATM   39  C29 UNL     1      15.460  22.320  18.669  1.00  0.00     0.192 C 
HETATM   40  O8  UNL     1      14.388  23.019  18.771  1.00  0.00    -0.289 OA
BRANCH  39  41
HETATM   41  C30 UNL     1      16.400  22.526  19.764  1.00  0.00     0.309 C 
HETATM   42  O9  UNL     1      17.521  21.961  19.853  1.00  0.00    -0.298 OA
ENDBRANCH  39  41
ENDBRANCH  11  39
TORSDOF 15
ENDMDL
MODEL 4
REMARK VINA RESULT: -7.218705155      2.377      3.846
REMARK  15 active torsions:
REMARK  status: ('A' for Active; 'I' for Inactive)
REMARK    1  A    between atoms: C2_2  and  C3_3 
REMARK    2  A    between atoms: C8_8  and  C9_9 
REMARK    3  A    between atoms: C10_10  and  C11_11 
REMARK    4  A    between atoms: C15_17  and  C16_18 
REMARK    5  A    between atoms: C16_18  and  O3_19 
REMARK    6  A    between atoms: C16_18  and  C17_21 
REMARK    7  A    between atoms: C17_21  and  O4_22 
REMARK    8  A    between atoms: O4_22  and  C18_23 
REMARK    9  A    between atoms: C23_29  and  C24_30 
REMARK   10  A    between atoms: C25_31  and  C26_32 
REMARK   11  A    between atoms: C26_32  and  O6_33 
REMARK   12  A    between atoms: C26_32  and  C27_35 
REMARK   13  A    between atoms: C27_35  and  O7_36 
REMARK   14  A    between atoms: C28_38  and  C29_39 
REMARK   15  A    between atoms: C29_39  and  C30_41 
ROOT
HETATM    1  C3  UNL     1      19.941  24.951  16.343  1.00  0.00    -0.015 C 
HETATM    2  C4  UNL     1      18.752  25.828  16.241  1.00  0.00     0.020 C 
HETATM    3  C5  UNL     1      19.538  23.525  16.246  1.00  0.00     0.019 C 
HETATM    4  C6  UNL     1      18.274  23.150  16.989  1.00  0.00    -0.010 C 
HETATM    5  C7  UNL     1      17.561  22.088  16.183  1.00  0.00     0.010 C 
HETATM    6  C8  UNL     1      18.559  22.587  18.352  1.00  0.00     0.015 C 
HETATM    7  C20 UNL     1      18.551  23.574  19.449  1.00  0.00    -0.010 C 
HETATM    8  C21 UNL     1      17.199  24.304  19.499  1.00  0.00     0.010 C 
HETATM    9  C22 UNL     1      19.620  24.633  19.443  1.00  0.00     0.014 C 
HETATM   10  C23 UNL     1      20.821  24.438  18.646  1.00  0.00     0.021 C 
HETATM   11  C28 UNL     1      20.973  25.282  17.383  1.00  0.00     0.082 C 
ENDROOT
BRANCH   6  12
HETATM   12  C9  UNL     1      17.622  21.507  18.653  1.00  0.00    -0.023 C 
HETATM   13  C10 UNL     1      16.556  21.463  19.405  1.00  0.00     0.002 C 
BRANCH  13  14
HETATM   14  C11 UNL     1      15.726  20.236  19.576  1.00  0.00     0.161 C 
HETATM   15  O1  UNL     1      15.998  19.273  18.579  1.00  0.00    -0.311 OA
HETATM   16  C12 UNL     1      14.989  18.329  18.677  1.00  0.00     0.263 C 
HETATM   17  O2  UNL     1      15.009  17.079  18.480  1.00  0.00    -0.265 OA
HETATM   18  C13 UNL     1      13.757  19.093  19.090  1.00  0.00     0.091 C 
HETATM   19  C14 UNL     1      12.755  18.924  18.020  1.00  0.00     0.021 C 
HETATM   20  C15 UNL     1      14.256  20.434  19.416  1.00  0.00     0.063 C 
BRANCH  20  21
HETATM   21  C16 UNL     1      13.878  21.576  18.552  1.00  0.00     0.150 C 
BRANCH  21  22
HETATM   22  O3  UNL     1      14.110  22.834  19.068  1.00  0.00    -0.393 OA
ATOM     23  H3  UNL     1      13.409  23.213  19.583  1.00  0.00     0.210 HD
ENDBRANCH  21  22
BRANCH  21  24
HETATM   24  C17 UNL     1      14.346  21.445  17.113  1.00  0.00     0.210 C 
BRANCH  24  25
HETATM   25  O4  UNL     1      13.414  22.075  16.261  1.00  0.00    -0.319 OA
BRANCH  25  26
HETATM   26  C18 UNL     1      12.931  21.418  15.135  1.00  0.00     0.254 C 
HETATM   27  C19 UNL     1      13.829  20.662  14.237  1.00  0.00     0.126 C 
HETATM   28  O5  UNL     1      11.696  21.500  14.921  1.00  0.00    -0.266 OA
ENDBRANCH  25  26
ENDBRANCH  24  25
ENDBRANCH  21  24
ENDBRANCH  20  21
ENDBRANCH  13  14
ENDBRANCH   6  12
BRANCH   1  29
HETATM   29  C2  UNL     1      20.674  25.248  15.023  1.00  0.00    -0.027 C 
HETATM   30  C1  UNL     1      20.025  25.748  14.003  1.00  0.00     0.007 C 
ENDBRANCH   1  29
BRANCH  10  31
HETATM   31  C24 UNL     1      22.106  24.583  19.393  1.00  0.00    -0.023 C 
HETATM   32  C25 UNL     1      22.270  25.087  20.592  1.00  0.00     0.003 C 
BRANCH  32  33
HETATM   33  C26 UNL     1      23.638  25.159  21.203  1.00  0.00     0.164 C 
BRANCH  33  34
HETATM   34  O6  UNL     1      24.238  23.903  21.121  1.00  0.00    -0.390 OA
ATOM     35  H6  UNL     1      24.120  23.561  20.243  1.00  0.00     0.210 HD
ENDBRANCH  33  34
BRANCH  33  36
HETATM   36  C27 UNL     1      24.499  26.177  20.475  1.00  0.00     0.199 C 
BRANCH  36  37
HETATM   37  O7  UNL     1      23.699  27.320  20.301  1.00  0.00    -0.398 OA
ATOM     38  H7  UNL     1      23.292  27.234  19.447  1.00  0.00     0.209 HD
ENDBRANCH  36  37
ENDBRANCH  33  36
ENDBRANCH  32  33
ENDBRANCH  10  31
BRANCH  11  39
HETATM   39  C29 UNL     1      21.075  26.729  17.652  1.00  0.00     0.192 C 
HETATM   40  O8  UNL     1      20.422  27.280  18.612  1.00  0.00    -0.289 OA
BRANCH  39  41
HETATM   41  C30 UNL     1      21.901  27.661  16.896  1.00  0.00     0.309 C 
HETATM   42  O9  UNL     1      21.456  28.466  16.034  1.00  0.00    -0.298 OA
ENDBRANCH  39  41
ENDBRANCH  11  39
TORSDOF 15
ENDMDL
MODEL 5
REMARK VINA RESULT: -7.218087622      2.394      4.429
REMARK  15 active torsions:
REMARK  status: ('A' for Active; 'I' for Inactive)
REMARK    1  A    between atoms: C2_2  and  C3_3 
REMARK    2  A    between atoms: C8_8  and  C9_9 
REMARK    3  A    between atoms: C10_10  and  C11_11 
REMARK    4  A    between atoms: C15_17  and  C16_18 
REMARK    5  A    between atoms: C16_18  and  O3_19 
REMARK    6  A    between atoms: C16_18  and  C17_21 
REMARK    7  A    between atoms: C17_21  and  O4_22 
REMARK    8  A    between atoms: O4_22  and  C18_23 
REMARK    9  A    between atoms: C23_29  and  C24_30 
REMARK   10  A    between atoms: C25_31  and  C26_32 
REMARK   11  A    between atoms: C26_32  and  O6_33 
REMARK   12  A    between atoms: C26_32  and  C27_35 
REMARK   13  A    between atoms: C27_35  and  O7_36 
REMARK   14  A    between atoms: C28_38  and  C29_39 
REMARK   15  A    between atoms: C29_39  and  C30_41 
ROOT
HETATM    1  C3  UNL     1      21.969  25.841  21.452  1.00  0.00    -0.015 C 
HETATM    2  C4  UNL     1      22.842  24.717  21.859  1.00  0.00     0.020 C 
HETATM    3  C5  UNL     1      20.552  25.537  21.779  1.00  0.00     0.019 C 
HETATM    4  C6  UNL     1      20.107  24.117  21.505  1.00  0.00    -0.010 C 
HETATM    5  C7  UNL     1      19.110  23.731  22.573  1.00  0.00     0.010 C 
HETATM    6  C8  UNL     1      19.436  23.977  20.168  1.00  0.00     0.015 C 
HETATM    7  C20 UNL     1      20.331  23.590  19.060  1.00  0.00    -0.010 C 
HETATM    8  C21 UNL     1      21.043  22.267  19.386  1.00  0.00     0.010 C 
HETATM    9  C22 UNL     1      21.395  24.570  18.646  1.00  0.00     0.014 C 
HETATM   10  C23 UNL     1      21.275  25.967  19.034  1.00  0.00     0.021 C 
HETATM   11  C28 UNL     1      22.221  26.482  20.117  1.00  0.00     0.082 C 
ENDROOT
BRANCH   6  12
HETATM   12  C9  UNL     1      18.329  23.028  20.263  1.00  0.00    -0.023 C 
HETATM   13  C10 UNL     1      17.479  22.589  19.374  1.00  0.00     0.002 C 
BRANCH  13  14
HETATM   14  C11 UNL     1      16.406  21.603  19.687  1.00  0.00     0.161 C 
HETATM   15  O1  UNL     1      16.579  20.393  18.980  1.00  0.00    -0.311 OA
HETATM   16  C12 UNL     1      15.395  19.690  19.132  1.00  0.00     0.263 C 
HETATM   17  O2  UNL     1      15.182  18.446  19.222  1.00  0.00    -0.265 OA
HETATM   18  C13 UNL     1      14.307  20.733  19.178  1.00  0.00     0.091 C 
HETATM   19  C14 UNL     1      13.408  20.481  18.035  1.00  0.00     0.021 C 
HETATM   20  C15 UNL     1      15.031  22.006  19.270  1.00  0.00     0.063 C 
BRANCH  20  21
HETATM   21  C16 UNL     1      14.983  22.949  18.129  1.00  0.00     0.150 C 
BRANCH  21  22
HETATM   22  O3  UNL     1      14.812  24.280  18.444  1.00  0.00    -0.393 OA
ATOM     23  H3  UNL     1      14.124  24.737  17.977  1.00  0.00     0.210 HD
ENDBRANCH  21  22
BRANCH  21  24
HETATM   24  C17 UNL     1      16.083  22.734  17.103  1.00  0.00     0.210 C 
BRANCH  24  25
HETATM   25  O4  UNL     1      16.285  23.929  16.380  1.00  0.00    -0.319 OA
BRANCH  25  26
HETATM   26  C18 UNL     1      17.418  24.705  16.601  1.00  0.00     0.254 C 
HETATM   27  C19 UNL     1      18.608  24.598  15.732  1.00  0.00     0.126 C 
HETATM   28  O5  UNL     1      17.377  25.498  17.573  1.00  0.00    -0.266 OA
ENDBRANCH  25  26
ENDBRANCH  24  25
ENDBRANCH  21  24
ENDBRANCH  20  21
ENDBRANCH  13  14
ENDBRANCH   6  12
BRANCH   1  29
HETATM   29  C2  UNL     1      22.379  26.943  22.445  1.00  0.00    -0.027 C 
HETATM   30  C1  UNL     1      21.839  26.996  23.636  1.00  0.00     0.007 C 
ENDBRANCH   1  29
BRANCH  10  31
HETATM   31  C24 UNL     1      21.368  26.945  17.910  1.00  0.00    -0.023 C 
HETATM   32  C25 UNL     1      21.776  26.707  16.687  1.00  0.00     0.003 C 
BRANCH  32  33
HETATM   33  C26 UNL     1      21.807  27.810  15.670  1.00  0.00     0.164 C 
BRANCH  33  34
HETATM   34  O6  UNL     1      23.106  27.937  15.179  1.00  0.00    -0.390 OA
ATOM     35  H6  UNL     1      23.111  28.584  14.484  1.00  0.00     0.210 HD
ENDBRANCH  33  34
BRANCH  33  36
HETATM   36  C27 UNL     1      20.861  27.506  14.520  1.00  0.00     0.199 C 
BRANCH  36  37
HETATM   37  O7  UNL     1      19.746  28.345  14.693  1.00  0.00    -0.398 OA
ATOM     38  H7  UNL     1      19.407  28.521  13.824  1.00  0.00     0.209 HD
ENDBRANCH  36  37
ENDBRANCH  33  36
ENDBRANCH  32  33
ENDBRANCH  10  31
BRANCH  11  39
HETATM   39  C29 UNL     1      23.642  26.445  19.721  1.00  0.00     0.192 C 
HETATM   40  O8  UNL     1      24.381  27.494  19.781  1.00  0.00    -0.289 OA
BRANCH  39  41
HETATM   41  C30 UNL     1      24.343  25.261  19.242  1.00  0.00     0.309 C 
HETATM   42  O9  UNL     1      25.336  25.289  18.467  1.00  0.00    -0.298 OA
ENDBRANCH  39  41
ENDBRANCH  11  39
TORSDOF 15
ENDMDL
