MODEL 1
REMARK VINA RESULT: -7.714162419      0.000      0.000
REMARK  13 active torsions:
REMARK  status: ('A' for Active; 'I' for Inactive)
REMARK       I    between atoms: C2_2  and  N1_4 
REMARK    1  A    between atoms: N1_4  and  C3_6 
REMARK    2  A    between atoms: C3_6  and  C4_7 
REMARK    3  A    between atoms: C3_6  and  C14_30 
REMARK    4  A    between atoms: C7_10  and  N2_11 
REMARK    5  A    between atoms: N2_11  and  C8_13 
REMARK    6  A    between atoms: C8_13  and  C9_14 
REMARK    7  A    between atoms: C8_13  and  C11_18 
REMARK    8  A    between atoms: C9_14  and  C10_15 
REMARK    9  A    between atoms: C11_18  and  N3_19 
REMARK   10  A    between atoms: C11_18  and  N4_23 
REMARK   11  A    between atoms: N4_23  and  N5_25 
REMARK   12  A    between atoms: C14_30  and  N6_31 
REMARK   13  A    between atoms: C14_30  and  O4_35 
ROOT
HETATM    1  C4  UNL     1      11.061  76.138  24.317  1.00  0.00    -0.031 A 
HETATM    2  C5  UNL     1      10.682  76.950  25.363  1.00  0.00     0.011 A 
HETATM    3  C6  UNL     1      11.608  77.678  26.122  1.00  0.00     0.030 A 
HETATM    4  C7  UNL     1      12.954  77.607  25.842  1.00  0.00     0.028 A 
HETATM    5  C12 UNL     1      13.325  76.788  24.787  1.00  0.00     0.030 A 
HETATM    6  C13 UNL     1      12.412  76.070  24.040  1.00  0.00     0.011 A 
ENDROOT
BRANCH   4   7
HETATM    7  N2  UNL     1      13.937  78.342  26.576  1.00  0.00    -0.381 N 
ATOM      8  H2  UNL     1      13.828  78.410  27.587  1.00  0.00     0.160 HD
BRANCH   7   9
HETATM    9  C8  UNL     1      15.082  78.996  25.967  1.00  0.00     0.143 C 
BRANCH   9  10
HETATM   10  C9  UNL     1      16.367  78.583  26.554  1.00  0.00     0.142 C 
BRANCH  10  11
HETATM   11  C10 UNL     1      16.418  77.182  26.966  1.00  0.00     0.174 C 
HETATM   12  O2  UNL     1      16.794  76.276  26.214  1.00  0.00    -0.648 OA
HETATM   13  O3  UNL     1      16.031  76.825  28.255  1.00  0.00    -0.648 OA
ENDBRANCH  10  11
ENDBRANCH   9  10
BRANCH   9  14
HETATM   14  C11 UNL     1      14.762  80.460  25.928  1.00  0.00     0.319 C 
BRANCH  14  15
HETATM   15  N3  UNL     1      14.121  80.732  24.613  1.00  0.00    -0.055 N 
ATOM     16  H33 UNL     1      14.795  80.915  23.869  1.00  0.00     0.276 HD
ATOM     17  H32 UNL     1      13.690  79.906  24.198  1.00  0.00     0.276 HD
ATOM     18  H31 UNL     1      13.462  81.499  24.753  1.00  0.00     0.276 HD
ENDBRANCH  14  15
BRANCH  14  19
HETATM   19  N4  UNL     1      13.790  80.827  26.896  1.00  0.00    -0.311 N 
ATOM     20  H4  UNL     1      14.006  80.795  27.893  1.00  0.00     0.182 HD
BRANCH  19  21
HETATM   21  N5  UNL     1      12.564  81.221  26.460  1.00  0.00    -0.347 N 
ATOM     22  H52 UNL     1      12.488  81.865  25.672  1.00  0.00     0.176 HD
ATOM     23  H51 UNL     1      11.741  80.857  26.939  1.00  0.00     0.176 HD
ENDBRANCH  19  21
ENDBRANCH  14  19
ENDBRANCH   9  14
ENDBRANCH   7   9
ENDBRANCH   4   7
BRANCH   1  24
HETATM   24  C3  UNL     1      10.035  75.392  23.550  1.00  0.00     0.173 C 
BRANCH  24  25
HETATM   25  N1  UNL     1       9.041  74.786  24.413  1.00  0.00    -0.348 N 
HETATM   26  C2  UNL     1       9.058  73.439  24.813  1.00  0.00     0.214 C 
HETATM   27  C1  UNL     1       8.022  72.866  25.693  1.00  0.00     0.117 C 
HETATM   28  O1  UNL     1       9.975  72.688  24.417  1.00  0.00    -0.274 OA
ATOM     29  H1  UNL     1       8.280  75.375  24.752  1.00  0.00     0.163 HD
ENDBRANCH  24  25
BRANCH  24  30
HETATM   30  C14 UNL     1       9.386  76.259  22.473  1.00  0.00     0.343 C 
BRANCH  30  31
HETATM   31  N6  UNL     1       9.269  75.572  21.226  1.00  0.00    -0.051 N 
ATOM     32  H63 UNL     1       8.450  74.964  21.215  1.00  0.00     0.277 HD
ATOM     33  H62 UNL     1       9.005  76.212  20.477  1.00  0.00     0.277 HD
ATOM     34  H61 UNL     1      10.115  75.055  20.988  1.00  0.00     0.277 HD
ENDBRANCH  30  31
BRANCH  30  35
HETATM   35  O4  UNL     1       8.110  76.589  22.980  1.00  0.00    -0.368 OA
ATOM     36  H4  UNL     1       8.229  77.411  23.440  1.00  0.00     0.212 HD
ENDBRANCH  30  35
ENDBRANCH  24  30
ENDBRANCH   1  24
TORSDOF 13
ENDMDL
MODEL 2
REMARK VINA RESULT: -7.646477834      0.821      1.068
REMARK  13 active torsions:
REMARK  status: ('A' for Active; 'I' for Inactive)
REMARK       I    between atoms: C2_2  and  N1_4 
REMARK    1  A    between atoms: N1_4  and  C3_6 
REMARK    2  A    between atoms: C3_6  and  C4_7 
REMARK    3  A    between atoms: C3_6  and  C14_30 
REMARK    4  A    between atoms: C7_10  and  N2_11 
REMARK    5  A    between atoms: N2_11  and  C8_13 
REMARK    6  A    between atoms: C8_13  and  C9_14 
REMARK    7  A    between atoms: C8_13  and  C11_18 
REMARK    8  A    between atoms: C9_14  and  C10_15 
REMARK    9  A    between atoms: C11_18  and  N3_19 
REMARK   10  A    between atoms: C11_18  and  N4_23 
REMARK   11  A    between atoms: N4_23  and  N5_25 
REMARK   12  A    between atoms: C14_30  and  N6_31 
REMARK   13  A    between atoms: C14_30  and  O4_35 
ROOT
HETATM    1  C4  UNL     1      11.218  76.305  24.455  1.00  0.00    -0.031 A 
HETATM    2  C5  UNL     1      10.803  77.157  25.455  1.00  0.00     0.011 A 
HETATM    3  C6  UNL     1      11.702  77.931  26.201  1.00  0.00     0.030 A 
HETATM    4  C7  UNL     1      13.055  77.866  25.955  1.00  0.00     0.028 A 
HETATM    5  C12 UNL     1      13.461  77.006  24.947  1.00  0.00     0.030 A 
HETATM    6  C13 UNL     1      12.576  76.243  24.213  1.00  0.00     0.011 A 
ENDROOT
BRANCH   4   7
HETATM    7  N2  UNL     1      14.011  78.647  26.677  1.00  0.00    -0.381 N 
ATOM      8  H2  UNL     1      13.858  78.788  27.676  1.00  0.00     0.160 HD
BRANCH   7   9
HETATM    9  C8  UNL     1      15.186  79.252  26.075  1.00  0.00     0.143 C 
BRANCH   9  10
HETATM   10  C9  UNL     1      16.449  78.797  26.681  1.00  0.00     0.142 C 
BRANCH  10  11
HETATM   11  C10 UNL     1      16.509  77.361  26.941  1.00  0.00     0.174 C 
HETATM   12  O2  UNL     1      16.975  76.552  26.130  1.00  0.00    -0.648 OA
HETATM   13  O3  UNL     1      16.027  76.853  28.145  1.00  0.00    -0.648 OA
ENDBRANCH  10  11
ENDBRANCH   9  10
BRANCH   9  14
HETATM   14  C11 UNL     1      14.922  80.725  26.016  1.00  0.00     0.319 C 
BRANCH  14  15
HETATM   15  N3  UNL     1      13.915  81.031  27.068  1.00  0.00    -0.055 N 
ATOM     16  H33 UNL     1      14.256  80.854  28.013  1.00  0.00     0.276 HD
ATOM     17  H32 UNL     1      13.741  82.030  27.178  1.00  0.00     0.276 HD
ATOM     18  H31 UNL     1      13.073  80.502  26.840  1.00  0.00     0.276 HD
ENDBRANCH  14  15
BRANCH  14  19
HETATM   19  N4  UNL     1      16.064  81.494  26.363  1.00  0.00    -0.311 N 
ATOM     20  H4  UNL     1      16.966  81.046  26.529  1.00  0.00     0.182 HD
BRANCH  19  21
HETATM   21  N5  UNL     1      15.925  82.842  26.471  1.00  0.00    -0.347 N 
ATOM     22  H52 UNL     1      15.274  83.233  27.152  1.00  0.00     0.176 HD
ATOM     23  H51 UNL     1      16.483  83.436  25.858  1.00  0.00     0.176 HD
ENDBRANCH  19  21
ENDBRANCH  14  19
ENDBRANCH   9  14
ENDBRANCH   7   9
ENDBRANCH   4   7
BRANCH   1  24
HETATM   24  C3  UNL     1      10.220  75.511  23.700  1.00  0.00     0.173 C 
BRANCH  24  25
HETATM   25  N1  UNL     1       9.213  74.931  24.566  1.00  0.00    -0.348 N 
HETATM   26  C2  UNL     1       9.114  73.560  24.855  1.00  0.00     0.214 C 
HETATM   27  C1  UNL     1       8.070  73.015  25.743  1.00  0.00     0.117 C 
HETATM   28  O1  UNL     1       9.931  72.760  24.349  1.00  0.00    -0.274 OA
ATOM     29  H1  UNL     1       8.533  75.560  24.993  1.00  0.00     0.163 HD
ENDBRANCH  24  25
BRANCH  24  30
HETATM   30  C14 UNL     1       9.587  76.318  22.569  1.00  0.00     0.343 C 
BRANCH  30  31
HETATM   31  N6  UNL     1       9.553  75.591  21.339  1.00  0.00    -0.051 N 
ATOM     32  H63 UNL     1       9.809  74.614  21.481  1.00  0.00     0.277 HD
ATOM     33  H62 UNL     1       8.596  75.462  21.014  1.00  0.00     0.277 HD
ATOM     34  H61 UNL     1      10.132  76.023  20.619  1.00  0.00     0.277 HD
ENDBRANCH  30  31
BRANCH  30  35
HETATM   35  O4  UNL     1       8.277  76.610  23.009  1.00  0.00    -0.368 OA
ATOM     36  H4  UNL     1       7.725  75.948  22.609  1.00  0.00     0.212 HD
ENDBRANCH  30  35
ENDBRANCH  24  30
ENDBRANCH   1  24
TORSDOF 13
ENDMDL
MODEL 3
REMARK VINA RESULT: -7.635851332      0.899      2.527
REMARK  13 active torsions:
REMARK  status: ('A' for Active; 'I' for Inactive)
REMARK       I    between atoms: C2_2  and  N1_4 
REMARK    1  A    between atoms: N1_4  and  C3_6 
REMARK    2  A    between atoms: C3_6  and  C4_7 
REMARK    3  A    between atoms: C3_6  and  C14_30 
REMARK    4  A    between atoms: C7_10  and  N2_11 
REMARK    5  A    between atoms: N2_11  and  C8_13 
REMARK    6  A    between atoms: C8_13  and  C9_14 
REMARK    7  A    between atoms: C8_13  and  C11_18 
REMARK    8  A    between atoms: C9_14  and  C10_15 
REMARK    9  A    between atoms: C11_18  and  N3_19 
REMARK   10  A    between atoms: C11_18  and  N4_23 
REMARK   11  A    between atoms: N4_23  and  N5_25 
REMARK   12  A    between atoms: C14_30  and  N6_31 
REMARK   13  A    between atoms: C14_30  and  O4_35 
ROOT
HETATM    1  C4  UNL     1      10.968  76.004  24.328  1.00  0.00    -0.031 A 
HETATM    2  C5  UNL     1      10.568  76.834  25.351  1.00  0.00     0.011 A 
HETATM    3  C6  UNL     1      11.476  77.603  26.091  1.00  0.00     0.030 A 
HETATM    4  C7  UNL     1      12.823  77.556  25.814  1.00  0.00     0.028 A 
HETATM    5  C12 UNL     1      13.215  76.718  24.782  1.00  0.00     0.030 A 
HETATM    6  C13 UNL     1      12.321  75.959  24.054  1.00  0.00     0.011 A 
ENDROOT
BRANCH   4   7
HETATM    7  N2  UNL     1      13.788  78.333  26.529  1.00  0.00    -0.381 N 
ATOM      8  H2  UNL     1      13.658  78.452  27.534  1.00  0.00     0.160 HD
BRANCH   7   9
HETATM    9  C8  UNL     1      14.942  78.963  25.911  1.00  0.00     0.143 C 
BRANCH   9  10
HETATM   10  C9  UNL     1      16.218  78.579  26.538  1.00  0.00     0.142 C 
BRANCH  10  11
HETATM   11  C10 UNL     1      16.273  77.192  26.992  1.00  0.00     0.174 C 
HETATM   12  O2  UNL     1      15.986  76.852  28.145  1.00  0.00    -0.648 OA
HETATM   13  O3  UNL     1      16.663  76.188  26.108  1.00  0.00    -0.648 OA
ENDBRANCH  10  11
ENDBRANCH   9  10
BRANCH   9  14
HETATM   14  C11 UNL     1      14.620  80.422  25.801  1.00  0.00     0.319 C 
BRANCH  14  15
HETATM   15  N3  UNL     1      13.901  80.615  24.512  1.00  0.00    -0.055 N 
ATOM     16  H33 UNL     1      14.517  80.570  23.700  1.00  0.00     0.276 HD
ATOM     17  H32 UNL     1      13.303  79.827  24.265  1.00  0.00     0.276 HD
ATOM     18  H31 UNL     1      13.393  81.496  24.581  1.00  0.00     0.276 HD
ENDBRANCH  14  15
BRANCH  14  19
HETATM   19  N4  UNL     1      13.708  80.851  26.800  1.00  0.00    -0.311 N 
ATOM     20  H4  UNL     1      13.990  80.904  27.779  1.00  0.00     0.182 HD
BRANCH  19  21
HETATM   21  N5  UNL     1      12.448  81.191  26.419  1.00  0.00    -0.347 N 
ATOM     22  H52 UNL     1      12.092  80.888  25.512  1.00  0.00     0.176 HD
ATOM     23  H51 UNL     1      11.882  81.747  27.059  1.00  0.00     0.176 HD
ENDBRANCH  19  21
ENDBRANCH  14  19
ENDBRANCH   9  14
ENDBRANCH   7   9
ENDBRANCH   4   7
BRANCH   1  24
HETATM   24  C3  UNL     1       9.961  75.214  23.580  1.00  0.00     0.173 C 
BRANCH  24  25
HETATM   25  N1  UNL     1      10.223  75.202  22.155  1.00  0.00    -0.348 N 
HETATM   26  C2  UNL     1       9.512  75.967  21.214  1.00  0.00     0.214 C 
HETATM   27  C1  UNL     1       9.815  75.921  19.771  1.00  0.00     0.117 C 
HETATM   28  O1  UNL     1       8.588  76.716  21.597  1.00  0.00    -0.274 OA
ATOM     29  H1  UNL     1      10.972  74.600  21.813  1.00  0.00     0.163 HD
ENDBRANCH  24  25
BRANCH  24  30
HETATM   30  C14 UNL     1       9.820  73.799  24.134  1.00  0.00     0.343 C 
BRANCH  30  31
HETATM   31  N6  UNL     1       9.082  73.768  25.357  1.00  0.00    -0.051 N 
ATOM     32  H63 UNL     1       9.672  74.018  26.151  1.00  0.00     0.277 HD
ATOM     33  H62 UNL     1       8.413  74.536  25.403  1.00  0.00     0.277 HD
ATOM     34  H61 UNL     1       8.623  72.870  25.509  1.00  0.00     0.277 HD
ENDBRANCH  30  31
BRANCH  30  35
HETATM   35  O4  UNL     1       9.144  73.071  23.128  1.00  0.00    -0.368 OA
ATOM     36  H4  UNL     1       9.577  72.226  23.098  1.00  0.00     0.212 HD
ENDBRANCH  30  35
ENDBRANCH  24  30
ENDBRANCH   1  24
TORSDOF 13
ENDMDL
MODEL 4
REMARK VINA RESULT: -7.611098116      0.898      2.622
REMARK  13 active torsions:
REMARK  status: ('A' for Active; 'I' for Inactive)
REMARK       I    between atoms: C2_2  and  N1_4 
REMARK    1  A    between atoms: N1_4  and  C3_6 
REMARK    2  A    between atoms: C3_6  and  C4_7 
REMARK    3  A    between atoms: C3_6  and  C14_30 
REMARK    4  A    between atoms: C7_10  and  N2_11 
REMARK    5  A    between atoms: N2_11  and  C8_13 
REMARK    6  A    between atoms: C8_13  and  C9_14 
REMARK    7  A    between atoms: C8_13  and  C11_18 
REMARK    8  A    between atoms: C9_14  and  C10_15 
REMARK    9  A    between atoms: C11_18  and  N3_19 
REMARK   10  A    between atoms: C11_18  and  N4_23 
REMARK   11  A    between atoms: N4_23  and  N5_25 
REMARK   12  A    between atoms: C14_30  and  N6_31 
REMARK   13  A    between atoms: C14_30  and  O4_35 
ROOT
HETATM    1  C4  UNL     1      10.859  76.017  24.327  1.00  0.00    -0.031 A 
HETATM    2  C5  UNL     1      12.193  75.938  23.993  1.00  0.00     0.011 A 
HETATM    3  C6  UNL     1      13.180  76.669  24.669  1.00  0.00     0.030 A 
HETATM    4  C7  UNL     1      12.844  77.504  25.710  1.00  0.00     0.028 A 
HETATM    5  C12 UNL     1      11.499  77.575  26.038  1.00  0.00     0.030 A 
HETATM    6  C13 UNL     1      10.527  76.857  25.371  1.00  0.00     0.011 A 
ENDROOT
BRANCH   4   7
HETATM    7  N2  UNL     1      13.814  78.258  26.441  1.00  0.00    -0.381 N 
ATOM      8  H2  UNL     1      13.703  78.329  27.453  1.00  0.00     0.160 HD
BRANCH   7   9
HETATM    9  C8  UNL     1      14.948  78.930  25.831  1.00  0.00     0.143 C 
BRANCH   9  10
HETATM   10  C9  UNL     1      16.241  78.525  26.405  1.00  0.00     0.142 C 
BRANCH  10  11
HETATM   11  C10 UNL     1      16.296  77.132  26.842  1.00  0.00     0.174 C 
HETATM   12  O2  UNL     1      16.520  76.195  26.068  1.00  0.00    -0.648 OA
HETATM   13  O3  UNL     1      16.090  76.818  28.184  1.00  0.00    -0.648 OA
ENDBRANCH  10  11
ENDBRANCH   9  10
BRANCH   9  14
HETATM   14  C11 UNL     1      14.612  80.390  25.807  1.00  0.00     0.319 C 
BRANCH  14  15
HETATM   15  N3  UNL     1      13.911  80.657  24.521  1.00  0.00    -0.055 N 
ATOM     16  H33 UNL     1      14.539  80.670  23.718  1.00  0.00     0.276 HD
ATOM     17  H32 UNL     1      13.325  79.880  24.216  1.00  0.00     0.276 HD
ATOM     18  H31 UNL     1      13.392  81.528  24.638  1.00  0.00     0.276 HD
ENDBRANCH  14  15
BRANCH  14  19
HETATM   19  N4  UNL     1      13.680  80.748  26.817  1.00  0.00    -0.311 N 
ATOM     20  H4  UNL     1      13.931  80.692  27.804  1.00  0.00     0.182 HD
BRANCH  19  21
HETATM   21  N5  UNL     1      12.445  81.166  26.434  1.00  0.00    -0.347 N 
ATOM     22  H52 UNL     1      12.156  81.073  25.460  1.00  0.00     0.176 HD
ATOM     23  H51 UNL     1      11.830  81.567  27.142  1.00  0.00     0.176 HD
ENDBRANCH  19  21
ENDBRANCH  14  19
ENDBRANCH   9  14
ENDBRANCH   7   9
ENDBRANCH   4   7
BRANCH   1  24
HETATM   24  C3  UNL     1       9.861  75.220  23.575  1.00  0.00     0.173 C 
BRANCH  24  25
HETATM   25  N1  UNL     1      10.144  75.187  22.154  1.00  0.00    -0.348 N 
HETATM   26  C2  UNL     1       9.451  75.940  21.192  1.00  0.00     0.214 C 
HETATM   27  C1  UNL     1       9.775  75.873  19.755  1.00  0.00     0.117 C 
HETATM   28  O1  UNL     1       8.522  76.697  21.550  1.00  0.00    -0.274 OA
ATOM     29  H1  UNL     1      10.897  74.578  21.832  1.00  0.00     0.163 HD
ENDBRANCH  24  25
BRANCH  24  30
HETATM   30  C14 UNL     1       9.707  73.813  24.147  1.00  0.00     0.343 C 
BRANCH  30  31
HETATM   31  N6  UNL     1       8.742  73.759  25.199  1.00  0.00    -0.051 N 
ATOM     32  H63 UNL     1       8.392  74.689  25.426  1.00  0.00     0.277 HD
ATOM     33  H62 UNL     1       7.873  73.331  24.880  1.00  0.00     0.277 HD
ATOM     34  H61 UNL     1       9.101  73.288  26.029  1.00  0.00     0.277 HD
ENDBRANCH  30  31
BRANCH  30  35
HETATM   35  O4  UNL     1       9.298  73.011  23.057  1.00  0.00    -0.368 OA
ATOM     36  H4  UNL     1      10.062  72.498  22.824  1.00  0.00     0.212 HD
ENDBRANCH  30  35
ENDBRANCH  24  30
ENDBRANCH   1  24
TORSDOF 13
ENDMDL
MODEL 5
REMARK VINA RESULT: -7.573404521      2.902      7.259
REMARK  13 active torsions:
REMARK  status: ('A' for Active; 'I' for Inactive)
REMARK       I    between atoms: C2_2  and  N1_4 
REMARK    1  A    between atoms: N1_4  and  C3_6 
REMARK    2  A    between atoms: C3_6  and  C4_7 
REMARK    3  A    between atoms: C3_6  and  C14_30 
REMARK    4  A    between atoms: C7_10  and  N2_11 
REMARK    5  A    between atoms: N2_11  and  C8_13 
REMARK    6  A    between atoms: C8_13  and  C9_14 
REMARK    7  A    between atoms: C8_13  and  C11_18 
REMARK    8  A    between atoms: C9_14  and  C10_15 
REMARK    9  A    between atoms: C11_18  and  N3_19 
REMARK   10  A    between atoms: C11_18  and  N4_23 
REMARK   11  A    between atoms: N4_23  and  N5_25 
REMARK   12  A    between atoms: C14_30  and  N6_31 
REMARK   13  A    between atoms: C14_30  and  O4_35 
ROOT
HETATM    1  C4  UNL     1      16.541  76.324  26.240  1.00  0.00    -0.031 A 
HETATM    2  C5  UNL     1      15.768  77.301  26.827  1.00  0.00     0.011 A 
HETATM    3  C6  UNL     1      14.552  77.727  26.276  1.00  0.00     0.030 A 
HETATM    4  C7  UNL     1      14.079  77.171  25.109  1.00  0.00     0.028 A 
HETATM    5  C12 UNL     1      14.864  76.188  24.527  1.00  0.00     0.030 A 
HETATM    6  C13 UNL     1      16.063  75.770  25.070  1.00  0.00     0.011 A 
ENDROOT
BRANCH   4   7
HETATM    7  N2  UNL     1      12.837  77.558  24.515  1.00  0.00    -0.381 N 
ATOM      8  H2  UNL     1      12.868  78.109  23.657  1.00  0.00     0.160 HD
BRANCH   7   9
HETATM    9  C8  UNL     1      11.535  77.216  25.059  1.00  0.00     0.143 C 
BRANCH   9  10
HETATM   10  C9  UNL     1      10.773  76.290  24.205  1.00  0.00     0.142 C 
BRANCH  10  11
HETATM   11  C10 UNL     1      11.449  75.924  22.962  1.00  0.00     0.174 C 
HETATM   12  O2  UNL     1      12.073  74.866  22.825  1.00  0.00    -0.648 OA
HETATM   13  O3  UNL     1      11.403  76.787  21.870  1.00  0.00    -0.648 OA
ENDBRANCH  10  11
ENDBRANCH   9  10
BRANCH   9  14
HETATM   14  C11 UNL     1      10.886  78.508  25.452  1.00  0.00     0.319 C 
BRANCH  14  15
HETATM   15  N3  UNL     1      10.682  78.465  26.926  1.00  0.00    -0.055 N 
ATOM     16  H33 UNL     1      10.881  77.549  27.331  1.00  0.00     0.276 HD
ATOM     17  H32 UNL     1      11.385  78.991  27.443  1.00  0.00     0.276 HD
ATOM     18  H31 UNL     1       9.730  78.784  27.107  1.00  0.00     0.276 HD
ENDBRANCH  14  15
BRANCH  14  19
HETATM   19  N4  UNL     1      11.731  79.627  25.230  1.00  0.00    -0.311 N 
ATOM     20  H4  UNL     1      12.139  79.801  24.310  1.00  0.00     0.182 HD
BRANCH  19  21
HETATM   21  N5  UNL     1      11.983  80.461  26.273  1.00  0.00    -0.347 N 
ATOM     22  H52 UNL     1      12.707  80.223  26.951  1.00  0.00     0.176 HD
ATOM     23  H51 UNL     1      11.434  81.317  26.351  1.00  0.00     0.176 HD
ENDBRANCH  19  21
ENDBRANCH  14  19
ENDBRANCH   9  14
ENDBRANCH   7   9
ENDBRANCH   4   7
BRANCH   1  24
HETATM   24  C3  UNL     1      17.820  75.916  26.871  1.00  0.00     0.173 C 
BRANCH  24  25
HETATM   25  N1  UNL     1      17.744  75.926  28.318  1.00  0.00    -0.348 N 
HETATM   26  C2  UNL     1      18.708  76.511  29.156  1.00  0.00     0.214 C 
HETATM   27  C1  UNL     1      18.588  76.496  30.626  1.00  0.00     0.117 C 
HETATM   28  O1  UNL     1      19.709  77.067  28.653  1.00  0.00    -0.274 OA
ATOM     29  H1  UNL     1      16.938  75.480  28.756  1.00  0.00     0.163 HD
ENDBRANCH  24  25
BRANCH  24  30
HETATM   30  C14 UNL     1      18.309  74.568  26.346  1.00  0.00     0.343 C 
BRANCH  30  31
HETATM   31  N6  UNL     1      19.723  74.415  26.484  1.00  0.00    -0.051 N 
ATOM     32  H63 UNL     1      20.102  73.812  25.754  1.00  0.00     0.277 HD
ATOM     33  H62 UNL     1      20.211  75.279  26.250  1.00  0.00     0.277 HD
ATOM     34  H61 UNL     1      19.987  74.083  27.411  1.00  0.00     0.277 HD
ENDBRANCH  30  31
BRANCH  30  35
HETATM   35  O4  UNL     1      17.628  73.599  27.117  1.00  0.00    -0.368 OA
ATOM     36  H4  UNL     1      17.804  72.770  26.689  1.00  0.00     0.212 HD
ENDBRANCH  30  35
ENDBRANCH  24  30
ENDBRANCH   1  24
TORSDOF 13
ENDMDL
