MODEL 1
REMARK VINA RESULT: -6.137611321      0.000      0.000
REMARK  3 active torsions:
REMARK  status: ('A' for Active; 'I' for Inactive)
REMARK    1  A    between atoms: C2_2  and  S1_3 
REMARK    2  A    between atoms: S1_3  and  C3_4 
REMARK    3  A    between atoms: C6_7  and  O1_8 
ROOT
HETATM    1  C3  UNL     1      54.903  78.423  60.231  1.00  0.00     0.056 C 
HETATM    2  C4  UNL     1      54.999  79.910  60.140  1.00  0.00     0.019 C 
HETATM    3  C5  UNL     1      53.694  80.631  60.247  1.00  0.00     0.044 C 
HETATM    4  C6  UNL     1      52.724  80.308  59.148  1.00  0.00     0.179 C 
HETATM    5  S2  UNL     1      52.523  78.506  58.999  1.00  0.00    -0.137 SA
HETATM    6  C7  UNL     1      54.185  77.798  59.067  1.00  0.00     0.091 C 
ENDROOT
BRANCH   1   7
HETATM    7  S1  UNL     1      56.608  77.775  60.178  1.00  0.00    -0.164 SA
BRANCH   7   8
HETATM    8  C2  UNL     1      56.854  76.415  61.325  1.00  0.00     0.070 C 
HETATM    9  C1  UNL     1      58.294  76.204  61.712  1.00  0.00     0.016 C 
ENDBRANCH   7   8
ENDBRANCH   1   7
BRANCH   4  10
HETATM   10  O1  UNL     1      53.144  80.795  57.925  1.00  0.00    -0.385 OA
ATOM     11  H1  UNL     1      52.504  80.641  57.240  1.00  0.00     0.211 HD
ENDBRANCH   4  10
TORSDOF 3
ENDMDL
MODEL 2
REMARK VINA RESULT: -5.420329299      1.612      2.098
REMARK  3 active torsions:
REMARK  status: ('A' for Active; 'I' for Inactive)
REMARK    1  A    between atoms: C2_2  and  S1_3 
REMARK    2  A    between atoms: S1_3  and  C3_4 
REMARK    3  A    between atoms: C6_7  and  O1_8 
ROOT
HETATM    1  C3  UNL     1      54.913  78.914  59.945  1.00  0.00     0.056 C 
HETATM    2  C4  UNL     1      53.755  78.033  60.281  1.00  0.00     0.019 C 
HETATM    3  C5  UNL     1      52.771  77.841  59.171  1.00  0.00     0.044 C 
HETATM    4  C6  UNL     1      52.091  79.104  58.729  1.00  0.00     0.179 C 
HETATM    5  S2  UNL     1      53.329  80.385  58.358  1.00  0.00    -0.137 SA
HETATM    6  C7  UNL     1      54.526  80.348  59.712  1.00  0.00     0.091 C 
ENDROOT
BRANCH   1   7
HETATM    7  S1  UNL     1      56.016  78.918  61.398  1.00  0.00    -0.164 SA
BRANCH   7   8
HETATM    8  C2  UNL     1      57.534  78.006  61.102  1.00  0.00     0.070 C 
HETATM    9  C1  UNL     1      57.511  76.602  61.646  1.00  0.00     0.016 C 
ENDBRANCH   7   8
ENDBRANCH   1   7
BRANCH   4  10
HETATM   10  O1  UNL     1      51.238  79.600  59.695  1.00  0.00    -0.385 OA
ATOM     11  H1  UNL     1      51.593  80.370  60.124  1.00  0.00     0.211 HD
ENDBRANCH   4  10
TORSDOF 3
ENDMDL
MODEL 3
REMARK VINA RESULT: -5.406773809      1.576      2.056
REMARK  3 active torsions:
REMARK  status: ('A' for Active; 'I' for Inactive)
REMARK    1  A    between atoms: C2_2  and  S1_3 
REMARK    2  A    between atoms: S1_3  and  C3_4 
REMARK    3  A    between atoms: C6_7  and  O1_8 
ROOT
HETATM    1  C3  UNL     1      55.396  78.118  60.260  1.00  0.00     0.056 C 
HETATM    2  C4  UNL     1      54.072  77.742  59.681  1.00  0.00     0.019 C 
HETATM    3  C5  UNL     1      53.582  78.645  58.595  1.00  0.00     0.044 C 
HETATM    4  C6  UNL     1      53.344  80.060  59.037  1.00  0.00     0.179 C 
HETATM    5  S2  UNL     1      54.820  80.710  59.881  1.00  0.00    -0.137 SA
HETATM    6  C7  UNL     1      55.369  79.416  61.018  1.00  0.00     0.091 C 
ENDROOT
BRANCH   1   7
HETATM    7  S1  UNL     1      55.829  76.831  61.478  1.00  0.00    -0.164 SA
BRANCH   7   8
HETATM    8  C2  UNL     1      57.513  76.243  61.275  1.00  0.00     0.070 C 
HETATM    9  C1  UNL     1      58.541  77.344  61.269  1.00  0.00     0.016 C 
ENDBRANCH   7   8
ENDBRANCH   1   7
BRANCH   4  10
HETATM   10  O1  UNL     1      52.275  80.161  59.905  1.00  0.00    -0.385 OA
ATOM     11  H1  UNL     1      51.489  79.759  59.552  1.00  0.00     0.211 HD
ENDBRANCH   4  10
TORSDOF 3
ENDMDL
MODEL 4
REMARK VINA RESULT: -5.342243424      2.516      4.858
REMARK  3 active torsions:
REMARK  status: ('A' for Active; 'I' for Inactive)
REMARK    1  A    between atoms: C2_2  and  S1_3 
REMARK    2  A    between atoms: S1_3  and  C3_4 
REMARK    3  A    between atoms: C6_7  and  O1_8 
ROOT
HETATM    1  C3  UNL     1      55.123  79.393  61.016  1.00  0.00     0.056 C 
HETATM    2  C4  UNL     1      54.359  78.112  61.092  1.00  0.00     0.019 C 
HETATM    3  C5  UNL     1      54.997  77.050  61.929  1.00  0.00     0.044 C 
HETATM    4  C6  UNL     1      56.333  76.591  61.423  1.00  0.00     0.179 C 
HETATM    5  S2  UNL     1      57.424  78.022  61.149  1.00  0.00    -0.137 SA
HETATM    6  C7  UNL     1      56.432  79.265  60.289  1.00  0.00     0.091 C 
ENDROOT
BRANCH   1   7
HETATM    7  S1  UNL     1      54.114  80.557  60.038  1.00  0.00    -0.164 SA
BRANCH   7   8
HETATM    8  C2  UNL     1      53.248  79.742  58.694  1.00  0.00     0.070 C 
HETATM    9  C1  UNL     1      51.825  79.375  59.026  1.00  0.00     0.016 C 
ENDBRANCH   7   8
ENDBRANCH   1   7
BRANCH   4  10
HETATM   10  O1  UNL     1      56.228  75.900  60.232  1.00  0.00    -0.385 OA
ATOM     11  H1  UNL     1      55.463  76.162  59.733  1.00  0.00     0.211 HD
ENDBRANCH   4  10
TORSDOF 3
ENDMDL
MODEL 5
REMARK VINA RESULT: -5.272181324      1.601      2.237
REMARK  3 active torsions:
REMARK  status: ('A' for Active; 'I' for Inactive)
REMARK    1  A    between atoms: C2_2  and  S1_3 
REMARK    2  A    between atoms: S1_3  and  C3_4 
REMARK    3  A    between atoms: C6_7  and  O1_8 
ROOT
HETATM    1  C3  UNL     1      55.659  79.040  60.010  1.00  0.00     0.056 C 
HETATM    2  C4  UNL     1      54.980  77.717  59.875  1.00  0.00     0.019 C 
HETATM    3  C5  UNL     1      54.020  77.618  58.733  1.00  0.00     0.044 C 
HETATM    4  C6  UNL     1      52.858  78.563  58.825  1.00  0.00     0.179 C 
HETATM    5  S2  UNL     1      53.452  80.261  59.100  1.00  0.00    -0.137 SA
HETATM    6  C7  UNL     1      54.724  80.157  60.380  1.00  0.00     0.091 C 
ENDROOT
BRANCH   1   7
HETATM    7  S1  UNL     1      56.842  78.892  61.391  1.00  0.00    -0.164 SA
BRANCH   7   8
HETATM    8  C2  UNL     1      58.157  77.722  61.037  1.00  0.00     0.070 C 
HETATM    9  C1  UNL     1      58.003  76.406  61.753  1.00  0.00     0.016 C 
ENDBRANCH   7   8
ENDBRANCH   1   7
BRANCH   4  10
HETATM   10  O1  UNL     1      52.003  78.236  59.859  1.00  0.00    -0.385 OA
ATOM     11  H1  UNL     1      51.156  78.655  59.768  1.00  0.00     0.211 HD
ENDBRANCH   4  10
TORSDOF 3
ENDMDL
