MODEL 1
REMARK VINA RESULT: -4.918897217      0.000      0.000
REMARK  2 active torsions:
REMARK  status: ('A' for Active; 'I' for Inactive)
REMARK       I    between atoms: N1_2  and  C2_4 
REMARK       I    between atoms: C2_4  and  N3_8 
REMARK    1  A    between atoms: N4_10  and  N5_12 
REMARK    2  A    between atoms: N5_12  and  O1_14 
ROOT
HETATM    1  C1  UNL     1      34.660  21.948  82.269  1.00  0.00     0.165 C 
HETATM    2  N1  UNL     1      33.875  22.560  83.321  1.00  0.00    -0.230 N 
ATOM      3  H1  UNL     1      33.903  23.576  83.403  1.00  0.00     0.177 HD
HETATM    4  C2  UNL     1      33.076  21.851  84.238  1.00  0.00     0.687 C 
HETATM    5  N2  UNL     1      33.573  20.889  84.911  1.00  0.00    -0.234 N 
ATOM      6  H21 UNL     1      32.994  20.376  85.575  1.00  0.00     0.174 HD
ATOM      7  H22 UNL     1      34.551  20.625  84.792  1.00  0.00     0.174 HD
HETATM    8  N3  UNL     1      31.727  22.216  84.401  1.00  0.00    -0.117 N 
ATOM      9  H3  UNL     1      30.975  21.536  84.291  1.00  0.00     0.207 HD
HETATM   10  N4  UNL     1      31.484  23.435  84.694  1.00  0.00    -0.207 N 
ATOM     11  H4  UNL     1      32.241  24.110  84.803  1.00  0.00     0.211 HD
ENDROOT
BRANCH  10  12
HETATM   12  N5  UNL     1      30.164  23.814  84.860  1.00  0.00    -0.191 N 
HETATM   13  C3  UNL     1      29.170  22.809  85.103  1.00  0.00     0.209 C 
BRANCH  12  14
HETATM   14  O1  UNL     1      29.845  25.001  84.798  1.00  0.00    -0.272 OA
ATOM     15  H1  UNL     1      28.933  25.257  84.863  1.00  0.00     0.246 HD
ENDBRANCH  12  14
ENDBRANCH  10  12
TORSDOF 2
ENDMDL
MODEL 2
REMARK VINA RESULT: -4.818521852      2.912      4.804
REMARK  2 active torsions:
REMARK  status: ('A' for Active; 'I' for Inactive)
REMARK       I    between atoms: N1_2  and  C2_4 
REMARK       I    between atoms: C2_4  and  N3_8 
REMARK    1  A    between atoms: N4_10  and  N5_12 
REMARK    2  A    between atoms: N5_12  and  O1_14 
ROOT
HETATM    1  C1  UNL     1      27.126  20.596  83.597  1.00  0.00     0.165 C 
HETATM    2  N1  UNL     1      28.417  20.412  84.226  1.00  0.00    -0.230 N 
ATOM      3  H1  UNL     1      28.976  19.610  83.934  1.00  0.00     0.177 HD
HETATM    4  C2  UNL     1      28.954  21.262  85.211  1.00  0.00     0.687 C 
HETATM    5  N2  UNL     1      28.277  21.543  86.253  1.00  0.00    -0.234 N 
ATOM      6  H21 UNL     1      28.667  22.159  86.967  1.00  0.00     0.174 HD
ATOM      7  H22 UNL     1      27.342  21.157  86.384  1.00  0.00     0.174 HD
HETATM    8  N3  UNL     1      30.244  21.794  85.031  1.00  0.00    -0.117 N 
ATOM      9  H3  UNL     1      30.414  22.799  85.068  1.00  0.00     0.207 HD
HETATM   10  N4  UNL     1      31.194  20.966  84.820  1.00  0.00    -0.207 N 
ATOM     11  H4  UNL     1      31.016  19.962  84.784  1.00  0.00     0.211 HD
ENDROOT
BRANCH  10  12
HETATM   12  N5  UNL     1      32.469  21.469  84.640  1.00  0.00    -0.191 N 
HETATM   13  C3  UNL     1      32.636  22.763  84.046  1.00  0.00     0.209 C 
BRANCH  12  14
HETATM   14  O1  UNL     1      33.451  20.813  84.986  1.00  0.00    -0.272 OA
ATOM     15  H1  UNL     1      34.088  20.527  84.343  1.00  0.00     0.246 HD
ENDBRANCH  12  14
ENDBRANCH  10  12
TORSDOF 2
ENDMDL
MODEL 3
REMARK VINA RESULT: -4.759734354      2.895      4.360
REMARK  2 active torsions:
REMARK  status: ('A' for Active; 'I' for Inactive)
REMARK       I    between atoms: N1_2  and  C2_4 
REMARK       I    between atoms: C2_4  and  N3_8 
REMARK    1  A    between atoms: N4_10  and  N5_12 
REMARK    2  A    between atoms: N5_12  and  O1_14 
ROOT
HETATM    1  C1  UNL     1      28.270  20.087  81.803  1.00  0.00     0.165 C 
HETATM    2  N1  UNL     1      29.507  20.042  82.554  1.00  0.00    -0.230 N 
ATOM      3  H1  UNL     1      30.314  19.603  82.111  1.00  0.00     0.177 HD
HETATM    4  C2  UNL     1      29.674  20.561  83.851  1.00  0.00     0.687 C 
HETATM    5  N2  UNL     1      28.876  20.221  84.785  1.00  0.00    -0.234 N 
ATOM      6  H21 UNL     1      28.997  20.598  85.725  1.00  0.00     0.174 HD
ATOM      7  H22 UNL     1      28.111  19.572  84.602  1.00  0.00     0.174 HD
HETATM    8  N3  UNL     1      30.729  21.458  84.103  1.00  0.00    -0.117 N 
ATOM      9  H3  UNL     1      30.560  22.376  84.514  1.00  0.00     0.207 HD
HETATM   10  N4  UNL     1      31.908  21.073  83.796  1.00  0.00    -0.207 N 
ATOM     11  H4  UNL     1      32.069  20.153  83.386  1.00  0.00     0.211 HD
ENDROOT
BRANCH  10  12
HETATM   12  N5  UNL     1      32.959  21.939  84.037  1.00  0.00    -0.191 N 
HETATM   13  C3  UNL     1      33.835  22.295  82.958  1.00  0.00     0.209 C 
BRANCH  12  14
HETATM   14  O1  UNL     1      33.142  22.399  85.163  1.00  0.00    -0.272 OA
ATOM     15  H1  UNL     1      33.110  23.337  85.309  1.00  0.00     0.246 HD
ENDBRANCH  12  14
ENDBRANCH  10  12
TORSDOF 2
ENDMDL
MODEL 4
REMARK VINA RESULT: -4.742751234      2.458      4.588
REMARK  2 active torsions:
REMARK  status: ('A' for Active; 'I' for Inactive)
REMARK       I    between atoms: N1_2  and  C2_4 
REMARK       I    between atoms: C2_4  and  N3_8 
REMARK    1  A    between atoms: N4_10  and  N5_12 
REMARK    2  A    between atoms: N5_12  and  O1_14 
ROOT
HETATM    1  C1  UNL     1      26.868  20.462  83.470  1.00  0.00     0.165 C 
HETATM    2  N1  UNL     1      28.230  20.523  83.958  1.00  0.00    -0.230 N 
ATOM      3  H1  UNL     1      28.937  19.984  83.458  1.00  0.00     0.177 HD
HETATM    4  C2  UNL     1      28.646  21.275  85.072  1.00  0.00     0.687 C 
HETATM    5  N2  UNL     1      28.052  21.144  86.192  1.00  0.00    -0.234 N 
ATOM      6  H21 UNL     1      28.354  21.689  86.999  1.00  0.00     0.174 HD
ATOM      7  H22 UNL     1      27.271  20.495  86.291  1.00  0.00     0.174 HD
HETATM    8  N3  UNL     1      29.723  22.171  84.935  1.00  0.00    -0.117 N 
ATOM      9  H3  UNL     1      29.631  23.155  85.186  1.00  0.00     0.207 HD
HETATM   10  N4  UNL     1      30.821  21.699  84.483  1.00  0.00    -0.207 N 
ATOM     11  H4  UNL     1      30.905  20.713  84.234  1.00  0.00     0.211 HD
ENDROOT
BRANCH  10  12
HETATM   12  N5  UNL     1      31.892  22.562  84.341  1.00  0.00    -0.191 N 
HETATM   13  C3  UNL     1      33.151  22.050  83.883  1.00  0.00     0.209 C 
BRANCH  12  14
HETATM   14  O1  UNL     1      31.766  23.758  84.604  1.00  0.00    -0.272 OA
ATOM     15  H1  UNL     1      32.402  24.197  85.155  1.00  0.00     0.246 HD
ENDBRANCH  12  14
ENDBRANCH  10  12
TORSDOF 2
ENDMDL
MODEL 5
REMARK VINA RESULT: -4.682600479      4.222      5.181
REMARK  2 active torsions:
REMARK  status: ('A' for Active; 'I' for Inactive)
REMARK       I    between atoms: N1_2  and  C2_4 
REMARK       I    between atoms: C2_4  and  N3_8 
REMARK    1  A    between atoms: N4_10  and  N5_12 
REMARK    2  A    between atoms: N5_12  and  O1_14 
ROOT
HETATM    1  C1  UNL     1      30.988  21.255  84.827  1.00  0.00     0.165 C 
HETATM    2  N1  UNL     1      29.638  21.661  84.497  1.00  0.00    -0.230 N 
ATOM      3  H1  UNL     1      29.503  22.214  83.651  1.00  0.00     0.177 HD
HETATM    4  C2  UNL     1      28.500  21.346  85.263  1.00  0.00     0.687 C 
HETATM    5  N2  UNL     1      28.475  21.605  86.510  1.00  0.00    -0.234 N 
ATOM      6  H21 UNL     1      27.649  21.377  87.064  1.00  0.00     0.174 HD
ATOM      7  H22 UNL     1      29.276  22.043  86.965  1.00  0.00     0.174 HD
HETATM    8  N3  UNL     1      27.395  20.742  84.635  1.00  0.00    -0.117 N 
ATOM      9  H3  UNL     1      27.004  19.864  84.976  1.00  0.00     0.207 HD
HETATM   10  N4  UNL     1      26.900  21.342  83.621  1.00  0.00    -0.207 N 
ATOM     11  H4  UNL     1      27.295  22.221  83.287  1.00  0.00     0.211 HD
ENDROOT
BRANCH  10  12
HETATM   12  N5  UNL     1      25.812  20.765  82.991  1.00  0.00    -0.191 N 
HETATM   13  C3  UNL     1      25.490  19.394  83.261  1.00  0.00     0.209 C 
BRANCH  12  14
HETATM   14  O1  UNL     1      25.128  21.421  82.206  1.00  0.00    -0.272 OA
ATOM     15  H1  UNL     1      24.274  21.744  82.467  1.00  0.00     0.246 HD
ENDBRANCH  12  14
ENDBRANCH  10  12
TORSDOF 2
ENDMDL
