MODEL 1
REMARK VINA RESULT: -9.273538861      0.000      0.000
REMARK  4 active torsions:
REMARK  status: ('A' for Active; 'I' for Inactive)
REMARK    1  A    between atoms: C2_3  and  C3_4 
REMARK    2  A    between atoms: C4_5  and  O1_6 
REMARK    3  A    between atoms: N3_12  and  C6_13 
REMARK    4  A    between atoms: N4_14  and  O3_16 
ROOT
HETATM    1  C3  UNL     1      34.877  60.310   8.801  1.00  0.00     0.122 A 
HETATM    2  C4  UNL     1      35.423  61.266   7.999  1.00  0.00     0.174 A 
HETATM    3  N2  UNL     1      35.774  60.651   6.824  1.00  0.00    -0.287 N 
ATOM      4  H2  UNL     1      36.206  61.097   6.016  1.00  0.00     0.172 HD
HETATM    5  C5  UNL     1      35.452  59.383   6.930  1.00  0.00     0.334 A 
HETATM    6  O2  UNL     1      35.629  58.490   6.032  1.00  0.00    -0.246 OA
HETATM    7  N3  UNL     1      34.891  59.102   8.128  1.00  0.00    -0.252 N 
ENDROOT
BRANCH   1   8
HETATM    8  C2  UNL     1      34.233  60.457  10.093  1.00  0.00     0.075 A 
HETATM    9  N1  UNL     1      33.587  61.518  10.537  1.00  0.00    -0.301 N 
HETATM   10  C1  UNL     1      33.436  62.746   9.759  1.00  0.00     0.161 C 
HETATM   11  C9  UNL     1      32.924  61.506  11.748  1.00  0.00     0.329 A 
HETATM   12  N5  UNL     1      32.924  60.401  12.501  1.00  0.00    -0.275 N 
HETATM   13  O5  UNL     1      32.334  62.546  12.110  1.00  0.00    -0.246 OA
HETATM   14  C8  UNL     1      33.566  59.304  12.084  1.00  0.00     0.251 A 
ATOM     15  H5  UNL     1      32.434  60.395  13.395  1.00  0.00     0.173 HD
HETATM   16  C7  UNL     1      34.227  59.310  10.886  1.00  0.00     0.106 A 
HETATM   17  O4  UNL     1      33.583  58.232  12.781  1.00  0.00    -0.268 OA
ENDBRANCH   1   8
BRANCH   2  18
HETATM   18  O1  UNL     1      35.649  62.626   8.201  1.00  0.00    -0.344 OA
ATOM     19  H1  UNL     1      35.804  63.338   7.591  1.00  0.00     0.219 HD
ENDBRANCH   2  18
BRANCH   7  20
HETATM   20  C6  UNL     1      34.409  57.836   8.540  1.00  0.00     0.217 C 
HETATM   21  N4  UNL     1      35.206  56.840   8.584  1.00  0.00    -0.264 N 
ATOM     22  H4  UNL     1      36.176  57.005   8.314  1.00  0.00     0.194 HD
BRANCH  21  23
HETATM   23  O3  UNL     1      34.870  55.580   8.960  1.00  0.00    -0.289 OA
ATOM     24  H3  UNL     1      35.354  54.793   8.740  1.00  0.00     0.244 HD
ENDBRANCH  21  23
ENDBRANCH   7  20
TORSDOF 4
ENDMDL
MODEL 2
REMARK VINA RESULT: -8.139967869      1.955      4.432
REMARK  4 active torsions:
REMARK  status: ('A' for Active; 'I' for Inactive)
REMARK    1  A    between atoms: C2_3  and  C3_4 
REMARK    2  A    between atoms: C4_5  and  O1_6 
REMARK    3  A    between atoms: N3_12  and  C6_13 
REMARK    4  A    between atoms: N4_14  and  O3_16 
ROOT
HETATM    1  C3  UNL     1      33.859  60.883  10.083  1.00  0.00     0.122 A 
HETATM    2  C4  UNL     1      34.453  59.976   9.259  1.00  0.00     0.174 A 
HETATM    3  N2  UNL     1      35.024  60.682   8.231  1.00  0.00    -0.287 N 
ATOM      4  H2  UNL     1      35.548  60.290   7.449  1.00  0.00     0.172 HD
HETATM    5  C5  UNL     1      34.774  61.954   8.438  1.00  0.00     0.334 A 
HETATM    6  O2  UNL     1      35.147  62.920   7.687  1.00  0.00    -0.246 OA
HETATM    7  N3  UNL     1      34.057  62.151   9.567  1.00  0.00    -0.252 N 
ENDROOT
BRANCH   1   8
HETATM    8  C2  UNL     1      33.229  60.674  11.373  1.00  0.00     0.075 A 
HETATM    9  N1  UNL     1      33.693  59.946  12.370  1.00  0.00    -0.301 N 
HETATM   10  C1  UNL     1      34.955  59.211  12.303  1.00  0.00     0.161 C 
HETATM   11  C9  UNL     1      33.055  59.902  13.593  1.00  0.00     0.329 A 
HETATM   12  N5  UNL     1      31.937  60.610  13.790  1.00  0.00    -0.275 N 
HETATM   13  O5  UNL     1      33.547  59.190  14.493  1.00  0.00    -0.246 OA
HETATM   14  C8  UNL     1      31.435  61.363  12.804  1.00  0.00     0.251 A 
ATOM     15  H5  UNL     1      31.467  60.576  14.695  1.00  0.00     0.173 HD
HETATM   16  C7  UNL     1      32.063  61.408  11.590  1.00  0.00     0.106 A 
HETATM   17  O4  UNL     1      30.370  62.051  12.963  1.00  0.00    -0.268 OA
ENDBRANCH   1   8
BRANCH   2  18
HETATM   18  O1  UNL     1      34.537  58.586   9.319  1.00  0.00    -0.344 OA
ATOM     19  H1  UNL     1      34.992  57.957   8.772  1.00  0.00     0.219 HD
ENDBRANCH   2  18
BRANCH   7  20
HETATM   20  C6  UNL     1      33.652  63.406  10.082  1.00  0.00     0.217 C 
HETATM   21  N4  UNL     1      33.763  64.452   9.358  1.00  0.00    -0.264 N 
ATOM     22  H4  UNL     1      34.147  64.333   8.421  1.00  0.00     0.194 HD
BRANCH  21  23
HETATM   23  O3  UNL     1      33.413  65.708   9.733  1.00  0.00    -0.289 OA
ATOM     24  H3  UNL     1      33.474  66.482   9.186  1.00  0.00     0.244 HD
ENDBRANCH  21  23
ENDBRANCH   7  20
TORSDOF 4
ENDMDL
MODEL 3
REMARK VINA RESULT: -8.127360568      1.680      2.840
REMARK  4 active torsions:
REMARK  status: ('A' for Active; 'I' for Inactive)
REMARK    1  A    between atoms: C2_3  and  C3_4 
REMARK    2  A    between atoms: C4_5  and  O1_6 
REMARK    3  A    between atoms: N3_12  and  C6_13 
REMARK    4  A    between atoms: N4_14  and  O3_16 
ROOT
HETATM    1  C3  UNL     1      33.886  61.420  10.208  1.00  0.00     0.122 A 
HETATM    2  C4  UNL     1      34.008  62.683   9.714  1.00  0.00     0.174 A 
HETATM    3  N2  UNL     1      34.590  62.574   8.477  1.00  0.00    -0.287 N 
ATOM      4  H2  UNL     1      34.815  63.344   7.847  1.00  0.00     0.172 HD
HETATM    5  C5  UNL     1      34.807  61.300   8.252  1.00  0.00     0.334 A 
HETATM    6  O2  UNL     1      35.340  60.807   7.199  1.00  0.00    -0.246 OA
HETATM    7  N3  UNL     1      34.395  60.527   9.282  1.00  0.00    -0.252 N 
ENDROOT
BRANCH   1   8
HETATM    8  C2  UNL     1      33.222  60.970  11.418  1.00  0.00     0.075 A 
HETATM    9  N1  UNL     1      33.675  60.084  12.284  1.00  0.00    -0.301 N 
HETATM   10  C1  UNL     1      34.956  59.398  12.130  1.00  0.00     0.161 C 
HETATM   11  C9  UNL     1      33.000  59.810  13.457  1.00  0.00     0.329 A 
HETATM   12  N5  UNL     1      31.859  60.448  13.738  1.00  0.00    -0.275 N 
HETATM   13  O5  UNL     1      33.483  58.957  14.232  1.00  0.00    -0.246 OA
HETATM   14  C8  UNL     1      31.369  61.355  12.886  1.00  0.00     0.251 A 
ATOM     15  H5  UNL     1      31.363  60.243  14.605  1.00  0.00     0.173 HD
HETATM   16  C7  UNL     1      32.032  61.631  11.722  1.00  0.00     0.106 A 
HETATM   17  O4  UNL     1      30.282  61.983  13.129  1.00  0.00    -0.268 OA
ENDBRANCH   1   8
BRANCH   2  18
HETATM   18  O1  UNL     1      33.663  63.924  10.246  1.00  0.00    -0.344 OA
ATOM     19  H1  UNL     1      33.163  64.163  11.018  1.00  0.00     0.219 HD
ENDBRANCH   2  18
BRANCH   7  20
HETATM   20  C6  UNL     1      34.461  59.114   9.336  1.00  0.00     0.217 C 
HETATM   21  N4  UNL     1      35.360  58.498   8.672  1.00  0.00    -0.264 N 
ATOM     22  H4  UNL     1      36.005  59.065   8.121  1.00  0.00     0.194 HD
BRANCH  21  23
HETATM   23  O3  UNL     1      35.530  57.152   8.640  1.00  0.00    -0.289 OA
ATOM     24  H3  UNL     1      35.593  56.625   7.853  1.00  0.00     0.244 HD
ENDBRANCH  21  23
ENDBRANCH   7  20
TORSDOF 4
ENDMDL
MODEL 4
REMARK VINA RESULT: -7.627229874      1.907      4.465
REMARK  4 active torsions:
REMARK  status: ('A' for Active; 'I' for Inactive)
REMARK    1  A    between atoms: C2_3  and  C3_4 
REMARK    2  A    between atoms: C4_5  and  O1_6 
REMARK    3  A    between atoms: N3_12  and  C6_13 
REMARK    4  A    between atoms: N4_14  and  O3_16 
ROOT
HETATM    1  C3  UNL     1      34.419  61.500   9.074  1.00  0.00     0.122 A 
HETATM    2  C4  UNL     1      35.068  60.837   8.078  1.00  0.00     0.174 A 
HETATM    3  N2  UNL     1      35.588  61.788   7.236  1.00  0.00    -0.287 N 
ATOM      4  H2  UNL     1      36.133  61.613   6.392  1.00  0.00     0.172 HD
HETATM    5  C5  UNL     1      35.255  62.964   7.715  1.00  0.00     0.334 A 
HETATM    6  O2  UNL     1      35.561  64.094   7.199  1.00  0.00    -0.246 OA
HETATM    7  N3  UNL     1      34.531  62.861   8.852  1.00  0.00    -0.252 N 
ENDROOT
BRANCH   1   8
HETATM    8  C2  UNL     1      33.810  60.971  10.280  1.00  0.00     0.075 A 
HETATM    9  N1  UNL     1      34.146  59.866  10.916  1.00  0.00    -0.301 N 
HETATM   10  C1  UNL     1      35.219  58.980  10.466  1.00  0.00     0.161 C 
HETATM   11  C9  UNL     1      33.561  59.514  12.116  1.00  0.00     0.329 A 
HETATM   12  N5  UNL     1      32.629  60.303  12.662  1.00  0.00    -0.275 N 
HETATM   13  O5  UNL     1      33.925  58.452  12.663  1.00  0.00    -0.246 OA
HETATM   14  C8  UNL     1      32.261  61.433  12.049  1.00  0.00     0.251 A 
ATOM     15  H5  UNL     1      32.198  60.041  13.549  1.00  0.00     0.173 HD
HETATM   16  C7  UNL     1      32.837  61.786  10.859  1.00  0.00     0.106 A 
HETATM   17  O4  UNL     1      31.375  62.207  12.547  1.00  0.00    -0.268 OA
ENDBRANCH   1   8
BRANCH   2  18
HETATM   18  O1  UNL     1      35.243  59.477   7.830  1.00  0.00    -0.344 OA
ATOM     19  H1  UNL     1      35.872  58.850   8.167  1.00  0.00     0.219 HD
ENDBRANCH   2  18
BRANCH   7  20
HETATM   20  C6  UNL     1      34.048  63.943   9.627  1.00  0.00     0.217 C 
HETATM   21  N4  UNL     1      33.779  65.054   9.061  1.00  0.00    -0.264 N 
ATOM     22  H4  UNL     1      33.928  65.115   8.054  1.00  0.00     0.194 HD
BRANCH  21  23
HETATM   23  O3  UNL     1      33.311  66.163   9.688  1.00  0.00    -0.289 OA
ATOM     24  H3  UNL     1      32.444  66.534   9.576  1.00  0.00     0.244 HD
ENDBRANCH  21  23
ENDBRANCH   7  20
TORSDOF 4
ENDMDL
MODEL 5
REMARK VINA RESULT: -7.556554743      2.121      5.293
REMARK  4 active torsions:
REMARK  status: ('A' for Active; 'I' for Inactive)
REMARK    1  A    between atoms: C2_3  and  C3_4 
REMARK    2  A    between atoms: C4_5  and  O1_6 
REMARK    3  A    between atoms: N3_12  and  C6_13 
REMARK    4  A    between atoms: N4_14  and  O3_16 
ROOT
HETATM    1  C3  UNL     1      34.428  62.495   9.089  1.00  0.00     0.122 A 
HETATM    2  C4  UNL     1      33.477  63.066   9.879  1.00  0.00     0.174 A 
HETATM    3  N2  UNL     1      33.537  64.419   9.663  1.00  0.00    -0.287 N 
ATOM      4  H2  UNL     1      32.950  65.127  10.106  1.00  0.00     0.172 HD
HETATM    5  C5  UNL     1      34.486  64.638   8.784  1.00  0.00     0.334 A 
HETATM    6  O2  UNL     1      34.837  65.783   8.333  1.00  0.00    -0.246 OA
HETATM    7  N3  UNL     1      35.080  63.491   8.385  1.00  0.00    -0.252 N 
ENDROOT
BRANCH   1   8
HETATM    8  C2  UNL     1      34.692  61.089   8.846  1.00  0.00     0.075 A 
HETATM    9  N1  UNL     1      34.466  60.088   9.674  1.00  0.00    -0.301 N 
HETATM   10  C1  UNL     1      33.902  60.268  11.011  1.00  0.00     0.161 C 
HETATM   11  C9  UNL     1      34.663  58.776   9.294  1.00  0.00     0.329 A 
HETATM   12  N5  UNL     1      35.094  58.494   8.059  1.00  0.00    -0.275 N 
HETATM   13  O5  UNL     1      34.432  57.876  10.128  1.00  0.00    -0.246 OA
HETATM   14  C8  UNL     1      35.333  59.482   7.189  1.00  0.00     0.251 A 
ATOM     15  H5  UNL     1      35.239  57.524   7.780  1.00  0.00     0.173 HD
HETATM   16  C7  UNL     1      35.141  60.784   7.561  1.00  0.00     0.106 A 
HETATM   17  O4  UNL     1      35.743  59.244   6.002  1.00  0.00    -0.268 OA
ENDBRANCH   1   8
BRANCH   2  18
HETATM   18  O1  UNL     1      32.566  62.515  10.778  1.00  0.00    -0.344 OA
ATOM     19  H1  UNL     1      32.163  62.865  11.564  1.00  0.00     0.219 HD
ENDBRANCH   2  18
BRANCH   7  20
HETATM   20  C6  UNL     1      36.116  63.385   7.425  1.00  0.00     0.217 C 
HETATM   21  N4  UNL     1      37.162  64.106   7.544  1.00  0.00    -0.264 N 
ATOM     22  H4  UNL     1      37.205  64.740   8.341  1.00  0.00     0.194 HD
BRANCH  21  23
HETATM   23  O3  UNL     1      38.222  64.099   6.696  1.00  0.00    -0.289 OA
ATOM     24  H3  UNL     1      38.589  64.862   6.268  1.00  0.00     0.244 HD
ENDBRANCH  21  23
ENDBRANCH   7  20
TORSDOF 4
ENDMDL
