MODEL 1
REMARK VINA RESULT: -8.617791497      0.000      0.000
REMARK  4 active torsions:
REMARK  status: ('A' for Active; 'I' for Inactive)
REMARK    1  A    between atoms: O1_2  and  C2_3 
REMARK    2  A    between atoms: C2_3  and  C3_5 
REMARK    3  A    between atoms: C4_8  and  C5_9 
REMARK    4  A    between atoms: C7_15  and  N4_16 
ROOT
HETATM    1  C3  UNL     1      33.822  59.673  11.071  1.00  0.00     0.198 A 
HETATM    2  N1  UNL     1      33.931  60.913  10.590  1.00  0.00    -0.321 N 
ATOM      3  H1  UNL     1      33.626  61.695  11.170  1.00  0.00     0.169 HD
HETATM    4  C4  UNL     1      34.427  61.165   9.374  1.00  0.00     0.151 A 
HETATM    5  N6  UNL     1      34.826  60.087   8.624  1.00  0.00    -0.174 N 
ATOM      6  H6  UNL     1      35.208  60.243   7.692  1.00  0.00     0.186 HD
HETATM    7  C9  UNL     1      34.724  58.835   9.087  1.00  0.00     0.679 A 
HETATM    8  N7  UNL     1      35.106  57.808   8.368  1.00  0.00    -0.234 N 
ATOM      9  H71 UNL     1      35.028  56.854   8.721  1.00  0.00     0.174 HD
ATOM     10  H72 UNL     1      35.489  57.959   7.435  1.00  0.00     0.174 HD
HETATM   11  N8  UNL     1      34.220  58.636  10.316  1.00  0.00    -0.171 N 
ATOM     12  H8  UNL     1      34.138  57.687  10.680  1.00  0.00     0.186 HD
ENDROOT
BRANCH   4  13
HETATM   13  C5  UNL     1      34.584  62.477   8.770  1.00  0.00     0.112 A 
HETATM   14  C6  UNL     1      35.382  62.555   7.624  1.00  0.00     0.141 A 
HETATM   15  N2  UNL     1      35.535  63.757   7.055  1.00  0.00    -0.295 N 
HETATM   16  N3  UNL     1      34.969  64.830   7.534  1.00  0.00    -0.133 N 
ATOM     17  H2  UNL     1      36.114  63.836   6.219  1.00  0.00     0.186 HD
HETATM   18  C7  UNL     1      34.176  64.816   8.653  1.00  0.00     0.693 A 
ATOM     19  H3  UNL     1      35.123  65.717   7.055  1.00  0.00     0.205 HD
HETATM   20  N5  UNL     1      34.015  63.601   9.239  1.00  0.00    -0.182 N 
HETATM   21  C8  UNL     1      33.183  63.537  10.433  1.00  0.00     0.176 C 
BRANCH  18  22
HETATM   22  N4  UNL     1      33.661  65.912   9.052  1.00  0.00    -0.233 N 
ATOM     23  H42 UNL     1      34.070  66.551   9.736  1.00  0.00     0.174 HD
ATOM     24  H41 UNL     1      32.761  66.198   8.668  1.00  0.00     0.174 HD
ENDBRANCH  18  22
ENDBRANCH   4  13
BRANCH   1  25
HETATM   25  C2  UNL     1      33.285  59.380  12.392  1.00  0.00     0.327 C 
HETATM   26  O2  UNL     1      33.326  58.219  12.862  1.00  0.00    -0.256 OA
BRANCH  25  27
HETATM   27  O1  UNL     1      32.725  60.417  13.122  1.00  0.00    -0.320 OA
HETATM   28  C1  UNL     1      31.313  60.665  13.102  1.00  0.00     0.213 C 
ENDBRANCH  25  27
ENDBRANCH   1  25
TORSDOF 4
ENDMDL
MODEL 2
REMARK VINA RESULT: -7.417487493      3.077      5.338
REMARK  4 active torsions:
REMARK  status: ('A' for Active; 'I' for Inactive)
REMARK    1  A    between atoms: O1_2  and  C2_3 
REMARK    2  A    between atoms: C2_3  and  C3_5 
REMARK    3  A    between atoms: C4_8  and  C5_9 
REMARK    4  A    between atoms: C7_15  and  N4_16 
ROOT
HETATM    1  C3  UNL     1      35.128  62.426   7.998  1.00  0.00     0.198 A 
HETATM    2  N1  UNL     1      34.589  62.067   9.165  1.00  0.00    -0.321 N 
ATOM      3  H1  UNL     1      34.311  62.795   9.823  1.00  0.00     0.169 HD
HETATM    4  C4  UNL     1      34.402  60.786   9.500  1.00  0.00     0.151 A 
HETATM    5  N6  UNL     1      34.790  59.837   8.587  1.00  0.00    -0.174 N 
ATOM      6  H6  UNL     1      34.662  58.850   8.810  1.00  0.00     0.186 HD
HETATM    7  C9  UNL     1      35.333  60.175   7.411  1.00  0.00     0.679 A 
HETATM    8  N7  UNL     1      35.702  59.267   6.542  1.00  0.00    -0.234 N 
ATOM      9  H71 UNL     1      36.116  59.525   5.646  1.00  0.00     0.174 HD
ATOM     10  H72 UNL     1      35.577  58.278   6.760  1.00  0.00     0.174 HD
HETATM   11  N8  UNL     1      35.499  61.478   7.123  1.00  0.00    -0.171 N 
ATOM     12  H8  UNL     1      35.911  61.749   6.230  1.00  0.00     0.186 HD
ENDROOT
BRANCH   4  13
HETATM   13  C5  UNL     1      33.825  60.303  10.741  1.00  0.00     0.112 A 
HETATM   14  C6  UNL     1      34.172  59.007  11.139  1.00  0.00     0.141 A 
HETATM   15  N2  UNL     1      33.650  58.548  12.283  1.00  0.00    -0.295 N 
HETATM   16  N3  UNL     1      32.845  59.265  13.017  1.00  0.00    -0.133 N 
ATOM     17  H2  UNL     1      33.889  57.606  12.590  1.00  0.00     0.186 HD
HETATM   18  C7  UNL     1      32.469  60.541  12.680  1.00  0.00     0.693 A 
ATOM     19  H3  UNL     1      32.479  58.860  13.878  1.00  0.00     0.205 HD
HETATM   20  N5  UNL     1      32.993  61.016  11.519  1.00  0.00    -0.182 N 
HETATM   21  C8  UNL     1      32.620  62.366  11.118  1.00  0.00     0.176 C 
BRANCH  18  22
HETATM   22  N4  UNL     1      31.677  61.171  13.456  1.00  0.00    -0.233 N 
ATOM     23  H42 UNL     1      31.496  62.175  13.439  1.00  0.00     0.174 HD
ATOM     24  H41 UNL     1      31.168  60.646  14.167  1.00  0.00     0.174 HD
ENDBRANCH  18  22
ENDBRANCH   4  13
BRANCH   1  25
HETATM   25  C2  UNL     1      35.339  63.816   7.617  1.00  0.00     0.327 C 
HETATM   26  O2  UNL     1      36.493  64.264   7.426  1.00  0.00    -0.256 OA
BRANCH  25  27
HETATM   27  O1  UNL     1      34.230  64.636   7.471  1.00  0.00    -0.320 OA
HETATM   28  C1  UNL     1      34.001  65.744   8.351  1.00  0.00     0.213 C 
ENDBRANCH  25  27
ENDBRANCH   1  25
TORSDOF 4
ENDMDL
MODEL 3
REMARK VINA RESULT: -7.393836190      2.875      6.110
REMARK  4 active torsions:
REMARK  status: ('A' for Active; 'I' for Inactive)
REMARK    1  A    between atoms: O1_2  and  C2_3 
REMARK    2  A    between atoms: C2_3  and  C3_5 
REMARK    3  A    between atoms: C4_8  and  C5_9 
REMARK    4  A    between atoms: C7_15  and  N4_16 
ROOT
HETATM    1  C3  UNL     1      34.618  64.430   8.362  1.00  0.00     0.198 A 
HETATM    2  N1  UNL     1      34.238  63.218   8.773  1.00  0.00    -0.321 N 
ATOM      3  H1  UNL     1      33.317  63.108   9.198  1.00  0.00     0.169 HD
HETATM    4  C4  UNL     1      35.025  62.143   8.647  1.00  0.00     0.151 A 
HETATM    5  N6  UNL     1      36.256  62.333   8.071  1.00  0.00    -0.174 N 
ATOM      6  H6  UNL     1      36.881  61.535   7.959  1.00  0.00     0.186 HD
HETATM    7  C9  UNL     1      36.656  63.540   7.652  1.00  0.00     0.679 A 
HETATM    8  N7  UNL     1      37.833  63.717   7.103  1.00  0.00    -0.234 N 
ATOM      9  H71 UNL     1      38.137  64.637   6.784  1.00  0.00     0.174 HD
ATOM     10  H72 UNL     1      38.462  62.923   6.989  1.00  0.00     0.174 HD
HETATM   11  N8  UNL     1      35.827  64.587   7.802  1.00  0.00    -0.171 N 
ATOM     12  H8  UNL     1      36.120  65.512   7.487  1.00  0.00     0.186 HD
ENDROOT
BRANCH   4  13
HETATM   13  C5  UNL     1      34.697  60.791   9.062  1.00  0.00     0.112 A 
HETATM   14  C6  UNL     1      34.057  60.646  10.298  1.00  0.00     0.141 A 
HETATM   15  N2  UNL     1      33.747  59.406  10.695  1.00  0.00    -0.295 N 
HETATM   16  N3  UNL     1      34.021  58.356   9.972  1.00  0.00    -0.133 N 
ATOM     17  H2  UNL     1      33.281  59.278  11.593  1.00  0.00     0.186 HD
HETATM   18  C7  UNL     1      34.646  58.435   8.753  1.00  0.00     0.693 A 
ATOM     19  H3  UNL     1      33.759  57.437  10.328  1.00  0.00     0.205 HD
HETATM   20  N5  UNL     1      34.966  59.689   8.342  1.00  0.00    -0.182 N 
HETATM   21  C8  UNL     1      35.635  59.823   7.054  1.00  0.00     0.176 C 
BRANCH  18  22
HETATM   22  N4  UNL     1      34.876  57.356   8.112  1.00  0.00    -0.233 N 
ATOM     23  H42 UNL     1      35.598  56.670   8.335  1.00  0.00     0.174 HD
ATOM     24  H41 UNL     1      34.299  57.138   7.300  1.00  0.00     0.174 HD
ENDBRANCH  18  22
ENDBRANCH   4  13
BRANCH   1  25
HETATM   25  C2  UNL     1      33.774  65.610   8.492  1.00  0.00     0.327 C 
HETATM   26  O2  UNL     1      33.018  65.756   9.480  1.00  0.00    -0.256 OA
BRANCH  25  27
HETATM   27  O1  UNL     1      33.825  66.571   7.494  1.00  0.00    -0.320 OA
HETATM   28  C1  UNL     1      33.609  67.958   7.782  1.00  0.00     0.213 C 
ENDBRANCH  25  27
ENDBRANCH   1  25
TORSDOF 4
ENDMDL
MODEL 4
REMARK VINA RESULT: -7.389412554      3.089      5.606
REMARK  4 active torsions:
REMARK  status: ('A' for Active; 'I' for Inactive)
REMARK    1  A    between atoms: O1_2  and  C2_3 
REMARK    2  A    between atoms: C2_3  and  C3_5 
REMARK    3  A    between atoms: C4_8  and  C5_9 
REMARK    4  A    between atoms: C7_15  and  N4_16 
ROOT
HETATM    1  C3  UNL     1      34.559  62.333   8.757  1.00  0.00     0.198 A 
HETATM    2  N1  UNL     1      33.850  62.279   9.886  1.00  0.00    -0.321 N 
ATOM      3  H1  UNL     1      33.475  63.145  10.274  1.00  0.00     0.169 HD
HETATM    4  C4  UNL     1      33.615  61.129  10.526  1.00  0.00     0.151 A 
HETATM    5  N6  UNL     1      34.137  59.986   9.973  1.00  0.00    -0.174 N 
ATOM      6  H6  UNL     1      33.977  59.092  10.435  1.00  0.00     0.186 HD
HETATM    7  C9  UNL     1      34.852  60.018   8.842  1.00  0.00     0.679 A 
HETATM    8  N7  UNL     1      35.348  58.925   8.316  1.00  0.00    -0.234 N 
ATOM      9  H71 UNL     1      35.893  58.950   7.454  1.00  0.00     0.174 HD
ATOM     10  H72 UNL     1      35.192  58.028   8.775  1.00  0.00     0.174 HD
HETATM   11  N8  UNL     1      35.059  61.201   8.237  1.00  0.00    -0.171 N 
ATOM     12  H8  UNL     1      35.601  61.238   7.374  1.00  0.00     0.186 HD
ENDROOT
BRANCH   4  13
HETATM   13  C5  UNL     1      32.857  60.974  11.755  1.00  0.00     0.112 A 
HETATM   14  C6  UNL     1      31.644  61.667  11.842  1.00  0.00     0.141 A 
HETATM   15  N2  UNL     1      30.933  61.534  12.967  1.00  0.00    -0.295 N 
HETATM   16  N3  UNL     1      31.335  60.789  13.960  1.00  0.00    -0.133 N 
ATOM     17  H2  UNL     1      30.046  62.031  13.052  1.00  0.00     0.186 HD
HETATM   18  C7  UNL     1      32.512  60.087  13.933  1.00  0.00     0.693 A 
ATOM     19  H3  UNL     1      30.748  60.727  14.792  1.00  0.00     0.205 HD
HETATM   20  N5  UNL     1      33.243  60.216  12.795  1.00  0.00    -0.182 N 
HETATM   21  C8  UNL     1      34.504  59.490  12.721  1.00  0.00     0.176 C 
BRANCH  18  22
HETATM   22  N4  UNL     1      32.828  59.383  14.948  1.00  0.00    -0.233 N 
ATOM     23  H42 UNL     1      32.188  59.057  15.673  1.00  0.00     0.174 HD
ATOM     24  H41 UNL     1      33.803  59.107  15.069  1.00  0.00     0.174 HD
ENDBRANCH  18  22
ENDBRANCH   4  13
BRANCH   1  25
HETATM   25  C2  UNL     1      34.825  63.577   8.047  1.00  0.00     0.327 C 
HETATM   26  O2  UNL     1      35.051  63.580   6.815  1.00  0.00    -0.256 OA
BRANCH  25  27
HETATM   27  O1  UNL     1      34.823  64.761   8.767  1.00  0.00    -0.320 OA
HETATM   28  C1  UNL     1      33.964  65.852   8.408  1.00  0.00     0.213 C 
ENDBRANCH  25  27
ENDBRANCH   1  25
TORSDOF 4
ENDMDL
MODEL 5
REMARK VINA RESULT: -7.384974044      2.825      5.852
REMARK  4 active torsions:
REMARK  status: ('A' for Active; 'I' for Inactive)
REMARK    1  A    between atoms: O1_2  and  C2_3 
REMARK    2  A    between atoms: C2_3  and  C3_5 
REMARK    3  A    between atoms: C4_8  and  C5_9 
REMARK    4  A    between atoms: C7_15  and  N4_16 
ROOT
HETATM    1  C3  UNL     1      34.759  64.275   8.203  1.00  0.00     0.198 A 
HETATM    2  N1  UNL     1      34.452  62.998   8.439  1.00  0.00    -0.321 N 
ATOM      3  H1  UNL     1      33.524  62.772   8.795  1.00  0.00     0.169 HD
HETATM    4  C4  UNL     1      35.322  62.005   8.224  1.00  0.00     0.151 A 
HETATM    5  N6  UNL     1      36.561  62.350   7.745  1.00  0.00    -0.174 N 
ATOM      6  H6  UNL     1      37.249  61.618   7.570  1.00  0.00     0.186 HD
HETATM    7  C9  UNL     1      36.889  63.625   7.502  1.00  0.00     0.679 A 
HETATM    8  N7  UNL     1      38.073  63.951   7.045  1.00  0.00    -0.234 N 
ATOM      9  H71 UNL     1      38.322  64.923   6.861  1.00  0.00     0.174 HD
ATOM     10  H72 UNL     1      38.764  63.223   6.869  1.00  0.00     0.174 HD
HETATM   11  N8  UNL     1      35.978  64.586   7.735  1.00  0.00    -0.171 N 
ATOM     12  H8  UNL     1      36.215  65.561   7.553  1.00  0.00     0.186 HD
ENDROOT
BRANCH   4  13
HETATM   13  C5  UNL     1      35.078  60.592   8.450  1.00  0.00     0.112 A 
HETATM   14  C6  UNL     1      35.513  59.707   7.457  1.00  0.00     0.141 A 
HETATM   15  N2  UNL     1      35.296  58.401   7.651  1.00  0.00    -0.295 N 
HETATM   16  N3  UNL     1      34.704  57.946   8.720  1.00  0.00    -0.133 N 
ATOM     17  H2  UNL     1      35.605  57.739   6.939  1.00  0.00     0.186 HD
HETATM   18  C7  UNL     1      34.256  58.762   9.727  1.00  0.00     0.693 A 
ATOM     19  H3  UNL     1      34.568  56.939   8.811  1.00  0.00     0.205 HD
HETATM   20  N5  UNL     1      34.470  60.091   9.539  1.00  0.00    -0.182 N 
HETATM   21  C8  UNL     1      34.008  60.999  10.581  1.00  0.00     0.176 C 
BRANCH  18  22
HETATM   22  N4  UNL     1      33.687  58.232  10.738  1.00  0.00    -0.233 N 
ATOM     23  H42 UNL     1      32.706  57.956  10.795  1.00  0.00     0.174 HD
ATOM     24  H41 UNL     1      34.241  58.060  11.576  1.00  0.00     0.174 HD
ENDBRANCH  18  22
ENDBRANCH   4  13
BRANCH   1  25
HETATM   25  C2  UNL     1      33.824  65.369   8.431  1.00  0.00     0.327 C 
HETATM   26  O2  UNL     1      33.078  65.380   9.437  1.00  0.00    -0.256 OA
BRANCH  25  27
HETATM   27  O1  UNL     1      33.778  66.401   7.507  1.00  0.00    -0.320 OA
HETATM   28  C1  UNL     1      33.704  67.772   7.922  1.00  0.00     0.213 C 
ENDBRANCH  25  27
ENDBRANCH   1  25
TORSDOF 4
ENDMDL
