MODEL 1
REMARK VINA RESULT: -8.140835072      0.000      0.000
REMARK  8 active torsions:
REMARK  status: ('A' for Active; 'I' for Inactive)
REMARK    1  A    between atoms: C2_2  and  N1_3 
REMARK    2  A    between atoms: N1_3  and  C3_5 
REMARK    3  A    between atoms: C6_10  and  N3_11 
REMARK    4  A    between atoms: N3_11  and  C7_12 
REMARK    5  A    between atoms: C7_12  and  C8_13 
REMARK    6  A    between atoms: C7_12  and  C13_20 
REMARK    7  A    between atoms: N6_30  and  C21_31 
REMARK    8  A    between atoms: C21_31  and  C22_32 
ROOT
HETATM    1  C22 UNL     1       9.448   7.283  30.784  1.00  0.00     0.168 C 
HETATM    2  C23 UNL     1      10.810   7.320  31.273  1.00  0.00     0.064 C 
HETATM    3  N7  UNL     1      11.881   7.332  31.673  1.00  0.00    -0.197 NA
ENDROOT
BRANCH   1   4
HETATM    4  C21 UNL     1       9.098   8.340  29.795  1.00  0.00     0.077 C 
BRANCH   4   5
HETATM    5  N6  UNL     1       8.179   7.999  28.782  1.00  0.00    -0.372 N 
HETATM    6  C20 UNL     1       8.568   6.950  27.930  1.00  0.00     0.068 C 
HETATM    7  C19 UNL     1       7.549   6.391  27.005  1.00  0.00     0.090 C 
HETATM    8  C5  UNL     1       6.816   7.372  26.215  1.00  0.00     0.029 A 
HETATM    9  C4  UNL     1       6.304   8.560  26.641  1.00  0.00     0.039 A 
HETATM   10  C6  UNL     1       6.697   6.920  24.886  1.00  0.00     0.202 A 
HETATM   11  N2  UNL     1       5.659   9.331  25.761  1.00  0.00    -0.195 N 
HETATM   12  C25 UNL     1       6.313   9.223  27.992  1.00  0.00     0.078 C 
HETATM   13  C3  UNL     1       5.508   8.958  24.469  1.00  0.00     0.680 A 
ATOM     14  H2  UNL     1       5.272  10.223  26.070  1.00  0.00     0.184 HD
HETATM   15  N5  UNL     1       6.030   7.776  24.089  1.00  0.00    -0.164 N 
ATOM     16  H5  UNL     1       5.909   7.506  23.113  1.00  0.00     0.187 HD
HETATM   17  C24 UNL     1       6.804   8.216  29.024  1.00  0.00     0.133 C 
BRANCH  13  18
HETATM   18  N1  UNL     1       4.884   9.710  23.622  1.00  0.00    -0.226 N 
ATOM     19  H1  UNL     1       3.879   9.866  23.691  1.00  0.00     0.177 HD
BRANCH  18  20
HETATM   20  C2  UNL     1       5.671  10.321  22.571  1.00  0.00     0.133 C 
HETATM   21  C1  UNL     1       5.994  11.765  22.876  1.00  0.00     0.027 C 
ENDBRANCH  18  20
ENDBRANCH  13  18
BRANCH  10  22
HETATM   22  N3  UNL     1       7.166   5.870  24.573  1.00  0.00    -0.389 NA
BRANCH  22  23
HETATM   23  C7  UNL     1       7.473   4.739  23.888  1.00  0.00     0.102 C 
BRANCH  23  24
HETATM   24  C8  UNL     1       7.065   3.453  24.535  1.00  0.00     0.016 A 
HETATM   25  C9  UNL     1       7.801   2.273  24.411  1.00  0.00     0.017 A 
HETATM   26  C10 UNL     1       7.463   1.089  24.984  1.00  0.00     0.018 A 
HETATM   27  C11 UNL     1       6.315   1.024  25.750  1.00  0.00     0.087 A 
HETATM   28  N4  UNL     1       5.573   2.148  25.896  1.00  0.00    -0.374 N 
HETATM   29  C12 UNL     1       5.936   3.305  25.313  1.00  0.00     0.102 A 
ATOM     30  H4  UNL     1       4.724   2.117  26.458  1.00  0.00     0.164 HD
ENDBRANCH  23  24
BRANCH  23  31
HETATM   31  C13 UNL     1       7.196   4.761  22.388  1.00  0.00     0.051 C 
HETATM   32  C14 UNL     1       8.359   4.341  21.573  1.00  0.00     0.012 C 
HETATM   33  C15 UNL     1       8.154   3.008  20.846  1.00  0.00     0.001 C 
HETATM   34  C16 UNL     1       7.000   3.119  19.869  1.00  0.00     0.000 C 
HETATM   35  C17 UNL     1       5.930   4.034  20.439  1.00  0.00     0.001 C 
HETATM   36  C18 UNL     1       5.991   3.974  21.975  1.00  0.00     0.012 C 
ENDBRANCH  23  31
ENDBRANCH  22  23
ENDBRANCH  10  22
ENDBRANCH   4   5
ENDBRANCH   1   4
TORSDOF 8
ENDMDL
MODEL 2
REMARK VINA RESULT: -8.104048933      0.970      1.447
REMARK  8 active torsions:
REMARK  status: ('A' for Active; 'I' for Inactive)
REMARK    1  A    between atoms: C2_2  and  N1_3 
REMARK    2  A    between atoms: N1_3  and  C3_5 
REMARK    3  A    between atoms: C6_10  and  N3_11 
REMARK    4  A    between atoms: N3_11  and  C7_12 
REMARK    5  A    between atoms: C7_12  and  C8_13 
REMARK    6  A    between atoms: C7_12  and  C13_20 
REMARK    7  A    between atoms: N6_30  and  C21_31 
REMARK    8  A    between atoms: C21_31  and  C22_32 
ROOT
HETATM    1  C22 UNL     1       9.199   7.086  30.305  1.00  0.00     0.168 C 
HETATM    2  C23 UNL     1      10.411   7.309  31.063  1.00  0.00     0.064 C 
HETATM    3  N7  UNL     1      11.367   7.466  31.671  1.00  0.00    -0.197 NA
ENDROOT
BRANCH   1   4
HETATM    4  C21 UNL     1       8.750   8.235  29.470  1.00  0.00     0.077 C 
BRANCH   4   5
HETATM    5  N6  UNL     1       7.821   7.964  28.445  1.00  0.00    -0.372 N 
HETATM    6  C20 UNL     1       8.129   6.874  27.612  1.00  0.00     0.068 C 
HETATM    7  C19 UNL     1       7.081   6.396  26.675  1.00  0.00     0.090 C 
HETATM    8  C5  UNL     1       6.452   7.427  25.860  1.00  0.00     0.029 A 
HETATM    9  C4  UNL     1       6.041   8.662  26.263  1.00  0.00     0.039 A 
HETATM   10  C6  UNL     1       6.316   6.971  24.534  1.00  0.00     0.202 A 
HETATM   11  N2  UNL     1       5.484   9.476  25.363  1.00  0.00    -0.195 N 
HETATM   12  C25 UNL     1       6.087   9.339  27.607  1.00  0.00     0.078 C 
HETATM   13  C3  UNL     1       5.322   9.101  24.073  1.00  0.00     0.680 A 
ATOM     14  H2  UNL     1       5.173  10.403  25.654  1.00  0.00     0.184 HD
HETATM   15  N5  UNL     1       5.742   7.873  23.716  1.00  0.00    -0.164 N 
ATOM     16  H5  UNL     1       5.615   7.603  22.741  1.00  0.00     0.187 HD
HETATM   17  C24 UNL     1       6.467   8.305  28.659  1.00  0.00     0.133 C 
BRANCH  13  18
HETATM   18  N1  UNL     1       4.783   9.895  23.206  1.00  0.00    -0.226 N 
ATOM     19  H1  UNL     1       4.015  10.516  23.460  1.00  0.00     0.177 HD
BRANCH  18  20
HETATM   20  C2  UNL     1       5.313   9.866  21.859  1.00  0.00     0.133 C 
HETATM   21  C1  UNL     1       4.238   9.586  20.835  1.00  0.00     0.027 C 
ENDBRANCH  18  20
ENDBRANCH  13  18
BRANCH  10  22
HETATM   22  N3  UNL     1       6.695   5.880  24.242  1.00  0.00    -0.389 NA
BRANCH  22  23
HETATM   23  C7  UNL     1       7.266   4.837  23.586  1.00  0.00     0.102 C 
BRANCH  23  24
HETATM   24  C8  UNL     1       7.152   3.503  24.255  1.00  0.00     0.016 A 
HETATM   25  C9  UNL     1       8.008   2.437  23.974  1.00  0.00     0.017 A 
HETATM   26  C10 UNL     1       7.936   1.214  24.562  1.00  0.00     0.018 A 
HETATM   27  C11 UNL     1       6.954   0.988  25.508  1.00  0.00     0.087 A 
HETATM   28  N4  UNL     1       6.104   1.997  25.809  1.00  0.00    -0.374 N 
HETATM   29  C12 UNL     1       6.202   3.197  25.207  1.00  0.00     0.102 A 
ATOM     30  H4  UNL     1       5.375   1.846  26.505  1.00  0.00     0.164 HD
ENDBRANCH  23  24
BRANCH  23  31
HETATM   31  C13 UNL     1       7.020   4.768  22.082  1.00  0.00     0.051 C 
HETATM   32  C14 UNL     1       5.588   4.630  21.730  1.00  0.00     0.012 C 
HETATM   33  C15 UNL     1       5.004   5.859  21.026  1.00  0.00     0.001 C 
HETATM   34  C16 UNL     1       5.718   6.094  19.710  1.00  0.00     0.000 C 
HETATM   35  C17 UNL     1       7.183   5.717  19.845  1.00  0.00     0.001 C 
HETATM   36  C18 UNL     1       7.611   5.907  21.311  1.00  0.00     0.012 C 
ENDBRANCH  23  31
ENDBRANCH  22  23
ENDBRANCH  10  22
ENDBRANCH   4   5
ENDBRANCH   1   4
TORSDOF 8
ENDMDL
MODEL 3
REMARK VINA RESULT: -7.945331095      1.845      2.544
REMARK  8 active torsions:
REMARK  status: ('A' for Active; 'I' for Inactive)
REMARK    1  A    between atoms: C2_2  and  N1_3 
REMARK    2  A    between atoms: N1_3  and  C3_5 
REMARK    3  A    between atoms: C6_10  and  N3_11 
REMARK    4  A    between atoms: N3_11  and  C7_12 
REMARK    5  A    between atoms: C7_12  and  C8_13 
REMARK    6  A    between atoms: C7_12  and  C13_20 
REMARK    7  A    between atoms: N6_30  and  C21_31 
REMARK    8  A    between atoms: C21_31  and  C22_32 
ROOT
HETATM    1  C22 UNL     1       9.046   8.083  29.882  1.00  0.00     0.168 C 
HETATM    2  C23 UNL     1      10.164   7.760  30.742  1.00  0.00     0.064 C 
HETATM    3  N7  UNL     1      11.049   7.526  31.428  1.00  0.00    -0.197 NA
ENDROOT
BRANCH   1   4
HETATM    4  C21 UNL     1       8.546   6.961  29.040  1.00  0.00     0.077 C 
BRANCH   4   5
HETATM    5  N6  UNL     1       7.688   7.289  27.970  1.00  0.00    -0.372 N 
HETATM    6  C20 UNL     1       7.819   6.498  26.816  1.00  0.00     0.068 C 
HETATM    7  C19 UNL     1       6.790   6.638  25.754  1.00  0.00     0.090 C 
HETATM    8  C5  UNL     1       6.501   8.005  25.340  1.00  0.00     0.029 A 
HETATM    9  C4  UNL     1       6.346   9.096  26.140  1.00  0.00     0.039 A 
HETATM   10  C6  UNL     1       6.398   8.065  23.936  1.00  0.00     0.202 A 
HETATM   11  N2  UNL     1       6.084  10.276  25.571  1.00  0.00    -0.195 N 
HETATM   12  C25 UNL     1       6.410   9.253  27.636  1.00  0.00     0.078 C 
HETATM   13  C3  UNL     1       5.972  10.404  24.228  1.00  0.00     0.680 A 
ATOM     14  H2  UNL     1       5.967  11.099  26.161  1.00  0.00     0.184 HD
HETATM   15  N5  UNL     1       6.133   9.301  23.473  1.00  0.00    -0.164 N 
ATOM     16  H5  UNL     1       6.045   9.412  22.463  1.00  0.00     0.187 HD
HETATM   17  C24 UNL     1       6.434   7.868  28.269  1.00  0.00     0.133 C 
BRANCH  13  18
HETATM   18  N1  UNL     1       5.720  11.549  23.682  1.00  0.00    -0.226 N 
ATOM     19  H1  UNL     1       5.132  12.241  24.148  1.00  0.00     0.177 HD
BRANCH  18  20
HETATM   20  C2  UNL     1       6.307  11.811  22.385  1.00  0.00     0.133 C 
HETATM   21  C1  UNL     1       6.742  13.250  22.241  1.00  0.00     0.027 C 
ENDBRANCH  18  20
ENDBRANCH  13  18
BRANCH  10  22
HETATM   22  N3  UNL     1       6.543   7.075  23.288  1.00  0.00    -0.389 NA
BRANCH  22  23
HETATM   23  C7  UNL     1       6.975   6.185  22.360  1.00  0.00     0.102 C 
BRANCH  23  24
HETATM   24  C8  UNL     1       6.833   4.740  22.724  1.00  0.00     0.016 A 
HETATM   25  C9  UNL     1       7.863   3.998  23.305  1.00  0.00     0.017 A 
HETATM   26  C10 UNL     1       7.771   2.687  23.650  1.00  0.00     0.018 A 
HETATM   27  C11 UNL     1       6.581   2.022  23.421  1.00  0.00     0.087 A 
HETATM   28  N4  UNL     1       5.557   2.707  22.859  1.00  0.00    -0.374 N 
HETATM   29  C12 UNL     1       5.683   4.005  22.528  1.00  0.00     0.102 A 
ATOM     30  H4  UNL     1       4.673   2.230  22.684  1.00  0.00     0.164 HD
ENDBRANCH  23  24
BRANCH  23  31
HETATM   31  C13 UNL     1       6.584   6.472  20.914  1.00  0.00     0.051 C 
HETATM   32  C14 UNL     1       5.203   6.989  20.775  1.00  0.00     0.012 C 
HETATM   33  C15 UNL     1       5.134   8.447  20.310  1.00  0.00     0.001 C 
HETATM   34  C16 UNL     1       5.753   8.585  18.933  1.00  0.00     0.000 C 
HETATM   35  C17 UNL     1       6.924   7.627  18.798  1.00  0.00     0.001 C 
HETATM   36  C18 UNL     1       7.528   7.381  20.191  1.00  0.00     0.012 C 
ENDBRANCH  23  31
ENDBRANCH  22  23
ENDBRANCH  10  22
ENDBRANCH   4   5
ENDBRANCH   1   4
TORSDOF 8
ENDMDL
MODEL 4
REMARK VINA RESULT: -7.867887499      1.618      2.294
REMARK  8 active torsions:
REMARK  status: ('A' for Active; 'I' for Inactive)
REMARK    1  A    between atoms: C2_2  and  N1_3 
REMARK    2  A    between atoms: N1_3  and  C3_5 
REMARK    3  A    between atoms: C6_10  and  N3_11 
REMARK    4  A    between atoms: N3_11  and  C7_12 
REMARK    5  A    between atoms: C7_12  and  C8_13 
REMARK    6  A    between atoms: C7_12  and  C13_20 
REMARK    7  A    between atoms: N6_30  and  C21_31 
REMARK    8  A    between atoms: C21_31  and  C22_32 
ROOT
HETATM    1  C22 UNL     1       7.891   7.980  29.804  1.00  0.00     0.168 C 
HETATM    2  C23 UNL     1       9.188   8.008  30.446  1.00  0.00     0.064 C 
HETATM    3  N7  UNL     1      10.204   8.022  30.972  1.00  0.00    -0.197 NA
ENDROOT
BRANCH   1   4
HETATM    4  C21 UNL     1       7.832   8.620  28.461  1.00  0.00     0.077 C 
BRANCH   4   5
HETATM    5  N6  UNL     1       7.080   7.963  27.465  1.00  0.00    -0.372 N 
HETATM    6  C20 UNL     1       7.547   6.692  27.084  1.00  0.00     0.068 C 
HETATM    7  C19 UNL     1       6.671   5.858  26.222  1.00  0.00     0.090 C 
HETATM    8  C5  UNL     1       6.142   6.523  25.038  1.00  0.00     0.029 A 
HETATM    9  C4  UNL     1       5.635   7.785  24.957  1.00  0.00     0.039 A 
HETATM   10  C6  UNL     1       6.226   5.659  23.929  1.00  0.00     0.202 A 
HETATM   11  N2  UNL     1       5.196   8.223  23.773  1.00  0.00    -0.195 N 
HETATM   12  C25 UNL     1       5.452   8.856  25.998  1.00  0.00     0.078 C 
HETATM   13  C3  UNL     1       5.247   7.444  22.667  1.00  0.00     0.680 A 
ATOM     14  H2  UNL     1       4.815   9.166  23.701  1.00  0.00     0.184 HD
HETATM   15  N5  UNL     1       5.756   6.204  22.791  1.00  0.00    -0.164 N 
ATOM     16  H5  UNL     1       5.788   5.628  21.950  1.00  0.00     0.187 HD
HETATM   17  C24 UNL     1       5.699   8.245  27.371  1.00  0.00     0.133 C 
BRANCH  13  18
HETATM   18  N1  UNL     1       4.822   7.875  21.524  1.00  0.00    -0.226 N 
ATOM     19  H1  UNL     1       4.311   8.754  21.444  1.00  0.00     0.177 HD
BRANCH  18  20
HETATM   20  C2  UNL     1       5.101   7.058  20.361  1.00  0.00     0.133 C 
HETATM   21  C1  UNL     1       6.207   7.642  19.514  1.00  0.00     0.027 C 
ENDBRANCH  18  20
ENDBRANCH  13  18
BRANCH  10  22
HETATM   22  N3  UNL     1       6.679   4.565  24.063  1.00  0.00    -0.389 NA
BRANCH  22  23
HETATM   23  C7  UNL     1       7.463   3.463  23.948  1.00  0.00     0.102 C 
BRANCH  23  24
HETATM   24  C8  UNL     1       7.139   2.332  24.873  1.00  0.00     0.016 A 
HETATM   25  C9  UNL     1       5.922   2.227  25.549  1.00  0.00     0.017 A 
HETATM   26  C10 UNL     1       5.593   1.215  26.394  1.00  0.00     0.018 A 
HETATM   27  C11 UNL     1       6.512   0.207  26.614  1.00  0.00     0.087 A 
HETATM   28  N4  UNL     1       7.705   0.272  25.977  1.00  0.00    -0.374 N 
HETATM   29  C12 UNL     1       8.000   1.289  25.147  1.00  0.00     0.102 A 
ATOM     30  H4  UNL     1       8.394  -0.464  26.128  1.00  0.00     0.164 HD
ENDBRANCH  23  24
BRANCH  23  31
HETATM   31  C13 UNL     1       7.770   2.997  22.529  1.00  0.00     0.051 C 
HETATM   32  C14 UNL     1       6.575   2.508  21.803  1.00  0.00     0.012 C 
HETATM   33  C15 UNL     1       6.155   3.402  20.632  1.00  0.00     0.001 C 
HETATM   34  C16 UNL     1       7.259   3.454  19.594  1.00  0.00     0.000 C 
HETATM   35  C17 UNL     1       8.613   3.408  20.281  1.00  0.00     0.001 C 
HETATM   36  C18 UNL     1       8.477   4.015  21.688  1.00  0.00     0.012 C 
ENDBRANCH  23  31
ENDBRANCH  22  23
ENDBRANCH  10  22
ENDBRANCH   4   5
ENDBRANCH   1   4
TORSDOF 8
ENDMDL
MODEL 5
REMARK VINA RESULT: -7.783821628      1.160      1.273
REMARK  8 active torsions:
REMARK  status: ('A' for Active; 'I' for Inactive)
REMARK    1  A    between atoms: C2_2  and  N1_3 
REMARK    2  A    between atoms: N1_3  and  C3_5 
REMARK    3  A    between atoms: C6_10  and  N3_11 
REMARK    4  A    between atoms: N3_11  and  C7_12 
REMARK    5  A    between atoms: C7_12  and  C8_13 
REMARK    6  A    between atoms: C7_12  and  C13_20 
REMARK    7  A    between atoms: N6_30  and  C21_31 
REMARK    8  A    between atoms: C21_31  and  C22_32 
ROOT
HETATM    1  C22 UNL     1       9.174   6.700  30.265  1.00  0.00     0.168 C 
HETATM    2  C23 UNL     1       8.387   5.896  31.174  1.00  0.00     0.064 C 
HETATM    3  N7  UNL     1       7.781   5.245  31.893  1.00  0.00    -0.197 NA
ENDROOT
BRANCH   1   4
HETATM    4  C21 UNL     1       8.515   7.945  29.782  1.00  0.00     0.077 C 
BRANCH   4   5
HETATM    5  N6  UNL     1       7.688   7.839  28.645  1.00  0.00    -0.372 N 
HETATM    6  C20 UNL     1       8.042   6.839  27.722  1.00  0.00     0.068 C 
HETATM    7  C19 UNL     1       7.081   6.523  26.635  1.00  0.00     0.090 C 
HETATM    8  C5  UNL     1       6.577   7.671  25.892  1.00  0.00     0.029 A 
HETATM    9  C4  UNL     1       6.170   8.868  26.398  1.00  0.00     0.039 A 
HETATM   10  C6  UNL     1       6.563   7.378  24.514  1.00  0.00     0.202 A 
HETATM   11  N2  UNL     1       5.738   9.807  25.551  1.00  0.00    -0.195 N 
HETATM   12  C25 UNL     1       6.100   9.382  27.810  1.00  0.00     0.078 C 
HETATM   13  C3  UNL     1       5.698   9.592  24.216  1.00  0.00     0.680 A 
ATOM     14  H2  UNL     1       5.431  10.707  25.919  1.00  0.00     0.184 HD
HETATM   15  N5  UNL     1       6.109   8.395  23.757  1.00  0.00    -0.164 N 
ATOM     16  H5  UNL     1       6.074   8.245  22.748  1.00  0.00     0.187 HD
HETATM   17  C24 UNL     1       6.332   8.217  28.763  1.00  0.00     0.133 C 
BRANCH  13  18
HETATM   18  N1  UNL     1       5.280  10.505  23.401  1.00  0.00    -0.226 N 
ATOM     19  H1  UNL     1       4.318  10.512  23.060  1.00  0.00     0.177 HD
BRANCH  18  20
HETATM   20  C2  UNL     1       6.231  11.517  22.992  1.00  0.00     0.133 C 
HETATM   21  C1  UNL     1       6.003  12.828  23.708  1.00  0.00     0.027 C 
ENDBRANCH  18  20
ENDBRANCH  13  18
BRANCH  10  22
HETATM   22  N3  UNL     1       6.931   6.311  24.131  1.00  0.00    -0.389 NA
BRANCH  22  23
HETATM   23  C7  UNL     1       7.260   5.261  23.337  1.00  0.00     0.102 C 
BRANCH  23  24
HETATM   24  C8  UNL     1       7.097   3.904  23.947  1.00  0.00     0.016 A 
HETATM   25  C9  UNL     1       8.025   2.876  23.774  1.00  0.00     0.017 A 
HETATM   26  C10 UNL     1       7.912   1.634  24.313  1.00  0.00     0.018 A 
HETATM   27  C11 UNL     1       6.807   1.346  25.092  1.00  0.00     0.087 A 
HETATM   28  N4  UNL     1       5.884   2.317  25.285  1.00  0.00    -0.374 N 
HETATM   29  C12 UNL     1       6.026   3.537  24.736  1.00  0.00     0.102 A 
ATOM     30  H4  UNL     1       5.064   2.120  25.858  1.00  0.00     0.164 HD
ENDBRANCH  23  24
BRANCH  23  31
HETATM   31  C13 UNL     1       6.769   5.324  21.895  1.00  0.00     0.051 C 
HETATM   32  C14 UNL     1       7.633   4.579  20.950  1.00  0.00     0.012 C 
HETATM   33  C15 UNL     1       6.964   3.339  20.349  1.00  0.00     0.001 C 
HETATM   34  C16 UNL     1       5.745   3.743  19.542  1.00  0.00     0.000 C 
HETATM   35  C17 UNL     1       5.065   4.932  20.199  1.00  0.00     0.001 C 
HETATM   36  C18 UNL     1       5.347   4.892  21.711  1.00  0.00     0.012 C 
ENDBRANCH  23  31
ENDBRANCH  22  23
ENDBRANCH  10  22
ENDBRANCH   4   5
ENDBRANCH   1   4
TORSDOF 8
ENDMDL
