MODEL 1
REMARK VINA RESULT: -8.202436433      0.000      0.000
REMARK  9 active torsions:
REMARK  status: ('A' for Active; 'I' for Inactive)
REMARK    1  A    between atoms: C3_3  and  C4_4 
REMARK    2  A    between atoms: N5_14  and  O1_15 
REMARK    3  A    between atoms: N7_18  and  N8_19 
REMARK    4  A    between atoms: C9_22  and  C10_23 
REMARK    5  A    between atoms: C10_23  and  N10_25 
REMARK    6  A    between atoms: N10_25  and  O2_27 
REMARK    7  A    between atoms: N11_29  and  C11_30 
REMARK    8  A    between atoms: C11_30  and  C12_31 
REMARK    9  A    between atoms: C12_31  and  O3_32 
ROOT
HETATM    1  O1  UNL     1      13.771  17.457   9.788  1.00  0.00    -0.151 OA
HETATM    2  C8  UNL     1      14.018  16.304  10.484  1.00  0.00     0.253 C 
HETATM    3  N6  UNL     1      14.216  15.326  11.075  1.00  0.00    -0.162 NA
ENDROOT
BRANCH   1   4
HETATM    4  N5  UNL     1      14.762  18.260   9.288  1.00  0.00    -0.176 N 
HETATM    5  C4  UNL     1      15.646  17.778   8.215  1.00  0.00     0.180 C 
HETATM    6  C5  UNL     1      16.690  16.896   8.930  1.00  0.00     0.073 C 
HETATM    7  N1  UNL     1      16.429  18.877   7.689  1.00  0.00    -0.331 N 
HETATM    8  C6  UNL     1      16.504  20.053   8.154  1.00  0.00     0.193 C 
ATOM      9  H1  UNL     1      16.979  18.683   6.853  1.00  0.00     0.165 HD
HETATM   10  N2  UNL     1      17.336  21.061   7.530  1.00  0.00    -0.063 NA
HETATM   11  N3  UNL     1      15.709  20.406   9.279  1.00  0.00    -0.303 N 
HETATM   12  C7  UNL     1      14.907  19.563   9.836  1.00  0.00     0.221 C 
ATOM     13  H3  UNL     1      15.775  21.351   9.656  1.00  0.00     0.171 HD
HETATM   14  N4  UNL     1      14.117  19.910  10.962  1.00  0.00    -0.061 NA
BRANCH   5  15
HETATM   15  C3  UNL     1      14.902  17.022   7.179  1.00  0.00     0.108 A 
HETATM   16  C2  UNL     1      15.009  15.643   7.050  1.00  0.00     0.038 A 
HETATM   17  C1  UNL     1      15.821  14.716   7.873  1.00  0.00     0.070 C 
HETATM   18  N11 UNL     1      14.193  15.313   5.998  1.00  0.00    -0.329 N 
HETATM   19  C9  UNL     1      13.619  16.417   5.506  1.00  0.00     0.173 A 
HETATM   20  N7  UNL     1      14.063  17.494   6.249  1.00  0.00    -0.241 N 
BRANCH  18  21
HETATM   21  C11 UNL     1      14.063  13.954   5.548  1.00  0.00     0.156 C 
BRANCH  21  22
HETATM   22  C12 UNL     1      14.059  13.812   4.047  1.00  0.00     0.184 C 
BRANCH  22  23
HETATM   23  O3  UNL     1      12.820  13.435   3.587  1.00  0.00    -0.399 OA
ATOM     24  H3  UNL     1      12.154  14.063   3.842  1.00  0.00     0.209 HD
ENDBRANCH  22  23
ENDBRANCH  21  22
ENDBRANCH  18  21
BRANCH  19  25
HETATM   25  C10 UNL     1      12.705  16.618   4.401  1.00  0.00     0.182 C 
HETATM   26  N9  UNL     1      13.063  17.266   3.210  1.00  0.00    -0.077 NA
BRANCH  25  27
HETATM   27  N10 UNL     1      11.488  16.220   4.497  1.00  0.00    -0.252 N 
ATOM     28  H10 UNL     1      10.950  16.482   5.324  1.00  0.00     0.195 HD
BRANCH  27  29
HETATM   29  O2  UNL     1      10.884  15.459   3.533  1.00  0.00    -0.288 OA
ATOM     30  H2  UNL     1      11.348  14.789   3.046  1.00  0.00     0.244 HD
ENDBRANCH  27  29
ENDBRANCH  25  27
ENDBRANCH  19  25
BRANCH  20  31
HETATM   31  N8  UNL     1      13.690  18.825   6.046  1.00  0.00    -0.337 N 
ATOM     32  H82 UNL     1      12.889  19.137   5.498  1.00  0.00     0.177 HD
ATOM     33  H81 UNL     1      14.157  19.657   6.407  1.00  0.00     0.177 HD
ENDBRANCH  20  31
ENDBRANCH   5  15
ENDBRANCH   1   4
TORSDOF 9
ENDMDL
MODEL 2
REMARK VINA RESULT: -8.109231601      2.494      6.578
REMARK  9 active torsions:
REMARK  status: ('A' for Active; 'I' for Inactive)
REMARK    1  A    between atoms: C3_3  and  C4_4 
REMARK    2  A    between atoms: N5_14  and  O1_15 
REMARK    3  A    between atoms: N7_18  and  N8_19 
REMARK    4  A    between atoms: C9_22  and  C10_23 
REMARK    5  A    between atoms: C10_23  and  N10_25 
REMARK    6  A    between atoms: N10_25  and  O2_27 
REMARK    7  A    between atoms: N11_29  and  C11_30 
REMARK    8  A    between atoms: C11_30  and  C12_31 
REMARK    9  A    between atoms: C12_31  and  O3_32 
ROOT
HETATM    1  O1  UNL     1      15.085  18.956   4.972  1.00  0.00    -0.151 OA
HETATM    2  C8  UNL     1      16.095  19.561   4.272  1.00  0.00     0.253 C 
HETATM    3  N6  UNL     1      16.945  20.084   3.682  1.00  0.00    -0.162 NA
ENDROOT
BRANCH   1   4
HETATM    4  N5  UNL     1      14.955  17.596   5.078  1.00  0.00    -0.176 N 
HETATM    5  C4  UNL     1      15.675  16.854   6.123  1.00  0.00     0.180 C 
HETATM    6  C5  UNL     1      17.109  16.696   5.577  1.00  0.00     0.073 C 
HETATM    7  N1  UNL     1      15.184  15.494   6.192  1.00  0.00    -0.331 N 
HETATM    8  C6  UNL     1      14.380  14.931   5.392  1.00  0.00     0.193 C 
ATOM      9  H1  UNL     1      15.521  14.928   6.970  1.00  0.00     0.165 HD
HETATM   10  N2  UNL     1      13.972  13.553   5.574  1.00  0.00    -0.063 NA
HETATM   11  N3  UNL     1      13.821  15.686   4.324  1.00  0.00    -0.303 N 
HETATM   12  C7  UNL     1      14.105  16.933   4.152  1.00  0.00     0.221 C 
ATOM     13  H3  UNL     1      13.179  15.230   3.676  1.00  0.00     0.171 HD
HETATM   14  N4  UNL     1      13.554  17.688   3.084  1.00  0.00    -0.061 NA
BRANCH   5  15
HETATM   15  C3  UNL     1      15.656  17.565   7.424  1.00  0.00     0.108 A 
HETATM   16  C2  UNL     1      16.822  17.944   8.078  1.00  0.00     0.038 A 
HETATM   17  C1  UNL     1      18.220  17.741   7.629  1.00  0.00     0.070 C 
HETATM   18  N11 UNL     1      16.408  18.560   9.231  1.00  0.00    -0.329 N 
HETATM   19  C9  UNL     1      15.071  18.560   9.289  1.00  0.00     0.173 A 
HETATM   20  N7  UNL     1      14.596  17.936   8.152  1.00  0.00    -0.241 N 
BRANCH  18  21
HETATM   21  C11 UNL     1      17.350  19.073  10.187  1.00  0.00     0.156 C 
BRANCH  21  22
HETATM   22  C12 UNL     1      17.484  20.574  10.159  1.00  0.00     0.184 C 
BRANCH  22  23
HETATM   23  O3  UNL     1      16.982  21.139  11.307  1.00  0.00    -0.399 OA
ATOM     24  H3  UNL     1      16.808  22.065  11.186  1.00  0.00     0.209 HD
ENDBRANCH  22  23
ENDBRANCH  21  22
ENDBRANCH  18  21
BRANCH  19  25
HETATM   25  C10 UNL     1      14.150  19.058  10.290  1.00  0.00     0.182 C 
HETATM   26  N9  UNL     1      13.318  18.228  11.055  1.00  0.00    -0.077 NA
BRANCH  25  27
HETATM   27  N10 UNL     1      14.044  20.322  10.489  1.00  0.00    -0.252 N 
ATOM     28  H10 UNL     1      13.945  20.939   9.683  1.00  0.00     0.195 HD
BRANCH  27  29
HETATM   29  O2  UNL     1      14.058  20.874  11.742  1.00  0.00    -0.288 OA
ATOM     30  H2  UNL     1      14.667  21.559  11.991  1.00  0.00     0.244 HD
ENDBRANCH  27  29
ENDBRANCH  25  27
ENDBRANCH  19  25
BRANCH  20  31
HETATM   31  N8  UNL     1      13.249  17.737   7.842  1.00  0.00    -0.337 N 
ATOM     32  H82 UNL     1      12.898  17.238   7.024  1.00  0.00     0.177 HD
ATOM     33  H81 UNL     1      12.440  18.058   8.375  1.00  0.00     0.177 HD
ENDBRANCH  20  31
ENDBRANCH   5  15
ENDBRANCH   1   4
TORSDOF 9
ENDMDL
MODEL 3
REMARK VINA RESULT: -8.073108116      2.961      6.444
REMARK  9 active torsions:
REMARK  status: ('A' for Active; 'I' for Inactive)
REMARK    1  A    between atoms: C3_3  and  C4_4 
REMARK    2  A    between atoms: N5_14  and  O1_15 
REMARK    3  A    between atoms: N7_18  and  N8_19 
REMARK    4  A    between atoms: C9_22  and  C10_23 
REMARK    5  A    between atoms: C10_23  and  N10_25 
REMARK    6  A    between atoms: N10_25  and  O2_27 
REMARK    7  A    between atoms: N11_29  and  C11_30 
REMARK    8  A    between atoms: C11_30  and  C12_31 
REMARK    9  A    between atoms: C12_31  and  O3_32 
ROOT
HETATM    1  O1  UNL     1      17.494  19.250   5.397  1.00  0.00    -0.151 OA
HETATM    2  C8  UNL     1      17.374  20.604   5.563  1.00  0.00     0.253 C 
HETATM    3  N6  UNL     1      17.284  21.751   5.707  1.00  0.00    -0.162 NA
ENDROOT
BRANCH   1   4
HETATM    4  N5  UNL     1      16.462  18.449   4.984  1.00  0.00    -0.176 N 
HETATM    5  C4  UNL     1      15.936  17.395   5.863  1.00  0.00     0.180 C 
HETATM    6  C5  UNL     1      16.931  16.225   5.715  1.00  0.00     0.073 C 
HETATM    7  N1  UNL     1      14.703  16.866   5.317  1.00  0.00    -0.331 N 
HETATM    8  C6  UNL     1      14.201  17.117   4.181  1.00  0.00     0.193 C 
ATOM      9  H1  UNL     1      14.183  16.221   5.911  1.00  0.00     0.165 HD
HETATM   10  N2  UNL     1      12.957  16.511   3.754  1.00  0.00    -0.063 NA
HETATM   11  N3  UNL     1      14.843  18.059   3.332  1.00  0.00    -0.303 N 
HETATM   12  C7  UNL     1      15.922  18.672   3.689  1.00  0.00     0.221 C 
ATOM     13  H3  UNL     1      14.441  18.256   2.415  1.00  0.00     0.171 HD
HETATM   14  N4  UNL     1      16.569  19.608   2.841  1.00  0.00    -0.061 NA
BRANCH   5  15
HETATM   15  C3  UNL     1      15.822  17.848   7.270  1.00  0.00     0.108 A 
HETATM   16  C2  UNL     1      16.910  17.858   8.134  1.00  0.00     0.038 A 
HETATM   17  C1  UNL     1      18.306  17.459   7.838  1.00  0.00     0.070 C 
HETATM   18  N11 UNL     1      16.421  18.327   9.327  1.00  0.00    -0.329 N 
HETATM   19  C9  UNL     1      15.113  18.588   9.210  1.00  0.00     0.173 A 
HETATM   20  N7  UNL     1      14.735  18.288   7.915  1.00  0.00    -0.241 N 
BRANCH  18  21
HETATM   21  C11 UNL     1      17.264  18.457  10.484  1.00  0.00     0.156 C 
BRANCH  21  22
HETATM   22  C12 UNL     1      17.711  19.871  10.751  1.00  0.00     0.184 C 
BRANCH  22  23
HETATM   23  O3  UNL     1      16.880  20.491  11.653  1.00  0.00    -0.399 OA
ATOM     24  H3  UNL     1      17.257  21.307  11.962  1.00  0.00     0.209 HD
ENDBRANCH  22  23
ENDBRANCH  21  22
ENDBRANCH  18  21
BRANCH  19  25
HETATM   25  C10 UNL     1      14.138  19.073  10.163  1.00  0.00     0.182 C 
HETATM   26  N9  UNL     1      13.204  18.245  10.803  1.00  0.00    -0.077 NA
BRANCH  25  27
HETATM   27  N10 UNL     1      14.079  20.327  10.437  1.00  0.00    -0.252 N 
ATOM     28  H10 UNL     1      14.084  20.997   9.668  1.00  0.00     0.195 HD
BRANCH  27  29
HETATM   29  O2  UNL     1      14.009  20.798  11.720  1.00  0.00    -0.288 OA
ATOM     30  H2  UNL     1      13.463  21.536  11.963  1.00  0.00     0.244 HD
ENDBRANCH  27  29
ENDBRANCH  25  27
ENDBRANCH  19  25
BRANCH  20  31
HETATM   31  N8  UNL     1      13.445  18.427   7.397  1.00  0.00    -0.337 N 
ATOM     32  H82 UNL     1      13.025  17.824   6.690  1.00  0.00     0.177 HD
ATOM     33  H81 UNL     1      12.755  19.136   7.645  1.00  0.00     0.177 HD
ENDBRANCH  20  31
ENDBRANCH   5  15
ENDBRANCH   1   4
TORSDOF 9
ENDMDL
MODEL 4
REMARK VINA RESULT: -7.995886650      2.972      5.151
REMARK  9 active torsions:
REMARK  status: ('A' for Active; 'I' for Inactive)
REMARK    1  A    between atoms: C3_3  and  C4_4 
REMARK    2  A    between atoms: N5_14  and  O1_15 
REMARK    3  A    between atoms: N7_18  and  N8_19 
REMARK    4  A    between atoms: C9_22  and  C10_23 
REMARK    5  A    between atoms: C10_23  and  N10_25 
REMARK    6  A    between atoms: N10_25  and  O2_27 
REMARK    7  A    between atoms: N11_29  and  C11_30 
REMARK    8  A    between atoms: C11_30  and  C12_31 
REMARK    9  A    between atoms: C12_31  and  O3_32 
ROOT
HETATM    1  O1  UNL     1      19.865  19.725   7.205  1.00  0.00    -0.151 OA
HETATM    2  C8  UNL     1      20.304  20.365   6.076  1.00  0.00     0.253 C 
HETATM    3  N6  UNL     1      20.678  20.895   5.115  1.00  0.00    -0.162 NA
ENDROOT
BRANCH   1   4
HETATM    4  N5  UNL     1      19.388  20.387   8.305  1.00  0.00    -0.176 N 
HETATM    5  C4  UNL     1      17.980  20.805   8.376  1.00  0.00     0.180 C 
HETATM    6  C5  UNL     1      17.911  22.100   7.540  1.00  0.00     0.073 C 
HETATM    7  N1  UNL     1      17.661  21.246   9.718  1.00  0.00    -0.331 N 
HETATM    8  C6  UNL     1      18.471  21.424  10.676  1.00  0.00     0.193 C 
ATOM      9  H1  UNL     1      16.678  21.435   9.912  1.00  0.00     0.165 HD
HETATM   10  N2  UNL     1      18.017  21.878  11.974  1.00  0.00    -0.063 NA
HETATM   11  N3  UNL     1      19.846  21.116  10.488  1.00  0.00    -0.303 N 
HETATM   12  C7  UNL     1      20.292  20.653   9.369  1.00  0.00     0.221 C 
ATOM     13  H3  UNL     1      20.498  21.265  11.258  1.00  0.00     0.171 HD
HETATM   14  N4  UNL     1      21.665  20.349   9.176  1.00  0.00    -0.061 NA
BRANCH   5  15
HETATM   15  C3  UNL     1      17.063  19.762   7.854  1.00  0.00     0.108 A 
HETATM   16  C2  UNL     1      16.877  18.548   8.503  1.00  0.00     0.038 A 
HETATM   17  C1  UNL     1      17.502  18.091   9.767  1.00  0.00     0.070 C 
HETATM   18  N11 UNL     1      15.979  17.858   7.731  1.00  0.00    -0.329 N 
HETATM   19  C9  UNL     1      15.633  18.596   6.669  1.00  0.00     0.173 A 
HETATM   20  N7  UNL     1      16.314  19.796   6.745  1.00  0.00    -0.241 N 
BRANCH  18  21
HETATM   21  C11 UNL     1      15.554  16.530   8.080  1.00  0.00     0.156 C 
BRANCH  21  22
HETATM   22  C12 UNL     1      14.401  16.500   9.050  1.00  0.00     0.184 C 
BRANCH  22  23
HETATM   23  O3  UNL     1      13.542  17.551   8.833  1.00  0.00    -0.399 OA
ATOM     24  H3  UNL     1      13.488  18.113   9.597  1.00  0.00     0.209 HD
ENDBRANCH  22  23
ENDBRANCH  21  22
ENDBRANCH  18  21
BRANCH  19  25
HETATM   25  C10 UNL     1      14.748  18.327   5.555  1.00  0.00     0.182 C 
HETATM   26  N9  UNL     1      15.187  18.215   4.228  1.00  0.00    -0.077 NA
BRANCH  25  27
HETATM   27  N10 UNL     1      13.485  18.208   5.755  1.00  0.00    -0.252 N 
ATOM     28  H10 UNL     1      12.991  17.427   5.322  1.00  0.00     0.195 HD
BRANCH  27  29
HETATM   29  O2  UNL     1      12.775  19.088   6.526  1.00  0.00    -0.288 OA
ATOM     30  H2  UNL     1      12.634  19.992   6.271  1.00  0.00     0.244 HD
ENDBRANCH  27  29
ENDBRANCH  25  27
ENDBRANCH  19  25
BRANCH  20  31
HETATM   31  N8  UNL     1      16.221  20.838   5.820  1.00  0.00    -0.337 N 
ATOM     32  H82 UNL     1      16.780  20.926   4.971  1.00  0.00     0.177 HD
ATOM     33  H81 UNL     1      15.598  21.644   5.861  1.00  0.00     0.177 HD
ENDBRANCH  20  31
ENDBRANCH   5  15
ENDBRANCH   1   4
TORSDOF 9
ENDMDL
MODEL 5
REMARK VINA RESULT: -7.928243561      3.369      7.223
REMARK  9 active torsions:
REMARK  status: ('A' for Active; 'I' for Inactive)
REMARK    1  A    between atoms: C3_3  and  C4_4 
REMARK    2  A    between atoms: N5_14  and  O1_15 
REMARK    3  A    between atoms: N7_18  and  N8_19 
REMARK    4  A    between atoms: C9_22  and  C10_23 
REMARK    5  A    between atoms: C10_23  and  N10_25 
REMARK    6  A    between atoms: N10_25  and  O2_27 
REMARK    7  A    between atoms: N11_29  and  C11_30 
REMARK    8  A    between atoms: C11_30  and  C12_31 
REMARK    9  A    between atoms: C12_31  and  O3_32 
ROOT
HETATM    1  O1  UNL     1      14.907  19.598   8.771  1.00  0.00    -0.151 OA
HETATM    2  C8  UNL     1      14.457  19.124   9.976  1.00  0.00     0.253 C 
HETATM    3  N6  UNL     1      14.072  18.734  10.997  1.00  0.00    -0.162 NA
ENDROOT
BRANCH   1   4
HETATM    4  N5  UNL     1      15.580  18.825   7.864  1.00  0.00    -0.176 N 
HETATM    5  C4  UNL     1      16.957  19.159   7.471  1.00  0.00     0.180 C 
HETATM    6  C5  UNL     1      16.806  20.288   6.429  1.00  0.00     0.073 C 
HETATM    7  N1  UNL     1      17.534  18.069   6.712  1.00  0.00    -0.331 N 
HETATM    8  C6  UNL     1      16.936  17.038   6.282  1.00  0.00     0.193 C 
ATOM      9  H1  UNL     1      18.529  18.139   6.501  1.00  0.00     0.165 HD
HETATM   10  N2  UNL     1      17.635  16.019   5.526  1.00  0.00    -0.063 NA
HETATM   11  N3  UNL     1      15.564  16.849   6.600  1.00  0.00    -0.303 N 
HETATM   12  C7  UNL     1      14.909  17.696   7.321  1.00  0.00     0.221 C 
ATOM     13  H3  UNL     1      15.082  16.021   6.248  1.00  0.00     0.171 HD
HETATM   14  N4  UNL     1      13.537  17.513   7.635  1.00  0.00    -0.061 NA
BRANCH   5  15
HETATM   15  C3  UNL     1      17.779  19.584   8.629  1.00  0.00     0.108 A 
HETATM   16  C2  UNL     1      18.158  18.700   9.632  1.00  0.00     0.038 A 
HETATM   17  C1  UNL     1      17.850  17.254   9.729  1.00  0.00     0.070 C 
HETATM   18  N11 UNL     1      18.891  19.448  10.517  1.00  0.00    -0.329 N 
HETATM   19  C9  UNL     1      18.959  20.716  10.091  1.00  0.00     0.173 A 
HETATM   20  N7  UNL     1      18.261  20.803   8.902  1.00  0.00    -0.241 N 
BRANCH  18  21
HETATM   21  C11 UNL     1      19.440  18.870  11.713  1.00  0.00     0.156 C 
BRANCH  21  22
HETATM   22  C12 UNL     1      18.525  18.966  12.906  1.00  0.00     0.184 C 
BRANCH  22  23
HETATM   23  O3  UNL     1      18.752  20.121  13.615  1.00  0.00    -0.399 OA
ATOM     24  H3  UNL     1      19.635  20.442  13.473  1.00  0.00     0.209 HD
ENDBRANCH  22  23
ENDBRANCH  21  22
ENDBRANCH  18  21
BRANCH  19  25
HETATM   25  C10 UNL     1      19.586  21.891  10.660  1.00  0.00     0.182 C 
HETATM   26  N9  UNL     1      20.834  22.378  10.245  1.00  0.00    -0.077 NA
BRANCH  25  27
HETATM   27  N10 UNL     1      19.008  22.525  11.615  1.00  0.00    -0.252 N 
ATOM     28  H10 UNL     1      19.518  23.276  12.083  1.00  0.00     0.195 HD
BRANCH  27  29
HETATM   29  O2  UNL     1      17.737  22.235  12.030  1.00  0.00    -0.288 OA
ATOM     30  H2  UNL     1      16.969  22.641  11.646  1.00  0.00     0.244 HD
ENDBRANCH  27  29
ENDBRANCH  25  27
ENDBRANCH  19  25
BRANCH  20  31
HETATM   31  N8  UNL     1      18.100  21.964   8.142  1.00  0.00    -0.337 N 
ATOM     32  H82 UNL     1      18.726  22.274   7.399  1.00  0.00     0.177 HD
ATOM     33  H81 UNL     1      17.353  22.653   8.222  1.00  0.00     0.177 HD
ENDBRANCH  20  31
ENDBRANCH   5  15
ENDBRANCH   1   4
TORSDOF 9
ENDMDL
