MODEL 1
REMARK VINA RESULT: -6.337758744      0.000      0.000
REMARK  14 active torsions:
REMARK  status: ('A' for Active; 'I' for Inactive)
REMARK    1  A    between atoms: C2_2  and  N1_3 
REMARK    2  A    between atoms: C2_2  and  C3_7 
REMARK    3  A    between atoms: C3_7  and  C4_8 
REMARK    4  A    between atoms: C4_8  and  C5_9 
REMARK    5  A    between atoms: C5_9  and  C6_10 
REMARK    6  A    between atoms: C5_9  and  C13_30 
REMARK    7  A    between atoms: C6_10  and  O1_11 
REMARK    8  A    between atoms: O1_11  and  C7_12 
REMARK    9  A    between atoms: C8_13  and  N2_14 
REMARK   10  A    between atoms: C10_19  and  N3_20 
REMARK   11  A    between atoms: C11_24  and  O2_25 
REMARK   12  A    between atoms: C12_27  and  O3_28 
REMARK   13  A    between atoms: C13_30  and  N4_31 
REMARK   14  A    between atoms: C13_30  and  O4_35 
ROOT
HETATM    1  C7  UNL     1      40.112  29.414  18.932  1.00  0.00     0.183 C 
HETATM    2  C8  UNL     1      41.215  30.062  19.701  1.00  0.00     0.217 C 
HETATM    3  C9  UNL     1      42.536  29.602  19.124  1.00  0.00     0.071 C 
HETATM    4  C10 UNL     1      42.599  30.094  17.688  1.00  0.00     0.216 C 
HETATM    5  C11 UNL     1      41.488  29.412  16.921  1.00  0.00     0.179 C 
HETATM    6  C12 UNL     1      40.169  29.920  17.509  1.00  0.00     0.179 C 
ENDROOT
BRANCH   1   7
HETATM    7  O1  UNL     1      38.872  29.504  19.496  1.00  0.00    -0.381 OA
BRANCH   7   8
HETATM    8  C6  UNL     1      38.437  30.771  19.757  1.00  0.00     0.177 C 
BRANCH   8   9
HETATM    9  C5  UNL     1      37.024  30.582  20.462  1.00  0.00     0.066 C 
BRANCH   9  10
HETATM   10  C4  UNL     1      36.597  29.201  20.238  1.00  0.00     0.013 C 
BRANCH  10  11
HETATM   11  C3  UNL     1      35.731  28.474  21.183  1.00  0.00     0.033 C 
BRANCH  11  12
HETATM   12  C2  UNL     1      36.396  27.336  21.881  1.00  0.00     0.179 C 
HETATM   13  C1  UNL     1      37.587  26.826  21.051  1.00  0.00     0.039 C 
BRANCH  12  14
HETATM   14  N1  UNL     1      36.856  27.628  23.175  1.00  0.00    -0.075 N 
ATOM     15  H13 UNL     1      36.216  27.308  23.901  1.00  0.00     0.274 HD
ATOM     16  H12 UNL     1      37.662  27.063  23.443  1.00  0.00     0.274 HD
ATOM     17  H11 UNL     1      37.044  28.630  23.229  1.00  0.00     0.274 HD
ENDBRANCH  12  14
ENDBRANCH  11  12
ENDBRANCH  10  11
ENDBRANCH   9  10
BRANCH   9  18
HETATM   18  C13 UNL     1      37.307  30.937  21.919  1.00  0.00     0.322 C 
BRANCH  18  19
HETATM   19  N4  UNL     1      37.512  32.315  22.113  1.00  0.00    -0.053 N 
ATOM     20  H43 UNL     1      36.768  32.859  21.678  1.00  0.00     0.277 HD
ATOM     21  H42 UNL     1      37.357  32.573  23.088  1.00  0.00     0.277 HD
ATOM     22  H41 UNL     1      38.428  32.626  21.794  1.00  0.00     0.277 HD
ENDBRANCH  18  19
BRANCH  18  23
HETATM   23  O4  UNL     1      38.461  30.220  22.294  1.00  0.00    -0.369 OA
ATOM     24  H4  UNL     1      38.624  30.423  23.207  1.00  0.00     0.212 HD
ENDBRANCH  18  23
ENDBRANCH   9  18
ENDBRANCH   8   9
ENDBRANCH   7   8
ENDBRANCH   1   7
BRANCH   2  25
HETATM   25  N2  UNL     1      41.149  29.762  21.118  1.00  0.00    -0.072 N 
ATOM     26  H23 UNL     1      41.482  28.818  21.310  1.00  0.00     0.274 HD
ATOM     27  H22 UNL     1      41.849  30.291  21.639  1.00  0.00     0.274 HD
ATOM     28  H21 UNL     1      40.216  29.909  21.502  1.00  0.00     0.274 HD
ENDBRANCH   2  25
BRANCH   6  29
HETATM   29  O3  UNL     1      39.157  29.383  16.726  1.00  0.00    -0.390 OA
ATOM     30  H3  UNL     1      39.460  29.171  15.851  1.00  0.00     0.210 HD
ENDBRANCH   6  29
BRANCH   5  31
HETATM   31  O2  UNL     1      41.504  28.039  17.116  1.00  0.00    -0.391 OA
ATOM     32  H2  UNL     1      40.629  27.696  17.247  1.00  0.00     0.210 HD
ENDBRANCH   5  31
BRANCH   4  33
HETATM   33  N3  UNL     1      43.897  29.859  17.134  1.00  0.00    -0.072 N 
ATOM     34  H33 UNL     1      44.589  30.514  17.498  1.00  0.00     0.274 HD
ATOM     35  H32 UNL     1      44.308  28.994  17.484  1.00  0.00     0.274 HD
ATOM     36  H31 UNL     1      43.858  29.875  16.115  1.00  0.00     0.274 HD
ENDBRANCH   4  33
TORSDOF 14
ENDMDL
MODEL 2
REMARK VINA RESULT: -6.297590982      1.338      2.557
REMARK  14 active torsions:
REMARK  status: ('A' for Active; 'I' for Inactive)
REMARK    1  A    between atoms: C2_2  and  N1_3 
REMARK    2  A    between atoms: C2_2  and  C3_7 
REMARK    3  A    between atoms: C3_7  and  C4_8 
REMARK    4  A    between atoms: C4_8  and  C5_9 
REMARK    5  A    between atoms: C5_9  and  C6_10 
REMARK    6  A    between atoms: C5_9  and  C13_30 
REMARK    7  A    between atoms: C6_10  and  O1_11 
REMARK    8  A    between atoms: O1_11  and  C7_12 
REMARK    9  A    between atoms: C8_13  and  N2_14 
REMARK   10  A    between atoms: C10_19  and  N3_20 
REMARK   11  A    between atoms: C11_24  and  O2_25 
REMARK   12  A    between atoms: C12_27  and  O3_28 
REMARK   13  A    between atoms: C13_30  and  N4_31 
REMARK   14  A    between atoms: C13_30  and  O4_35 
ROOT
HETATM    1  C7  UNL     1      39.945  29.476  18.840  1.00  0.00     0.183 C 
HETATM    2  C8  UNL     1      41.006  30.178  19.620  1.00  0.00     0.217 C 
HETATM    3  C9  UNL     1      42.356  29.692  19.139  1.00  0.00     0.071 C 
HETATM    4  C10 UNL     1      42.488  30.095  17.680  1.00  0.00     0.216 C 
HETATM    5  C11 UNL     1      41.420  29.359  16.903  1.00  0.00     0.179 C 
HETATM    6  C12 UNL     1      40.071  29.895  17.392  1.00  0.00     0.179 C 
ENDROOT
BRANCH   1   7
HETATM    7  O1  UNL     1      38.678  29.594  19.335  1.00  0.00    -0.381 OA
BRANCH   7   8
HETATM    8  C6  UNL     1      38.100  28.431  19.752  1.00  0.00     0.177 C 
BRANCH   8   9
HETATM    9  C5  UNL     1      37.464  28.775  21.169  1.00  0.00     0.066 C 
BRANCH   9  10
HETATM   10  C4  UNL     1      36.811  30.078  21.059  1.00  0.00     0.013 C 
BRANCH  10  11
HETATM   11  C3  UNL     1      37.163  31.220  21.921  1.00  0.00     0.033 C 
BRANCH  11  12
HETATM   12  C2  UNL     1      37.516  30.850  23.322  1.00  0.00     0.179 C 
HETATM   13  C1  UNL     1      38.622  31.778  23.855  1.00  0.00     0.039 C 
BRANCH  12  14
HETATM   14  N1  UNL     1      36.442  30.881  24.227  1.00  0.00    -0.075 N 
ATOM     15  H13 UNL     1      36.238  29.965  24.625  1.00  0.00     0.274 HD
ATOM     16  H12 UNL     1      36.675  31.362  25.096  1.00  0.00     0.274 HD
ATOM     17  H11 UNL     1      35.638  31.293  23.753  1.00  0.00     0.274 HD
ENDBRANCH  12  14
ENDBRANCH  11  12
ENDBRANCH  10  11
ENDBRANCH   9  10
BRANCH   9  18
HETATM   18  C13 UNL     1      36.520  27.604  21.424  1.00  0.00     0.322 C 
BRANCH  18  19
HETATM   19  N4  UNL     1      36.103  27.523  22.765  1.00  0.00    -0.053 N 
ATOM     20  H43 UNL     1      35.843  26.568  23.009  1.00  0.00     0.277 HD
ATOM     21  H42 UNL     1      36.890  27.648  23.401  1.00  0.00     0.277 HD
ATOM     22  H41 UNL     1      35.349  28.174  22.983  1.00  0.00     0.277 HD
ENDBRANCH  18  19
BRANCH  18  23
HETATM   23  O4  UNL     1      37.218  26.434  21.065  1.00  0.00    -0.369 OA
ATOM     24  H4  UNL     1      37.146  26.351  20.121  1.00  0.00     0.212 HD
ENDBRANCH  18  23
ENDBRANCH   9  18
ENDBRANCH   8   9
ENDBRANCH   7   8
ENDBRANCH   1   7
BRANCH   2  25
HETATM   25  N2  UNL     1      40.872  29.966  21.048  1.00  0.00    -0.072 N 
ATOM     26  H23 UNL     1      39.895  29.830  21.309  1.00  0.00     0.274 HD
ATOM     27  H22 UNL     1      41.242  29.056  21.322  1.00  0.00     0.274 HD
ATOM     28  H21 UNL     1      41.297  30.716  21.593  1.00  0.00     0.274 HD
ENDBRANCH   2  25
BRANCH   6  29
HETATM   29  O3  UNL     1      39.101  29.303  16.595  1.00  0.00    -0.390 OA
ATOM     30  H3  UNL     1      38.928  29.811  15.811  1.00  0.00     0.210 HD
ENDBRANCH   6  29
BRANCH   5  31
HETATM   31  O2  UNL     1      41.430  28.001  17.184  1.00  0.00    -0.391 OA
ATOM     32  H2  UNL     1      41.017  27.499  16.492  1.00  0.00     0.210 HD
ENDBRANCH   5  31
BRANCH   4  33
HETATM   33  N3  UNL     1      43.814  29.834  17.207  1.00  0.00    -0.072 N 
ATOM     34  H33 UNL     1      44.437  29.551  17.963  1.00  0.00     0.274 HD
ATOM     35  H32 UNL     1      43.856  28.982  16.648  1.00  0.00     0.274 HD
ATOM     36  H31 UNL     1      44.175  30.640  16.697  1.00  0.00     0.274 HD
ENDBRANCH   4  33
TORSDOF 14
ENDMDL
MODEL 3
REMARK VINA RESULT: -6.260684455      1.817      5.976
REMARK  14 active torsions:
REMARK  status: ('A' for Active; 'I' for Inactive)
REMARK    1  A    between atoms: C2_2  and  N1_3 
REMARK    2  A    between atoms: C2_2  and  C3_7 
REMARK    3  A    between atoms: C3_7  and  C4_8 
REMARK    4  A    between atoms: C4_8  and  C5_9 
REMARK    5  A    between atoms: C5_9  and  C6_10 
REMARK    6  A    between atoms: C5_9  and  C13_30 
REMARK    7  A    between atoms: C6_10  and  O1_11 
REMARK    8  A    between atoms: O1_11  and  C7_12 
REMARK    9  A    between atoms: C8_13  and  N2_14 
REMARK   10  A    between atoms: C10_19  and  N3_20 
REMARK   11  A    between atoms: C11_24  and  O2_25 
REMARK   12  A    between atoms: C12_27  and  O3_28 
REMARK   13  A    between atoms: C13_30  and  N4_31 
REMARK   14  A    between atoms: C13_30  and  O4_35 
ROOT
HETATM    1  C7  UNL     1      37.504  28.692  20.356  1.00  0.00     0.183 C 
HETATM    2  C8  UNL     1      37.255  27.344  20.947  1.00  0.00     0.217 C 
HETATM    3  C9  UNL     1      37.334  27.458  22.454  1.00  0.00     0.071 C 
HETATM    4  C10 UNL     1      36.218  28.390  22.896  1.00  0.00     0.216 C 
HETATM    5  C11 UNL     1      36.498  29.753  22.305  1.00  0.00     0.179 C 
HETATM    6  C12 UNL     1      36.382  29.608  20.786  1.00  0.00     0.179 C 
ENDROOT
BRANCH   1   7
HETATM    7  O1  UNL     1      37.741  28.708  19.011  1.00  0.00    -0.381 OA
BRANCH   7   8
HETATM    8  C6  UNL     1      38.710  29.573  18.596  1.00  0.00     0.177 C 
BRANCH   8   9
HETATM    9  C5  UNL     1      39.934  29.320  19.579  1.00  0.00     0.066 C 
BRANCH   9  10
HETATM   10  C4  UNL     1      40.974  28.621  18.824  1.00  0.00     0.013 C 
BRANCH  10  11
HETATM   11  C3  UNL     1      40.980  28.560  17.352  1.00  0.00     0.033 C 
BRANCH  11  12
HETATM   12  C2  UNL     1      41.763  29.644  16.692  1.00  0.00     0.179 C 
HETATM   13  C1  UNL     1      43.073  29.897  17.458  1.00  0.00     0.039 C 
BRANCH  12  14
HETATM   14  N1  UNL     1      42.082  29.403  15.345  1.00  0.00    -0.075 N 
ATOM     15  H13 UNL     1      42.681  30.127  14.948  1.00  0.00     0.274 HD
ATOM     16  H12 UNL     1      42.719  28.615  15.228  1.00  0.00     0.274 HD
ATOM     17  H11 UNL     1      41.211  29.284  14.827  1.00  0.00     0.274 HD
ENDBRANCH  12  14
ENDBRANCH  11  12
ENDBRANCH  10  11
ENDBRANCH   9  10
BRANCH   9  18
HETATM   18  C13 UNL     1      40.311  30.724  20.041  1.00  0.00     0.322 C 
BRANCH  18  19
HETATM   19  N4  UNL     1      40.462  30.817  21.435  1.00  0.00    -0.053 N 
ATOM     20  H43 UNL     1      39.765  30.250  21.917  1.00  0.00     0.277 HD
ATOM     21  H42 UNL     1      41.308  30.338  21.744  1.00  0.00     0.277 HD
ATOM     22  H41 UNL     1      40.445  31.780  21.771  1.00  0.00     0.277 HD
ENDBRANCH  18  19
BRANCH  18  23
HETATM   23  O4  UNL     1      39.282  31.583  19.608  1.00  0.00    -0.369 OA
ATOM     24  H4  UNL     1      39.661  32.156  18.952  1.00  0.00     0.212 HD
ENDBRANCH  18  23
ENDBRANCH   9  18
ENDBRANCH   8   9
ENDBRANCH   7   8
ENDBRANCH   1   7
BRANCH   2  25
HETATM   25  N2  UNL     1      38.193  26.349  20.465  1.00  0.00    -0.072 N 
ATOM     26  H23 UNL     1      37.836  25.405  20.611  1.00  0.00     0.274 HD
ATOM     27  H22 UNL     1      38.240  26.350  19.446  1.00  0.00     0.274 HD
ATOM     28  H21 UNL     1      39.120  26.459  20.877  1.00  0.00     0.274 HD
ENDBRANCH   2  25
BRANCH   6  29
HETATM   29  O3  UNL     1      36.522  30.884  20.257  1.00  0.00    -0.390 OA
ATOM     30  H3  UNL     1      36.386  31.557  20.913  1.00  0.00     0.210 HD
ENDBRANCH   6  29
BRANCH   5  31
HETATM   31  O2  UNL     1      37.797  30.162  22.564  1.00  0.00    -0.391 OA
ATOM     32  H2  UNL     1      38.022  30.942  22.070  1.00  0.00     0.210 HD
ENDBRANCH   5  31
BRANCH   4  33
HETATM   33  N3  UNL     1      36.111  28.402  24.323  1.00  0.00    -0.072 N 
ATOM     34  H33 UNL     1      36.146  27.460  24.713  1.00  0.00     0.274 HD
ATOM     35  H32 UNL     1      36.950  28.780  24.763  1.00  0.00     0.274 HD
ATOM     36  H31 UNL     1      35.272  28.902  24.614  1.00  0.00     0.274 HD
ENDBRANCH   4  33
TORSDOF 14
ENDMDL
MODEL 4
REMARK VINA RESULT: -6.234224843      2.301      4.012
REMARK  14 active torsions:
REMARK  status: ('A' for Active; 'I' for Inactive)
REMARK    1  A    between atoms: C2_2  and  N1_3 
REMARK    2  A    between atoms: C2_2  and  C3_7 
REMARK    3  A    between atoms: C3_7  and  C4_8 
REMARK    4  A    between atoms: C4_8  and  C5_9 
REMARK    5  A    between atoms: C5_9  and  C6_10 
REMARK    6  A    between atoms: C5_9  and  C13_30 
REMARK    7  A    between atoms: C6_10  and  O1_11 
REMARK    8  A    between atoms: O1_11  and  C7_12 
REMARK    9  A    between atoms: C8_13  and  N2_14 
REMARK   10  A    between atoms: C10_19  and  N3_20 
REMARK   11  A    between atoms: C11_24  and  O2_25 
REMARK   12  A    between atoms: C12_27  and  O3_28 
REMARK   13  A    between atoms: C13_30  and  N4_31 
REMARK   14  A    between atoms: C13_30  and  O4_35 
ROOT
HETATM    1  C7  UNL     1      38.955  29.137  20.322  1.00  0.00     0.183 C 
HETATM    2  C8  UNL     1      39.524  29.895  19.168  1.00  0.00     0.217 C 
HETATM    3  C9  UNL     1      40.882  30.429  19.569  1.00  0.00     0.071 C 
HETATM    4  C10 UNL     1      41.776  29.231  19.845  1.00  0.00     0.216 C 
HETATM    5  C11 UNL     1      41.196  28.489  21.027  1.00  0.00     0.179 C 
HETATM    6  C12 UNL     1      39.839  27.938  20.580  1.00  0.00     0.179 C 
ENDROOT
BRANCH   1   7
HETATM    7  O1  UNL     1      37.628  28.828  20.222  1.00  0.00    -0.381 OA
BRANCH   7   8
HETATM    8  C6  UNL     1      36.782  29.648  20.909  1.00  0.00     0.177 C 
BRANCH   8   9
HETATM    9  C5  UNL     1      37.017  29.291  22.441  1.00  0.00     0.066 C 
BRANCH   9  10
HETATM   10  C4  UNL     1      36.863  30.523  23.213  1.00  0.00     0.013 C 
BRANCH  10  11
HETATM   11  C3  UNL     1      37.157  31.854  22.653  1.00  0.00     0.033 C 
BRANCH  11  12
HETATM   12  C2  UNL     1      37.585  32.867  23.661  1.00  0.00     0.179 C 
HETATM   13  C1  UNL     1      37.287  34.287  23.147  1.00  0.00     0.039 C 
BRANCH  12  14
HETATM   14  N1  UNL     1      36.993  32.724  24.926  1.00  0.00    -0.075 N 
ATOM     15  H13 UNL     1      37.364  31.929  25.446  1.00  0.00     0.274 HD
ATOM     16  H12 UNL     1      37.274  33.458  25.577  1.00  0.00     0.274 HD
ATOM     17  H11 UNL     1      35.981  32.676  24.802  1.00  0.00     0.274 HD
ENDBRANCH  12  14
ENDBRANCH  11  12
ENDBRANCH  10  11
ENDBRANCH   9  10
BRANCH   9  18
HETATM   18  C13 UNL     1      35.962  28.224  22.719  1.00  0.00     0.322 C 
BRANCH  18  19
HETATM   19  N4  UNL     1      35.484  28.262  24.041  1.00  0.00    -0.053 N 
ATOM     20  H43 UNL     1      36.065  27.693  24.656  1.00  0.00     0.277 HD
ATOM     21  H42 UNL     1      35.646  29.178  24.461  1.00  0.00     0.277 HD
ATOM     22  H41 UNL     1      34.503  27.995  24.114  1.00  0.00     0.277 HD
ENDBRANCH  18  19
BRANCH  18  23
HETATM   23  O4  UNL     1      36.567  26.978  22.460  1.00  0.00    -0.369 OA
ATOM     24  H4  UNL     1      36.506  26.833  21.524  1.00  0.00     0.212 HD
ENDBRANCH  18  23
ENDBRANCH   9  18
ENDBRANCH   8   9
ENDBRANCH   7   8
ENDBRANCH   1   7
BRANCH   2  25
HETATM   25  N2  UNL     1      38.661  30.978  18.740  1.00  0.00    -0.072 N 
ATOM     26  H23 UNL     1      38.661  31.739  19.419  1.00  0.00     0.274 HD
ATOM     27  H22 UNL     1      39.059  31.472  17.941  1.00  0.00     0.274 HD
ATOM     28  H21 UNL     1      37.712  30.661  18.541  1.00  0.00     0.274 HD
ENDBRANCH   2  25
BRANCH   6  29
HETATM   29  O3  UNL     1      39.365  27.160  21.627  1.00  0.00    -0.390 OA
ATOM     30  H3  UNL     1      39.930  26.416  21.800  1.00  0.00     0.210 HD
ENDBRANCH   6  29
BRANCH   5  31
HETATM   31  O2  UNL     1      40.943  29.343  22.090  1.00  0.00    -0.391 OA
ATOM     32  H2  UNL     1      41.372  29.047  22.884  1.00  0.00     0.210 HD
ENDBRANCH   5  31
BRANCH   4  33
HETATM   33  N3  UNL     1      43.129  29.653  20.050  1.00  0.00    -0.072 N 
ATOM     34  H33 UNL     1      43.441  30.293  19.319  1.00  0.00     0.274 HD
ATOM     35  H32 UNL     1      43.214  30.281  20.848  1.00  0.00     0.274 HD
ATOM     36  H31 UNL     1      43.745  28.845  20.135  1.00  0.00     0.274 HD
ENDBRANCH   4  33
TORSDOF 14
ENDMDL
MODEL 5
REMARK VINA RESULT: -6.205030689      2.000      3.418
REMARK  14 active torsions:
REMARK  status: ('A' for Active; 'I' for Inactive)
REMARK    1  A    between atoms: C2_2  and  N1_3 
REMARK    2  A    between atoms: C2_2  and  C3_7 
REMARK    3  A    between atoms: C3_7  and  C4_8 
REMARK    4  A    between atoms: C4_8  and  C5_9 
REMARK    5  A    between atoms: C5_9  and  C6_10 
REMARK    6  A    between atoms: C5_9  and  C13_30 
REMARK    7  A    between atoms: C6_10  and  O1_11 
REMARK    8  A    between atoms: O1_11  and  C7_12 
REMARK    9  A    between atoms: C8_13  and  N2_14 
REMARK   10  A    between atoms: C10_19  and  N3_20 
REMARK   11  A    between atoms: C11_24  and  O2_25 
REMARK   12  A    between atoms: C12_27  and  O3_28 
REMARK   13  A    between atoms: C13_30  and  N4_31 
REMARK   14  A    between atoms: C13_30  and  O4_35 
ROOT
HETATM    1  C7  UNL     1      39.946  29.276  18.993  1.00  0.00     0.183 C 
HETATM    2  C8  UNL     1      40.136  29.148  17.518  1.00  0.00     0.217 C 
HETATM    3  C9  UNL     1      41.289  30.036  17.103  1.00  0.00     0.071 C 
HETATM    4  C10 UNL     1      42.536  29.511  17.795  1.00  0.00     0.216 C 
HETATM    5  C11 UNL     1      42.334  29.667  19.285  1.00  0.00     0.179 C 
HETATM    6  C12 UNL     1      41.183  28.736  19.674  1.00  0.00     0.179 C 
ENDROOT
BRANCH   1   7
HETATM    7  O1  UNL     1      38.781  28.759  19.481  1.00  0.00    -0.381 OA
BRANCH   7   8
HETATM    8  C6  UNL     1      37.933  29.660  20.056  1.00  0.00     0.177 C 
BRANCH   8   9
HETATM    9  C5  UNL     1      37.877  29.248  21.591  1.00  0.00     0.066 C 
BRANCH   9  10
HETATM   10  C4  UNL     1      36.815  30.031  22.222  1.00  0.00     0.013 C 
BRANCH  10  11
HETATM   11  C3  UNL     1      36.888  30.489  23.620  1.00  0.00     0.033 C 
BRANCH  11  12
HETATM   12  C2  UNL     1      37.504  31.836  23.798  1.00  0.00     0.179 C 
HETATM   13  C1  UNL     1      37.309  32.682  22.527  1.00  0.00     0.039 C 
BRANCH  12  14
HETATM   14  N1  UNL     1      37.014  32.567  24.892  1.00  0.00    -0.075 N 
ATOM     15  H13 UNL     1      36.242  33.184  24.637  1.00  0.00     0.274 HD
ATOM     16  H12 UNL     1      36.510  31.984  25.560  1.00  0.00     0.274 HD
ATOM     17  H11 UNL     1      37.794  33.068  25.317  1.00  0.00     0.274 HD
ENDBRANCH  12  14
ENDBRANCH  11  12
ENDBRANCH  10  11
ENDBRANCH   9  10
BRANCH   9  18
HETATM   18  C13 UNL     1      37.623  27.745  21.543  1.00  0.00     0.322 C 
BRANCH  18  19
HETATM   19  N4  UNL     1      36.642  27.329  22.461  1.00  0.00    -0.053 N 
ATOM     20  H43 UNL     1      36.423  26.340  22.339  1.00  0.00     0.277 HD
ATOM     21  H42 UNL     1      37.018  27.299  23.409  1.00  0.00     0.277 HD
ATOM     22  H41 UNL     1      35.798  27.898  22.421  1.00  0.00     0.277 HD
ENDBRANCH  18  19
BRANCH  18  23
HETATM   23  O4  UNL     1      38.851  27.116  21.831  1.00  0.00    -0.369 OA
ATOM     24  H4  UNL     1      39.362  27.735  22.339  1.00  0.00     0.212 HD
ENDBRANCH  18  23
ENDBRANCH   9  18
ENDBRANCH   8   9
ENDBRANCH   7   8
ENDBRANCH   1   7
BRANCH   2  25
HETATM   25  N2  UNL     1      38.939  29.494  16.776  1.00  0.00    -0.072 N 
ATOM     26  H23 UNL     1      38.575  28.689  16.268  1.00  0.00     0.274 HD
ATOM     27  H22 UNL     1      38.152  29.661  17.404  1.00  0.00     0.274 HD
ATOM     28  H21 UNL     1      39.085  30.287  16.152  1.00  0.00     0.274 HD
ENDBRANCH   2  25
BRANCH   6  29
HETATM   29  O3  UNL     1      41.080  28.795  21.058  1.00  0.00    -0.390 OA
ATOM     30  H3  UNL     1      40.209  28.567  21.359  1.00  0.00     0.210 HD
ENDBRANCH   6  29
BRANCH   5  31
HETATM   31  O2  UNL     1      41.929  30.953  19.611  1.00  0.00    -0.391 OA
ATOM     32  H2  UNL     1      41.848  31.498  18.838  1.00  0.00     0.210 HD
ENDBRANCH   5  31
BRANCH   4  33
HETATM   33  N3  UNL     1      43.700  30.185  17.307  1.00  0.00    -0.072 N 
ATOM     34  H33 UNL     1      44.556  29.808  17.716  1.00  0.00     0.274 HD
ATOM     35  H32 UNL     1      43.887  29.960  16.330  1.00  0.00     0.274 HD
ATOM     36  H31 UNL     1      43.619  31.190  17.456  1.00  0.00     0.274 HD
ENDBRANCH   4  33
TORSDOF 14
ENDMDL
