MODEL 1
REMARK VINA RESULT: -8.199942913      0.000      0.000
REMARK  11 active torsions:
REMARK  status: ('A' for Active; 'I' for Inactive)
REMARK    1  A    between atoms: N1_1  and  C1_4 
REMARK    2  A    between atoms: C2_7  and  N3_8 
REMARK    3  A    between atoms: N4_11  and  C3_12 
REMARK    4  A    between atoms: C3_12  and  C4_13 
REMARK    5  A    between atoms: C4_13  and  N5_14 
REMARK    6  A    between atoms: C4_13  and  C11_29 
REMARK    7  A    between atoms: N5_14  and  C5_16 
REMARK    8  A    between atoms: C5_16  and  O1_17 
REMARK    9  A    between atoms: C5_16  and  C6_19 
REMARK   10  A    between atoms: C6_19  and  N6_20 
REMARK   11  A    between atoms: C6_19  and  C7_24 
ROOT
HETATM    1  C4  UNL     1      41.800  29.095  16.805  1.00  0.00     0.189 C 
ENDROOT
BRANCH   1   2
HETATM    2  C3  UNL     1      40.297  29.166  16.885  1.00  0.00     0.202 C 
BRANCH   2   3
HETATM    3  N4  UNL     1      39.733  28.820  18.158  1.00  0.00    -0.107 N 
HETATM    4  C2  UNL     1      39.085  29.654  18.983  1.00  0.00     0.707 A 
HETATM    5  N2  UNL     1      38.751  28.953  20.098  1.00  0.00    -0.020 N 
HETATM    6  C1  UNL     1      39.200  27.695  19.947  1.00  0.00     0.705 A 
ATOM      7  H2  UNL     1      38.248  29.317  20.908  1.00  0.00     0.203 HD
HETATM    8  N8  UNL     1      39.800  27.632  18.749  1.00  0.00    -0.115 N 
ATOM      9  H8  UNL     1      40.239  26.801  18.353  1.00  0.00     0.206 HD
BRANCH   4  10
HETATM   10  N3  UNL     1      38.790  30.911  18.826  1.00  0.00    -0.233 N 
ATOM     11  H32 UNL     1      39.209  31.735  19.258  1.00  0.00     0.174 HD
ATOM     12  H31 UNL     1      38.046  31.231  18.206  1.00  0.00     0.174 HD
ENDBRANCH   4  10
BRANCH   6  13
HETATM   13  N1  UNL     1      39.094  26.690  20.782  1.00  0.00    -0.233 N 
ATOM     14  H12 UNL     1      38.339  26.572  21.457  1.00  0.00     0.174 HD
ATOM     15  H11 UNL     1      39.720  25.892  20.894  1.00  0.00     0.174 HD
ENDBRANCH   6  13
ENDBRANCH   2   3
ENDBRANCH   1   2
BRANCH   1  16
HETATM   16  N5  UNL     1      42.131  28.898  15.441  1.00  0.00    -0.382 N 
ATOM     17  H5  UNL     1      41.739  29.510  14.726  1.00  0.00     0.156 HD
BRANCH  16  18
HETATM   18  C5  UNL     1      43.008  27.848  15.075  1.00  0.00     0.245 C 
BRANCH  18  19
HETATM   19  O1  UNL     1      44.229  28.123  15.761  1.00  0.00    -0.375 OA
ATOM     20  H1  UNL     1      44.095  27.805  16.646  1.00  0.00     0.212 HD
ENDBRANCH  18  19
BRANCH  18  21
HETATM   21  C6  UNL     1      43.329  28.039  13.602  1.00  0.00     0.237 C 
BRANCH  21  22
HETATM   22  N6  UNL     1      42.491  29.141  13.148  1.00  0.00    -0.070 N 
ATOM     23  H63 UNL     1      41.913  29.543  13.886  1.00  0.00     0.274 HD
ATOM     24  H62 UNL     1      43.017  29.987  12.927  1.00  0.00     0.274 HD
ATOM     25  H61 UNL     1      41.953  28.779  12.361  1.00  0.00     0.274 HD
ENDBRANCH  21  22
BRANCH  21  26
HETATM   26  C7  UNL     1      43.069  26.833  12.778  1.00  0.00     0.046 C 
HETATM   27  C8  UNL     1      43.541  25.618  13.545  1.00  0.00     0.035 C 
HETATM   28  C9  UNL     1      42.511  24.593  13.249  1.00  0.00     0.168 C 
HETATM   29  O2  UNL     1      41.528  25.139  12.443  1.00  0.00    -0.391 OA
HETATM   30  C10 UNL     1      41.621  26.522  12.557  1.00  0.00     0.174 C 
ENDBRANCH  21  26
ENDBRANCH  18  21
ENDBRANCH  16  18
ENDBRANCH   1  16
BRANCH   1  31
HETATM   31  C11 UNL     1      42.434  30.347  17.263  1.00  0.00     0.255 C 
HETATM   32  N7  UNL     1      43.849  30.481  17.423  1.00  0.00    -0.060 NA
HETATM   33  O3  UNL     1      41.691  31.342  17.519  1.00  0.00    -0.275 OA
ENDBRANCH   1  31
TORSDOF 11
ENDMDL
MODEL 2
REMARK VINA RESULT: -7.927628179      2.241      6.636
REMARK  11 active torsions:
REMARK  status: ('A' for Active; 'I' for Inactive)
REMARK    1  A    between atoms: N1_1  and  C1_4 
REMARK    2  A    between atoms: C2_7  and  N3_8 
REMARK    3  A    between atoms: N4_11  and  C3_12 
REMARK    4  A    between atoms: C3_12  and  C4_13 
REMARK    5  A    between atoms: C4_13  and  N5_14 
REMARK    6  A    between atoms: C4_13  and  C11_29 
REMARK    7  A    between atoms: N5_14  and  C5_16 
REMARK    8  A    between atoms: C5_16  and  O1_17 
REMARK    9  A    between atoms: C5_16  and  C6_19 
REMARK   10  A    between atoms: C6_19  and  N6_20 
REMARK   11  A    between atoms: C6_19  and  C7_24 
ROOT
HETATM    1  C4  UNL     1      42.209  28.772  15.964  1.00  0.00     0.189 C 
ENDROOT
BRANCH   1   2
HETATM    2  C3  UNL     1      43.050  27.733  15.268  1.00  0.00     0.202 C 
BRANCH   2   3
HETATM    3  N4  UNL     1      42.624  27.386  13.943  1.00  0.00    -0.107 N 
HETATM    4  C2  UNL     1      43.073  27.932  12.804  1.00  0.00     0.707 A 
HETATM    5  N2  UNL     1      42.390  27.363  11.777  1.00  0.00    -0.020 N 
HETATM    6  C1  UNL     1      41.527  26.473  12.296  1.00  0.00     0.705 A 
ATOM      7  H2  UNL     1      42.511  27.573  10.787  1.00  0.00     0.203 HD
HETATM    8  N8  UNL     1      41.685  26.500  13.628  1.00  0.00    -0.115 N 
ATOM      9  H8  UNL     1      41.166  25.929  14.295  1.00  0.00     0.206 HD
BRANCH   4  10
HETATM   10  N3  UNL     1      43.986  28.842  12.626  1.00  0.00    -0.233 N 
ATOM     11  H32 UNL     1      44.055  29.559  11.904  1.00  0.00     0.174 HD
ATOM     12  H31 UNL     1      44.796  28.940  13.239  1.00  0.00     0.174 HD
ENDBRANCH   4  10
BRANCH   6  13
HETATM   13  N1  UNL     1      40.675  25.704  11.662  1.00  0.00    -0.233 N 
ATOM     14  H12 UNL     1      40.580  24.699  11.807  1.00  0.00     0.174 HD
ATOM     15  H11 UNL     1      39.995  25.968  10.949  1.00  0.00     0.174 HD
ENDBRANCH   6  13
ENDBRANCH   2   3
ENDBRANCH   1   2
BRANCH   1  16
HETATM   16  N5  UNL     1      41.408  28.086  16.911  1.00  0.00    -0.382 N 
ATOM     17  H5  UNL     1      41.794  27.301  17.435  1.00  0.00     0.156 HD
BRANCH  16  18
HETATM   18  C5  UNL     1      40.069  28.496  17.128  1.00  0.00     0.245 C 
BRANCH  18  19
HETATM   19  O1  UNL     1      39.921  29.703  16.381  1.00  0.00    -0.375 OA
ATOM     20  H1  UNL     1      39.620  29.430  15.522  1.00  0.00     0.212 HD
ENDBRANCH  18  19
BRANCH  18  21
HETATM   21  C6  UNL     1      39.971  28.917  18.585  1.00  0.00     0.237 C 
BRANCH  21  22
HETATM   22  N6  UNL     1      41.067  28.248  19.272  1.00  0.00    -0.070 N 
ATOM     23  H63 UNL     1      41.820  27.955  18.648  1.00  0.00     0.274 HD
ATOM     24  H62 UNL     1      41.625  28.873  19.853  1.00  0.00     0.274 HD
ATOM     25  H61 UNL     1      40.646  27.477  19.790  1.00  0.00     0.274 HD
ENDBRANCH  21  22
BRANCH  21  26
HETATM   26  C7  UNL     1      38.680  28.555  19.220  1.00  0.00     0.046 C 
HETATM   27  C8  UNL     1      38.923  27.420  20.190  1.00  0.00     0.035 C 
HETATM   28  C9  UNL     1      38.044  27.744  21.338  1.00  0.00     0.168 C 
HETATM   29  O2  UNL     1      37.391  28.942  21.103  1.00  0.00    -0.391 OA
HETATM   30  C10 UNL     1      38.100  29.610  20.110  1.00  0.00     0.174 C 
ENDBRANCH  21  26
ENDBRANCH  18  21
ENDBRANCH  16  18
ENDBRANCH   1  16
BRANCH   1  31
HETATM   31  C11 UNL     1      43.038  29.759  16.682  1.00  0.00     0.255 C 
HETATM   32  N7  UNL     1      44.351  29.460  17.164  1.00  0.00    -0.060 NA
HETATM   33  O3  UNL     1      42.566  30.921  16.871  1.00  0.00    -0.275 OA
ENDBRANCH   1  31
TORSDOF 11
ENDMDL
MODEL 3
REMARK VINA RESULT: -7.749859734      2.346      6.711
REMARK  11 active torsions:
REMARK  status: ('A' for Active; 'I' for Inactive)
REMARK    1  A    between atoms: N1_1  and  C1_4 
REMARK    2  A    between atoms: C2_7  and  N3_8 
REMARK    3  A    between atoms: N4_11  and  C3_12 
REMARK    4  A    between atoms: C3_12  and  C4_13 
REMARK    5  A    between atoms: C4_13  and  N5_14 
REMARK    6  A    between atoms: C4_13  and  C11_29 
REMARK    7  A    between atoms: N5_14  and  C5_16 
REMARK    8  A    between atoms: C5_16  and  O1_17 
REMARK    9  A    between atoms: C5_16  and  C6_19 
REMARK   10  A    between atoms: C6_19  and  N6_20 
REMARK   11  A    between atoms: C6_19  and  C7_24 
ROOT
HETATM    1  C4  UNL     1      42.062  28.762  16.020  1.00  0.00     0.189 C 
ENDROOT
BRANCH   1   2
HETATM    2  C3  UNL     1      42.912  27.714  15.349  1.00  0.00     0.202 C 
BRANCH   2   3
HETATM    3  N4  UNL     1      42.531  27.381  14.007  1.00  0.00    -0.107 N 
HETATM    4  C2  UNL     1      42.998  27.959  12.891  1.00  0.00     0.707 A 
HETATM    5  N2  UNL     1      42.357  27.393  11.835  1.00  0.00    -0.020 N 
HETATM    6  C1  UNL     1      41.501  26.474  12.314  1.00  0.00     0.705 A 
ATOM      7  H2  UNL     1      42.500  27.625  10.852  1.00  0.00     0.203 HD
HETATM    8  N8  UNL     1      41.623  26.480  13.651  1.00  0.00    -0.115 N 
ATOM      9  H8  UNL     1      41.099  25.885  14.292  1.00  0.00     0.206 HD
BRANCH   4  10
HETATM   10  N3  UNL     1      43.893  28.893  12.754  1.00  0.00    -0.233 N 
ATOM     11  H32 UNL     1      44.685  28.945  12.114  1.00  0.00     0.174 HD
ATOM     12  H31 UNL     1      43.897  29.742  13.321  1.00  0.00     0.174 HD
ENDBRANCH   4  10
BRANCH   6  13
HETATM   13  N1  UNL     1      40.685  25.697  11.643  1.00  0.00    -0.233 N 
ATOM     14  H12 UNL     1      40.979  24.926  11.044  1.00  0.00     0.174 HD
ATOM     15  H11 UNL     1      39.666  25.730  11.608  1.00  0.00     0.174 HD
ENDBRANCH   6  13
ENDBRANCH   2   3
ENDBRANCH   1   2
BRANCH   1  16
HETATM   16  N5  UNL     1      41.329  28.106  17.040  1.00  0.00    -0.382 N 
ATOM     17  H5  UNL     1      40.997  27.152  16.899  1.00  0.00     0.156 HD
BRANCH  16  18
HETATM   18  C5  UNL     1      41.057  28.781  18.256  1.00  0.00     0.245 C 
BRANCH  18  19
HETATM   19  O1  UNL     1      41.975  28.232  19.202  1.00  0.00    -0.375 OA
ATOM     20  H1  UNL     1      41.758  28.648  20.028  1.00  0.00     0.212 HD
ENDBRANCH  18  19
BRANCH  18  21
HETATM   21  C6  UNL     1      39.686  28.315  18.717  1.00  0.00     0.237 C 
BRANCH  21  22
HETATM   22  N6  UNL     1      38.725  29.218  18.100  1.00  0.00    -0.070 N 
ATOM     23  H63 UNL     1      38.112  29.680  18.771  1.00  0.00     0.274 HD
ATOM     24  H62 UNL     1      39.150  30.064  17.718  1.00  0.00     0.274 HD
ATOM     25  H61 UNL     1      38.225  28.665  17.405  1.00  0.00     0.274 HD
ENDBRANCH  21  22
BRANCH  21  26
HETATM   26  C7  UNL     1      39.521  28.331  20.192  1.00  0.00     0.046 C 
HETATM   27  C8  UNL     1      38.312  29.173  20.530  1.00  0.00     0.035 C 
HETATM   28  C9  UNL     1      37.676  28.442  21.652  1.00  0.00     0.168 C 
HETATM   29  O2  UNL     1      38.389  27.287  21.921  1.00  0.00    -0.391 OA
HETATM   30  C10 UNL     1      39.162  27.010  20.798  1.00  0.00     0.174 C 
ENDBRANCH  21  26
ENDBRANCH  18  21
ENDBRANCH  16  18
ENDBRANCH   1  16
BRANCH   1  31
HETATM   31  C11 UNL     1      42.882  29.820  16.641  1.00  0.00     0.255 C 
HETATM   32  N7  UNL     1      44.176  29.568  17.198  1.00  0.00    -0.060 NA
HETATM   33  O3  UNL     1      42.420  31.000  16.676  1.00  0.00    -0.275 OA
ENDBRANCH   1  31
TORSDOF 11
ENDMDL
MODEL 4
REMARK VINA RESULT: -7.669421501      2.287      6.469
REMARK  11 active torsions:
REMARK  status: ('A' for Active; 'I' for Inactive)
REMARK    1  A    between atoms: N1_1  and  C1_4 
REMARK    2  A    between atoms: C2_7  and  N3_8 
REMARK    3  A    between atoms: N4_11  and  C3_12 
REMARK    4  A    between atoms: C3_12  and  C4_13 
REMARK    5  A    between atoms: C4_13  and  N5_14 
REMARK    6  A    between atoms: C4_13  and  C11_29 
REMARK    7  A    between atoms: N5_14  and  C5_16 
REMARK    8  A    between atoms: C5_16  and  O1_17 
REMARK    9  A    between atoms: C5_16  and  C6_19 
REMARK   10  A    between atoms: C6_19  and  N6_20 
REMARK   11  A    between atoms: C6_19  and  C7_24 
ROOT
HETATM    1  C4  UNL     1      42.137  28.776  16.041  1.00  0.00     0.189 C 
ENDROOT
BRANCH   1   2
HETATM    2  C3  UNL     1      42.959  27.710  15.365  1.00  0.00     0.202 C 
BRANCH   2   3
HETATM    3  N4  UNL     1      42.559  27.380  14.028  1.00  0.00    -0.107 N 
HETATM    4  C2  UNL     1      43.016  27.954  12.906  1.00  0.00     0.707 A 
HETATM    5  N2  UNL     1      42.357  27.394  11.859  1.00  0.00    -0.020 N 
HETATM    6  C1  UNL     1      41.499  26.482  12.348  1.00  0.00     0.705 A 
ATOM      7  H2  UNL     1      42.490  27.624  10.874  1.00  0.00     0.203 HD
HETATM    8  N8  UNL     1      41.638  26.487  13.683  1.00  0.00    -0.115 N 
ATOM      9  H8  UNL     1      41.117  25.896  14.331  1.00  0.00     0.206 HD
BRANCH   4  10
HETATM   10  N3  UNL     1      43.917  28.881  12.758  1.00  0.00    -0.233 N 
ATOM     11  H32 UNL     1      44.521  29.077  11.960  1.00  0.00     0.174 HD
ATOM     12  H31 UNL     1      44.134  29.563  13.486  1.00  0.00     0.174 HD
ENDBRANCH   4  10
BRANCH   6  13
HETATM   13  N1  UNL     1      40.669  25.712  11.687  1.00  0.00    -0.233 N 
ATOM     14  H12 UNL     1      40.931  25.111  10.906  1.00  0.00     0.174 HD
ATOM     15  H11 UNL     1      39.667  25.590  11.835  1.00  0.00     0.174 HD
ENDBRANCH   6  13
ENDBRANCH   2   3
ENDBRANCH   1   2
BRANCH   1  16
HETATM   16  N5  UNL     1      41.356  28.130  17.031  1.00  0.00    -0.382 N 
ATOM     17  H5  UNL     1      41.774  27.411  17.623  1.00  0.00     0.156 HD
BRANCH  16  18
HETATM   18  C5  UNL     1      39.995  28.485  17.197  1.00  0.00     0.245 C 
BRANCH  18  19
HETATM   19  O1  UNL     1      39.790  29.598  16.327  1.00  0.00    -0.375 OA
ATOM     20  H1  UNL     1      38.921  29.473  15.964  1.00  0.00     0.212 HD
ENDBRANCH  18  19
BRANCH  18  21
HETATM   21  C6  UNL     1      39.858  29.049  18.602  1.00  0.00     0.237 C 
BRANCH  21  22
HETATM   22  N6  UNL     1      39.978  30.494  18.468  1.00  0.00    -0.070 N 
ATOM     23  H63 UNL     1      40.455  30.937  19.254  1.00  0.00     0.274 HD
ATOM     24  H62 UNL     1      40.638  30.782  17.745  1.00  0.00     0.274 HD
ATOM     25  H61 UNL     1      39.032  30.843  18.318  1.00  0.00     0.274 HD
ENDBRANCH  21  22
BRANCH  21  26
HETATM   26  C7  UNL     1      40.883  28.541  19.546  1.00  0.00     0.046 C 
HETATM   27  C8  UNL     1      41.583  29.723  20.177  1.00  0.00     0.035 C 
HETATM   28  C9  UNL     1      41.782  29.305  21.585  1.00  0.00     0.168 C 
HETATM   29  O2  UNL     1      41.232  28.050  21.781  1.00  0.00    -0.391 OA
HETATM   30  C10 UNL     1      40.335  27.826  20.742  1.00  0.00     0.174 C 
ENDBRANCH  21  26
ENDBRANCH  18  21
ENDBRANCH  16  18
ENDBRANCH   1  16
BRANCH   1  31
HETATM   31  C11 UNL     1      42.984  29.788  16.701  1.00  0.00     0.255 C 
HETATM   32  N7  UNL     1      44.315  29.508  17.148  1.00  0.00    -0.060 NA
HETATM   33  O3  UNL     1      42.513  30.953  16.872  1.00  0.00    -0.275 OA
ENDBRANCH   1  31
TORSDOF 11
ENDMDL
MODEL 5
REMARK VINA RESULT: -7.645254237      1.582      1.883
REMARK  11 active torsions:
REMARK  status: ('A' for Active; 'I' for Inactive)
REMARK    1  A    between atoms: N1_1  and  C1_4 
REMARK    2  A    between atoms: C2_7  and  N3_8 
REMARK    3  A    between atoms: N4_11  and  C3_12 
REMARK    4  A    between atoms: C3_12  and  C4_13 
REMARK    5  A    between atoms: C4_13  and  N5_14 
REMARK    6  A    between atoms: C4_13  and  C11_29 
REMARK    7  A    between atoms: N5_14  and  C5_16 
REMARK    8  A    between atoms: C5_16  and  O1_17 
REMARK    9  A    between atoms: C5_16  and  C6_19 
REMARK   10  A    between atoms: C6_19  and  N6_20 
REMARK   11  A    between atoms: C6_19  and  C7_24 
ROOT
HETATM    1  C4  UNL     1      42.606  29.322  17.432  1.00  0.00     0.189 C 
ENDROOT
BRANCH   1   2
HETATM    2  C3  UNL     1      41.658  30.328  18.033  1.00  0.00     0.202 C 
BRANCH   2   3
HETATM    3  N4  UNL     1      40.460  29.779  18.601  1.00  0.00    -0.107 N 
HETATM    4  C2  UNL     1      39.320  29.532  17.942  1.00  0.00     0.707 A 
HETATM    5  N2  UNL     1      38.418  29.061  18.842  1.00  0.00    -0.020 N 
HETATM    6  C1  UNL     1      39.014  29.025  20.047  1.00  0.00     0.705 A 
ATOM      7  H2  UNL     1      37.457  28.784  18.640  1.00  0.00     0.203 HD
HETATM    8  N8  UNL     1      40.269  29.470  19.879  1.00  0.00    -0.115 N 
ATOM      9  H8  UNL     1      40.967  29.556  20.617  1.00  0.00     0.206 HD
BRANCH   4  10
HETATM   10  N3  UNL     1      39.041  29.687  16.681  1.00  0.00    -0.233 N 
ATOM     11  H32 UNL     1      38.382  29.176  16.094  1.00  0.00     0.174 HD
ATOM     12  H31 UNL     1      39.492  30.393  16.098  1.00  0.00     0.174 HD
ENDBRANCH   4  10
BRANCH   6  13
HETATM   13  N1  UNL     1      38.507  28.638  21.192  1.00  0.00    -0.233 N 
ATOM     14  H12 UNL     1      38.247  29.265  21.954  1.00  0.00     0.174 HD
ATOM     15  H11 UNL     1      38.296  27.689  21.501  1.00  0.00     0.174 HD
ENDBRANCH   6  13
ENDBRANCH   2   3
ENDBRANCH   1   2
BRANCH   1  16
HETATM   16  N5  UNL     1      42.392  29.341  16.031  1.00  0.00    -0.382 N 
ATOM     17  H5  UNL     1      42.431  30.223  15.519  1.00  0.00     0.156 HD
BRANCH  16  18
HETATM   18  C5  UNL     1      42.126  28.131  15.344  1.00  0.00     0.245 C 
BRANCH  18  19
HETATM   19  O1  UNL     1      42.702  27.106  16.152  1.00  0.00    -0.375 OA
ATOM     20  H1  UNL     1      43.578  27.413  16.357  1.00  0.00     0.212 HD
ENDBRANCH  18  19
BRANCH  18  21
HETATM   21  C6  UNL     1      42.963  28.155  14.076  1.00  0.00     0.237 C 
BRANCH  21  22
HETATM   22  N6  UNL     1      42.537  29.334  13.334  1.00  0.00    -0.070 N 
ATOM     23  H63 UNL     1      42.086  30.039  13.917  1.00  0.00     0.274 HD
ATOM     24  H62 UNL     1      43.313  29.914  13.014  1.00  0.00     0.274 HD
ATOM     25  H61 UNL     1      41.946  28.992  12.577  1.00  0.00     0.274 HD
ENDBRANCH  21  22
BRANCH  21  26
HETATM   26  C7  UNL     1      42.800  26.942  13.236  1.00  0.00     0.046 C 
HETATM   27  C8  UNL     1      42.300  27.365  11.874  1.00  0.00     0.035 C 
HETATM   28  C9  UNL     1      43.027  26.474  10.939  1.00  0.00     0.168 C 
HETATM   29  O2  UNL     1      43.885  25.652  11.649  1.00  0.00    -0.391 OA
HETATM   30  C10 UNL     1      44.077  26.237  12.897  1.00  0.00     0.174 C 
ENDBRANCH  21  26
ENDBRANCH  18  21
ENDBRANCH  16  18
ENDBRANCH   1  16
BRANCH   1  31
HETATM   31  C11 UNL     1      44.016  29.671  17.694  1.00  0.00     0.255 C 
HETATM   32  N7  UNL     1      45.079  29.306  16.808  1.00  0.00    -0.060 NA
HETATM   33  O3  UNL     1      44.291  30.323  18.746  1.00  0.00    -0.275 OA
ENDBRANCH   1  31
TORSDOF 11
ENDMDL
