MODEL 1
REMARK VINA RESULT: -8.152022908      0.000      0.000
REMARK  9 active torsions:
REMARK  status: ('A' for Active; 'I' for Inactive)
REMARK    1  A    between atoms: C2_3  and  O1_4 
REMARK    2  A    between atoms: C2_3  and  C3_6 
REMARK    3  A    between atoms: C3_6  and  C4_7 
REMARK    4  A    between atoms: C3_6  and  C5_10 
REMARK    5  A    between atoms: C4_7  and  O2_8 
REMARK    6  A    between atoms: C5_10  and  S1_11 
REMARK    7  A    between atoms: S1_11  and  C6_12 
REMARK    8  A    between atoms: C8_20  and  C9_21 
REMARK    9  A    between atoms: C11_25  and  N6_26 
ROOT
HETATM    1  N1  UNL     1      39.234  30.718  18.803  1.00  0.00    -0.195 NA
HETATM    2  C1  UNL     1      38.463  30.464  19.626  1.00  0.00     0.091 C 
HETATM    3  C2  UNL     1      37.499  30.123  20.669  1.00  0.00     0.231 C 
ENDROOT
BRANCH   3   4
HETATM    4  O1  UNL     1      36.199  30.452  20.285  1.00  0.00    -0.381 OA
ATOM      5  H1  UNL     1      35.574  29.809  20.597  1.00  0.00     0.211 HD
ENDBRANCH   3   4
BRANCH   3   6
HETATM    6  C3  UNL     1      37.870  30.875  21.930  1.00  0.00     0.061 C 
BRANCH   6   7
HETATM    7  C4  UNL     1      36.671  31.065  22.801  1.00  0.00     0.173 C 
BRANCH   7   8
HETATM    8  O2  UNL     1      36.173  32.342  22.806  1.00  0.00    -0.400 OA
ATOM      9  H2  UNL     1      35.706  32.577  23.598  1.00  0.00     0.209 HD
ENDBRANCH   7   8
ENDBRANCH   6   7
BRANCH   6  10
HETATM   10  C5  UNL     1      39.012  30.193  22.607  1.00  0.00     0.091 C 
BRANCH  10  11
HETATM   11  S1  UNL     1      40.409  31.245  22.942  1.00  0.00    -0.108 SA
BRANCH  11  12
HETATM   12  C6  UNL     1      41.973  30.480  22.660  1.00  0.00     0.115 A 
HETATM   13  N2  UNL     1      43.054  30.329  23.443  1.00  0.00    -0.290 N 
HETATM   14  N3  UNL     1      44.005  29.680  22.798  1.00  0.00    -0.283 N 
ATOM     15  H2  UNL     1      43.129  30.668  24.402  1.00  0.00     0.187 HD
HETATM   16  C7  UNL     1      43.566  29.387  21.565  1.00  0.00     0.151 A 
ATOM     17  H3  UNL     1      44.922  29.442  23.175  1.00  0.00     0.188 HD
HETATM   18  N4  UNL     1      43.883  28.791  20.367  1.00  0.00    -0.325 N 
HETATM   19  C13 UNL     1      42.309  29.872  21.455  1.00  0.00     0.115 A 
HETATM   20  C8  UNL     1      42.861  28.892  19.522  1.00  0.00     0.123 A 
ATOM     21  H4  UNL     1      44.772  28.338  20.157  1.00  0.00     0.169 HD
HETATM   22  N9  UNL     1      41.895  29.568  20.222  1.00  0.00    -0.336 N 
ATOM     23  H9  UNL     1      40.977  29.808  19.847  1.00  0.00     0.168 HD
BRANCH  20  24
HETATM   24  C9  UNL     1      42.695  28.428  18.142  1.00  0.00     0.068 A 
HETATM   25  C10 UNL     1      41.571  27.696  17.784  1.00  0.00     0.125 A 
HETATM   26  N5  UNL     1      41.341  27.236  16.552  1.00  0.00    -0.201 N 
HETATM   27  C11 UNL     1      42.243  27.490  15.593  1.00  0.00     0.677 A 
ATOM     28  H5  UNL     1      40.497  26.703  16.344  1.00  0.00     0.183 HD
HETATM   29  N7  UNL     1      43.343  28.191  15.889  1.00  0.00    -0.176 N 
HETATM   30  C12 UNL     1      43.595  28.671  17.149  1.00  0.00     0.130 A 
ATOM     31  H7  UNL     1      44.020  28.376  15.149  1.00  0.00     0.186 HD
HETATM   32  N8  UNL     1      44.675  29.336  17.356  1.00  0.00    -0.384 N 
ATOM     33  H82 UNL     1      44.863  29.693  18.293  1.00  0.00     0.157 HD
ATOM     34  H81 UNL     1      45.349  29.518  16.613  1.00  0.00     0.157 HD
BRANCH  27  35
HETATM   35  N6  UNL     1      42.069  27.063  14.366  1.00  0.00    -0.234 N 
ATOM     36  H62 UNL     1      41.160  27.190  13.920  1.00  0.00     0.174 HD
ATOM     37  H61 UNL     1      42.824  26.608  13.853  1.00  0.00     0.174 HD
ENDBRANCH  27  35
ENDBRANCH  20  24
ENDBRANCH  11  12
ENDBRANCH  10  11
ENDBRANCH   6  10
ENDBRANCH   3   6
TORSDOF 9
ENDMDL
MODEL 2
REMARK VINA RESULT: -8.133228314      3.828      7.208
REMARK  9 active torsions:
REMARK  status: ('A' for Active; 'I' for Inactive)
REMARK    1  A    between atoms: C2_3  and  O1_4 
REMARK    2  A    between atoms: C2_3  and  C3_6 
REMARK    3  A    between atoms: C3_6  and  C4_7 
REMARK    4  A    between atoms: C3_6  and  C5_10 
REMARK    5  A    between atoms: C4_7  and  O2_8 
REMARK    6  A    between atoms: C5_10  and  S1_11 
REMARK    7  A    between atoms: S1_11  and  C6_12 
REMARK    8  A    between atoms: C8_20  and  C9_21 
REMARK    9  A    between atoms: C11_25  and  N6_26 
ROOT
HETATM    1  N1  UNL     1      46.440  29.879  21.087  1.00  0.00    -0.195 NA
HETATM    2  C1  UNL     1      45.490  29.328  21.449  1.00  0.00     0.091 C 
HETATM    3  C2  UNL     1      44.287  28.648  21.923  1.00  0.00     0.231 C 
ENDROOT
BRANCH   3   4
HETATM    4  O1  UNL     1      44.455  27.263  21.920  1.00  0.00    -0.381 OA
ATOM      5  H1  UNL     1      43.824  26.841  21.348  1.00  0.00     0.211 HD
ENDBRANCH   3   4
BRANCH   3   6
HETATM    6  C3  UNL     1      43.133  29.029  21.022  1.00  0.00     0.061 C 
BRANCH   6   7
HETATM    7  C4  UNL     1      42.392  30.200  21.581  1.00  0.00     0.173 C 
BRANCH   7   8
HETATM    8  O2  UNL     1      41.494  30.766  20.715  1.00  0.00    -0.400 OA
ATOM      9  H2  UNL     1      41.884  31.337  20.064  1.00  0.00     0.209 HD
ENDBRANCH   7   8
ENDBRANCH   6   7
BRANCH   6  10
HETATM   10  C5  UNL     1      43.626  29.230  19.627  1.00  0.00     0.091 C 
BRANCH  10  11
HETATM   11  S1  UNL     1      43.070  28.005  18.461  1.00  0.00    -0.108 SA
BRANCH  11  12
HETATM   12  C6  UNL     1      41.439  28.279  17.847  1.00  0.00     0.115 A 
HETATM   13  N2  UNL     1      40.972  28.504  16.609  1.00  0.00    -0.290 N 
HETATM   14  N3  UNL     1      39.661  28.653  16.629  1.00  0.00    -0.283 N 
ATOM     15  H2  UNL     1      41.549  28.553  15.769  1.00  0.00     0.187 HD
HETATM   16  C7  UNL     1      39.233  28.527  17.895  1.00  0.00     0.151 A 
ATOM     17  H3  UNL     1      39.071  28.834  15.818  1.00  0.00     0.188 HD
HETATM   18  N4  UNL     1      38.134  28.540  18.721  1.00  0.00    -0.325 N 
HETATM   19  C13 UNL     1      40.317  28.294  18.669  1.00  0.00     0.115 A 
HETATM   20  C8  UNL     1      38.505  28.321  19.979  1.00  0.00     0.123 A 
ATOM     21  H4  UNL     1      37.174  28.694  18.413  1.00  0.00     0.169 HD
HETATM   22  N9  UNL     1      39.866  28.172  19.921  1.00  0.00    -0.336 N 
ATOM     23  H9  UNL     1      40.460  27.991  20.731  1.00  0.00     0.168 HD
BRANCH  20  24
HETATM   24  C9  UNL     1      37.728  28.240  21.218  1.00  0.00     0.068 A 
HETATM   25  C10 UNL     1      37.886  29.206  22.203  1.00  0.00     0.125 A 
HETATM   26  N5  UNL     1      37.219  29.209  23.360  1.00  0.00    -0.201 N 
HETATM   27  C11 UNL     1      36.340  28.224  23.596  1.00  0.00     0.677 A 
ATOM     28  H5  UNL     1      37.374  29.944  24.049  1.00  0.00     0.183 HD
HETATM   29  N7  UNL     1      36.153  27.270  22.678  1.00  0.00    -0.176 N 
HETATM   30  C12 UNL     1      36.830  27.252  21.485  1.00  0.00     0.130 A 
ATOM     31  H7  UNL     1      35.481  26.528  22.872  1.00  0.00     0.186 HD
HETATM   32  N8  UNL     1      36.596  26.301  20.652  1.00  0.00    -0.384 N 
ATOM     33  H82 UNL     1      37.099  26.287  19.765  1.00  0.00     0.157 HD
ATOM     34  H81 UNL     1      35.923  25.561  20.852  1.00  0.00     0.157 HD
BRANCH  27  35
HETATM   35  N6  UNL     1      35.657  28.176  24.714  1.00  0.00    -0.234 N 
ATOM     36  H62 UNL     1      36.137  28.352  25.597  1.00  0.00     0.174 HD
ATOM     37  H61 UNL     1      34.659  27.967  24.715  1.00  0.00     0.174 HD
ENDBRANCH  27  35
ENDBRANCH  20  24
ENDBRANCH  11  12
ENDBRANCH  10  11
ENDBRANCH   6  10
ENDBRANCH   3   6
TORSDOF 9
ENDMDL
MODEL 3
REMARK VINA RESULT: -8.108465393      4.272      7.100
REMARK  9 active torsions:
REMARK  status: ('A' for Active; 'I' for Inactive)
REMARK    1  A    between atoms: C2_3  and  O1_4 
REMARK    2  A    between atoms: C2_3  and  C3_6 
REMARK    3  A    between atoms: C3_6  and  C4_7 
REMARK    4  A    between atoms: C3_6  and  C5_10 
REMARK    5  A    between atoms: C4_7  and  O2_8 
REMARK    6  A    between atoms: C5_10  and  S1_11 
REMARK    7  A    between atoms: S1_11  and  C6_12 
REMARK    8  A    between atoms: C8_20  and  C9_21 
REMARK    9  A    between atoms: C11_25  and  N6_26 
ROOT
HETATM    1  N1  UNL     1      39.236  30.929  19.944  1.00  0.00    -0.195 NA
HETATM    2  C1  UNL     1      39.197  29.882  19.456  1.00  0.00     0.091 C 
HETATM    3  C2  UNL     1      39.170  28.556  18.843  1.00  0.00     0.231 C 
ENDROOT
BRANCH   3   4
HETATM    4  O1  UNL     1      38.433  28.562  17.658  1.00  0.00    -0.381 OA
ATOM      5  H1  UNL     1      38.950  28.236  16.930  1.00  0.00     0.211 HD
ENDBRANCH   3   4
BRANCH   3   6
HETATM    6  C3  UNL     1      38.556  27.584  19.826  1.00  0.00     0.061 C 
BRANCH   6   7
HETATM    7  C4  UNL     1      39.462  27.375  20.996  1.00  0.00     0.173 C 
BRANCH   7   8
HETATM    8  O2  UNL     1      39.946  26.098  21.115  1.00  0.00    -0.400 OA
ATOM      9  H2  UNL     1      40.135  25.833  22.007  1.00  0.00     0.209 HD
ENDBRANCH   7   8
ENDBRANCH   6   7
BRANCH   6  10
HETATM   10  C5  UNL     1      37.182  28.037  20.194  1.00  0.00     0.091 C 
BRANCH  10  11
HETATM   11  S1  UNL     1      36.455  27.163  21.563  1.00  0.00    -0.108 SA
BRANCH  11  12
HETATM   12  C6  UNL     1      36.339  28.111  23.046  1.00  0.00     0.115 A 
HETATM   13  N2  UNL     1      35.650  27.921  24.183  1.00  0.00    -0.290 N 
HETATM   14  N3  UNL     1      35.875  28.907  25.030  1.00  0.00    -0.283 N 
ATOM     15  H2  UNL     1      35.038  27.125  24.365  1.00  0.00     0.187 HD
HETATM   16  C7  UNL     1      36.726  29.776  24.464  1.00  0.00     0.151 A 
ATOM     17  H3  UNL     1      35.469  28.994  25.961  1.00  0.00     0.188 HD
HETATM   18  N4  UNL     1      37.414  30.954  24.634  1.00  0.00    -0.325 N 
HETATM   19  C13 UNL     1      37.029  29.305  23.233  1.00  0.00     0.115 A 
HETATM   20  C8  UNL     1      38.132  31.224  23.547  1.00  0.00     0.123 A 
ATOM     21  H4  UNL     1      37.379  31.536  25.470  1.00  0.00     0.169 HD
HETATM   22  N9  UNL     1      37.876  30.185  22.692  1.00  0.00    -0.336 N 
ATOM     23  H9  UNL     1      38.280  30.095  21.759  1.00  0.00     0.168 HD
BRANCH  20  24
HETATM   24  C9  UNL     1      39.023  32.343  23.229  1.00  0.00     0.068 A 
HETATM   25  C10 UNL     1      40.400  32.164  23.252  1.00  0.00     0.125 A 
HETATM   26  N5  UNL     1      41.282  33.127  22.975  1.00  0.00    -0.201 N 
HETATM   27  C11 UNL     1      40.823  34.346  22.653  1.00  0.00     0.677 A 
ATOM     28  H5  UNL     1      42.284  32.941  23.008  1.00  0.00     0.183 HD
HETATM   29  N7  UNL     1      39.505  34.567  22.617  1.00  0.00    -0.176 N 
HETATM   30  C12 UNL     1      38.585  33.589  22.899  1.00  0.00     0.130 A 
ATOM     31  H7  UNL     1      39.171  35.498  22.371  1.00  0.00     0.186 HD
HETATM   32  N8  UNL     1      37.334  33.879  22.844  1.00  0.00    -0.384 N 
ATOM     33  H82 UNL     1      36.649  33.153  23.054  1.00  0.00     0.157 HD
ATOM     34  H81 UNL     1      37.006  34.812  22.597  1.00  0.00     0.157 HD
BRANCH  27  35
HETATM   35  N6  UNL     1      41.643  35.329  22.372  1.00  0.00    -0.234 N 
ATOM     36  H62 UNL     1      42.149  35.786  23.131  1.00  0.00     0.174 HD
ATOM     37  H61 UNL     1      41.783  35.641  21.412  1.00  0.00     0.174 HD
ENDBRANCH  27  35
ENDBRANCH  20  24
ENDBRANCH  11  12
ENDBRANCH  10  11
ENDBRANCH   6  10
ENDBRANCH   3   6
TORSDOF 9
ENDMDL
MODEL 4
REMARK VINA RESULT: -8.104178030      2.783      4.361
REMARK  9 active torsions:
REMARK  status: ('A' for Active; 'I' for Inactive)
REMARK    1  A    between atoms: C2_3  and  O1_4 
REMARK    2  A    between atoms: C2_3  and  C3_6 
REMARK    3  A    between atoms: C3_6  and  C4_7 
REMARK    4  A    between atoms: C3_6  and  C5_10 
REMARK    5  A    between atoms: C4_7  and  O2_8 
REMARK    6  A    between atoms: C5_10  and  S1_11 
REMARK    7  A    between atoms: S1_11  and  C6_12 
REMARK    8  A    between atoms: C8_20  and  C9_21 
REMARK    9  A    between atoms: C11_25  and  N6_26 
ROOT
HETATM    1  N1  UNL     1      38.965  31.654  21.142  1.00  0.00    -0.195 NA
HETATM    2  C1  UNL     1      38.028  31.660  21.819  1.00  0.00     0.091 C 
HETATM    3  C2  UNL     1      36.839  31.648  22.667  1.00  0.00     0.231 C 
ENDROOT
BRANCH   3   4
HETATM    4  O1  UNL     1      36.187  32.881  22.642  1.00  0.00    -0.381 OA
ATOM      5  H1  UNL     1      35.348  32.836  23.086  1.00  0.00     0.211 HD
ENDBRANCH   3   4
BRANCH   3   6
HETATM    6  C3  UNL     1      37.261  31.317  24.082  1.00  0.00     0.061 C 
BRANCH   6   7
HETATM    7  C4  UNL     1      37.285  32.549  24.926  1.00  0.00     0.173 C 
BRANCH   7   8
HETATM    8  O2  UNL     1      36.114  32.802  25.591  1.00  0.00    -0.400 OA
ATOM      9  H2  UNL     1      36.085  33.645  26.027  1.00  0.00     0.209 HD
ENDBRANCH   7   8
ENDBRANCH   6   7
BRANCH   6  10
HETATM   10  C5  UNL     1      36.399  30.225  24.623  1.00  0.00     0.091 C 
BRANCH  10  11
HETATM   11  S1  UNL     1      37.114  28.598  24.524  1.00  0.00    -0.108 SA
BRANCH  11  12
HETATM   12  C6  UNL     1      36.943  27.828  22.945  1.00  0.00     0.115 A 
HETATM   13  N2  UNL     1      35.961  27.087  22.409  1.00  0.00    -0.290 N 
HETATM   14  N3  UNL     1      36.275  26.721  21.181  1.00  0.00    -0.283 N 
ATOM     15  H2  UNL     1      35.092  26.841  22.885  1.00  0.00     0.187 HD
HETATM   16  C7  UNL     1      37.484  27.220  20.879  1.00  0.00     0.151 A 
ATOM     17  H3  UNL     1      35.696  26.154  20.563  1.00  0.00     0.188 HD
HETATM   18  N4  UNL     1      38.458  27.310  19.913  1.00  0.00    -0.325 N 
HETATM   19  C13 UNL     1      37.919  27.911  21.957  1.00  0.00     0.115 A 
HETATM   20  C8  UNL     1      39.479  28.035  20.360  1.00  0.00     0.123 A 
ATOM     21  H4  UNL     1      38.404  26.883  18.989  1.00  0.00     0.169 HD
HETATM   22  N9  UNL     1      39.120  28.397  21.633  1.00  0.00    -0.336 N 
ATOM     23  H9  UNL     1      39.698  28.965  22.253  1.00  0.00     0.168 HD
BRANCH  20  24
HETATM   24  C9  UNL     1      40.744  28.420  19.729  1.00  0.00     0.068 A 
HETATM   25  C10 UNL     1      41.913  27.739  20.042  1.00  0.00     0.125 A 
HETATM   26  N5  UNL     1      43.106  28.023  19.514  1.00  0.00    -0.201 N 
HETATM   27  C11 UNL     1      43.194  29.025  18.626  1.00  0.00     0.677 A 
ATOM     28  H5  UNL     1      43.934  27.490  19.780  1.00  0.00     0.183 HD
HETATM   29  N7  UNL     1      42.095  29.710  18.293  1.00  0.00    -0.176 N 
HETATM   30  C12 UNL     1      40.862  29.432  18.825  1.00  0.00     0.130 A 
ATOM     31  H7  UNL     1      42.177  30.469  17.616  1.00  0.00     0.186 HD
HETATM   32  N8  UNL     1      39.852  30.136  18.455  1.00  0.00    -0.384 N 
ATOM     33  H82 UNL     1      38.935  29.929  18.851  1.00  0.00     0.157 HD
ATOM     34  H81 UNL     1      39.940  30.894  17.779  1.00  0.00     0.157 HD
BRANCH  27  35
HETATM   35  N6  UNL     1      44.339  29.348  18.076  1.00  0.00    -0.234 N 
ATOM     36  H62 UNL     1      44.995  29.928  18.599  1.00  0.00     0.174 HD
ATOM     37  H61 UNL     1      44.583  29.029  17.139  1.00  0.00     0.174 HD
ENDBRANCH  27  35
ENDBRANCH  20  24
ENDBRANCH  11  12
ENDBRANCH  10  11
ENDBRANCH   6  10
ENDBRANCH   3   6
TORSDOF 9
ENDMDL
MODEL 5
REMARK VINA RESULT: -8.067229626      3.896      7.129
REMARK  9 active torsions:
REMARK  status: ('A' for Active; 'I' for Inactive)
REMARK    1  A    between atoms: C2_3  and  O1_4 
REMARK    2  A    between atoms: C2_3  and  C3_6 
REMARK    3  A    between atoms: C3_6  and  C4_7 
REMARK    4  A    between atoms: C3_6  and  C5_10 
REMARK    5  A    between atoms: C4_7  and  O2_8 
REMARK    6  A    between atoms: C5_10  and  S1_11 
REMARK    7  A    between atoms: S1_11  and  C6_12 
REMARK    8  A    between atoms: C8_20  and  C9_21 
REMARK    9  A    between atoms: C11_25  and  N6_26 
ROOT
HETATM    1  N1  UNL     1      41.286  29.721  22.204  1.00  0.00    -0.195 NA
HETATM    2  C1  UNL     1      42.426  29.771  22.019  1.00  0.00     0.091 C 
HETATM    3  C2  UNL     1      43.870  29.822  21.805  1.00  0.00     0.231 C 
ENDROOT
BRANCH   3   4
HETATM    4  O1  UNL     1      44.287  31.111  21.473  1.00  0.00    -0.381 OA
ATOM      5  H1  UNL     1      44.410  31.203  20.536  1.00  0.00     0.211 HD
ENDBRANCH   3   4
BRANCH   3   6
HETATM    6  C3  UNL     1      44.224  28.863  20.689  1.00  0.00     0.061 C 
BRANCH   6   7
HETATM    7  C4  UNL     1      43.776  27.478  21.023  1.00  0.00     0.173 C 
BRANCH   7   8
HETATM    8  O2  UNL     1      44.387  26.936  22.123  1.00  0.00    -0.400 OA
ATOM      9  H2  UNL     1      43.832  26.358  22.634  1.00  0.00     0.209 HD
ENDBRANCH   7   8
ENDBRANCH   6   7
BRANCH   6  10
HETATM   10  C5  UNL     1      43.693  29.379  19.393  1.00  0.00     0.091 C 
BRANCH  10  11
HETATM   11  S1  UNL     1      43.106  28.121  18.279  1.00  0.00    -0.108 SA
BRANCH  11  12
HETATM   12  C6  UNL     1      41.452  28.367  17.717  1.00  0.00     0.115 A 
HETATM   13  N2  UNL     1      40.937  28.546  16.490  1.00  0.00    -0.290 N 
HETATM   14  N3  UNL     1      39.628  28.691  16.555  1.00  0.00    -0.283 N 
ATOM     15  H2  UNL     1      41.483  28.566  15.628  1.00  0.00     0.187 HD
HETATM   16  C7  UNL     1      39.249  28.610  17.840  1.00  0.00     0.151 A 
ATOM     17  H3  UNL     1      39.006  28.841  15.761  1.00  0.00     0.188 HD
HETATM   18  N4  UNL     1      38.181  28.649  18.705  1.00  0.00    -0.325 N 
HETATM   19  C13 UNL     1      40.362  28.409  18.580  1.00  0.00     0.115 A 
HETATM   20  C8  UNL     1      38.600  28.478  19.956  1.00  0.00     0.123 A 
ATOM     21  H4  UNL     1      37.210  28.790  18.429  1.00  0.00     0.169 HD
HETATM   22  N9  UNL     1      39.959  28.331  19.851  1.00  0.00    -0.336 N 
ATOM     23  H9  UNL     1      40.583  28.181  20.644  1.00  0.00     0.168 HD
BRANCH  20  24
HETATM   24  C9  UNL     1      37.871  28.440  21.225  1.00  0.00     0.068 A 
HETATM   25  C10 UNL     1      37.295  27.254  21.662  1.00  0.00     0.125 A 
HETATM   26  N5  UNL     1      36.614  27.131  22.804  1.00  0.00    -0.201 N 
HETATM   27  C11 UNL     1      36.471  28.211  23.586  1.00  0.00     0.677 A 
ATOM     28  H5  UNL     1      36.212  26.234  23.076  1.00  0.00     0.183 HD
HETATM   29  N7  UNL     1      37.007  29.376  23.208  1.00  0.00    -0.176 N 
HETATM   30  C12 UNL     1      37.709  29.521  22.038  1.00  0.00     0.130 A 
ATOM     31  H7  UNL     1      36.889  30.188  23.813  1.00  0.00     0.186 HD
HETATM   32  N8  UNL     1      38.194  30.673  21.743  1.00  0.00    -0.384 N 
ATOM     33  H82 UNL     1      38.716  30.782  20.873  1.00  0.00     0.157 HD
ATOM     34  H81 UNL     1      38.073  31.483  22.352  1.00  0.00     0.157 HD
BRANCH  27  35
HETATM   35  N6  UNL     1      35.813  28.148  24.717  1.00  0.00    -0.234 N 
ATOM     36  H62 UNL     1      34.847  28.476  24.750  1.00  0.00     0.174 HD
ATOM     37  H61 UNL     1      36.249  27.778  25.562  1.00  0.00     0.174 HD
ENDBRANCH  27  35
ENDBRANCH  20  24
ENDBRANCH  11  12
ENDBRANCH  10  11
ENDBRANCH   6  10
ENDBRANCH   3   6
TORSDOF 9
ENDMDL
