MODEL 1
REMARK VINA RESULT: -7.887795123      0.000      0.000
REMARK  11 active torsions:
REMARK  status: ('A' for Active; 'I' for Inactive)
REMARK    1  A    between atoms: C3_8  and  C4_9 
REMARK    2  A    between atoms: C4_9  and  O2_10 
REMARK    3  A    between atoms: C4_9  and  C5_12 
REMARK    4  A    between atoms: C6_13  and  C7_14 
REMARK    5  A    between atoms: C8_15  and  C9_16 
REMARK    6  A    between atoms: C10_17  and  C11_18 
REMARK    7  A    between atoms: N3_19  and  N4_21 
REMARK    8  A    between atoms: N4_21  and  C12_23 
REMARK    9  A    between atoms: C12_23  and  C14_25 
REMARK   10  A    between atoms: C14_25  and  O3_26 
REMARK   11  A    between atoms: C14_25  and  C15_28 
ROOT
HETATM    1  C9  UNL     1      34.350   8.714  14.074  1.00  0.00     0.001 C 
HETATM    2  C10 UNL     1      35.197   9.656  14.435  1.00  0.00     0.019 C 
ENDROOT
BRANCH   1   3
HETATM    3  C8  UNL     1      33.128   9.081  13.386  1.00  0.00     0.000 C 
HETATM    4  C7  UNL     1      32.033   9.356  14.115  1.00  0.00    -0.000 C 
BRANCH   4   5
HETATM    5  C6  UNL     1      30.817   9.722  13.418  1.00  0.00    -0.001 C 
HETATM    6  C5  UNL     1      29.747   8.996  13.440  1.00  0.00     0.011 C 
BRANCH   6   7
HETATM    7  C4  UNL     1      29.640   7.731  14.167  1.00  0.00     0.195 C 
BRANCH   7   8
HETATM    8  C3  UNL     1      29.179   6.628  13.269  1.00  0.00     0.090 A 
HETATM    9  C2  UNL     1      30.006   5.756  12.637  1.00  0.00     0.058 A 
HETATM   10  C1  UNL     1      31.488   5.735  12.714  1.00  0.00     0.072 C 
HETATM   11  N1  UNL     1      29.225   4.905  11.927  1.00  0.00    -0.244 N 
HETATM   12  O1  UNL     1      28.004   5.267  12.137  1.00  0.00    -0.157 OA
ATOM     13  H1  UNL     1      29.540   4.132  11.341  1.00  0.00     0.196 HD
HETATM   14  N2  UNL     1      27.916   6.285  12.925  1.00  0.00    -0.241 N 
ATOM     15  H2  UNL     1      27.058   6.744  13.231  1.00  0.00     0.196 HD
ENDBRANCH   7   8
BRANCH   7  16
HETATM   16  O2  UNL     1      28.914   7.803  15.349  1.00  0.00    -0.385 OA
ATOM     17  H2  UNL     1      28.932   8.669  15.740  1.00  0.00     0.210 HD
ENDBRANCH   7  16
ENDBRANCH   6   7
ENDBRANCH   4   5
ENDBRANCH   1   3
BRANCH   2  18
HETATM   18  C11 UNL     1      36.440   9.351  15.128  1.00  0.00     0.106 C 
HETATM   19  N3  UNL     1      36.601   9.492  16.385  1.00  0.00    -0.316 N 
ATOM     20  H3  UNL     1      37.509   9.253  16.783  1.00  0.00     0.185 HD
BRANCH  19  21
HETATM   21  N4  UNL     1      35.606   9.957  17.251  1.00  0.00    -0.330 N 
ATOM     22  H4  UNL     1      35.312  10.932  17.196  1.00  0.00     0.180 HD
BRANCH  21  23
HETATM   23  C12 UNL     1      34.974   9.066  18.240  1.00  0.00     0.124 C 
HETATM   24  C13 UNL     1      35.913   8.953  19.390  1.00  0.00     0.036 C 
BRANCH  23  25
HETATM   25  C14 UNL     1      34.641   7.804  17.539  1.00  0.00     0.149 C 
BRANCH  25  26
HETATM   26  O3  UNL     1      35.559   6.824  17.860  1.00  0.00    -0.393 OA
ATOM     27  H3  UNL     1      36.027   6.546  17.082  1.00  0.00     0.210 HD
ENDBRANCH  25  26
BRANCH  25  28
HETATM   28  C15 UNL     1      33.243   7.318  17.661  1.00  0.00    -0.023 C 
HETATM   29  C16 UNL     1      32.759   6.460  16.525  1.00  0.00     0.017 C 
HETATM   30  C17 UNL     1      32.349   8.571  17.658  1.00  0.00     0.017 C 
HETATM   31  C18 UNL     1      32.992   6.648  18.993  1.00  0.00     0.017 C 
ENDBRANCH  25  28
ENDBRANCH  23  25
ENDBRANCH  21  23
ENDBRANCH  19  21
ENDBRANCH   2  18
TORSDOF 11
ENDMDL
MODEL 2
REMARK VINA RESULT: -7.786149757      2.155      7.929
REMARK  11 active torsions:
REMARK  status: ('A' for Active; 'I' for Inactive)
REMARK    1  A    between atoms: C3_8  and  C4_9 
REMARK    2  A    between atoms: C4_9  and  O2_10 
REMARK    3  A    between atoms: C4_9  and  C5_12 
REMARK    4  A    between atoms: C6_13  and  C7_14 
REMARK    5  A    between atoms: C8_15  and  C9_16 
REMARK    6  A    between atoms: C10_17  and  C11_18 
REMARK    7  A    between atoms: N3_19  and  N4_21 
REMARK    8  A    between atoms: N4_21  and  C12_23 
REMARK    9  A    between atoms: C12_23  and  C14_25 
REMARK   10  A    between atoms: C14_25  and  O3_26 
REMARK   11  A    between atoms: C14_25  and  C15_28 
ROOT
HETATM    1  C9  UNL     1      32.559   7.857  16.576  1.00  0.00     0.001 C 
HETATM    2  C10 UNL     1      32.394   6.839  15.757  1.00  0.00     0.019 C 
ENDROOT
BRANCH   1   3
HETATM    3  C8  UNL     1      33.753   8.671  16.467  1.00  0.00     0.000 C 
HETATM    4  C7  UNL     1      34.888   8.101  16.025  1.00  0.00    -0.000 C 
BRANCH   4   5
HETATM    5  C6  UNL     1      36.075   8.924  15.919  1.00  0.00    -0.001 C 
HETATM    6  C5  UNL     1      36.892   9.109  16.903  1.00  0.00     0.011 C 
BRANCH   6   7
HETATM    7  C4  UNL     1      36.716   8.515  18.228  1.00  0.00     0.195 C 
BRANCH   7   8
HETATM    8  C3  UNL     1      36.195   9.518  19.207  1.00  0.00     0.090 A 
HETATM    9  C2  UNL     1      35.484   9.206  20.320  1.00  0.00     0.058 A 
HETATM   10  C1  UNL     1      35.095   7.844  20.764  1.00  0.00     0.072 C 
HETATM   11  N1  UNL     1      35.198  10.370  20.953  1.00  0.00    -0.244 N 
HETATM   12  O1  UNL     1      35.720  11.312  20.241  1.00  0.00    -0.157 OA
ATOM     13  H1  UNL     1      34.674  10.481  21.822  1.00  0.00     0.196 HD
HETATM   14  N2  UNL     1      36.323  10.864  19.192  1.00  0.00    -0.241 N 
ATOM     15  H2  UNL     1      36.805  11.421  18.485  1.00  0.00     0.196 HD
ENDBRANCH   7   8
BRANCH   7  16
HETATM   16  O2  UNL     1      37.823   7.823  18.703  1.00  0.00    -0.385 OA
ATOM     17  H2  UNL     1      37.863   6.929  18.385  1.00  0.00     0.210 HD
ENDBRANCH   7  16
ENDBRANCH   6   7
ENDBRANCH   4   5
ENDBRANCH   1   3
BRANCH   2  18
HETATM   18  C11 UNL     1      31.216   5.985  15.818  1.00  0.00     0.106 C 
HETATM   19  N3  UNL     1      30.048   6.367  15.477  1.00  0.00    -0.316 N 
ATOM     20  H3  UNL     1      29.282   5.697  15.555  1.00  0.00     0.185 HD
BRANCH  19  21
HETATM   21  N4  UNL     1      29.755   7.650  15.005  1.00  0.00    -0.330 N 
ATOM     22  H4  UNL     1      29.835   8.445  15.638  1.00  0.00     0.180 HD
BRANCH  21  23
HETATM   23  C12 UNL     1      29.333   7.875  13.611  1.00  0.00     0.124 C 
HETATM   24  C13 UNL     1      28.448   6.739  13.232  1.00  0.00     0.036 C 
BRANCH  23  25
HETATM   25  C14 UNL     1      30.565   8.044  12.805  1.00  0.00     0.149 C 
BRANCH  25  26
HETATM   26  O3  UNL     1      30.411   7.450  11.568  1.00  0.00    -0.393 OA
ATOM     27  H3  UNL     1      30.630   8.066  10.879  1.00  0.00     0.210 HD
ENDBRANCH  25  26
BRANCH  25  28
HETATM   28  C15 UNL     1      31.113   9.419  12.697  1.00  0.00    -0.023 C 
HETATM   29  C16 UNL     1      30.323  10.484  13.406  1.00  0.00     0.017 C 
HETATM   30  C17 UNL     1      31.073   9.784  11.203  1.00  0.00     0.017 C 
HETATM   31  C18 UNL     1      32.574   9.478  13.086  1.00  0.00     0.017 C 
ENDBRANCH  25  28
ENDBRANCH  23  25
ENDBRANCH  21  23
ENDBRANCH  19  21
ENDBRANCH   2  18
TORSDOF 11
ENDMDL
MODEL 3
REMARK VINA RESULT: -7.697968955      2.524      7.290
REMARK  11 active torsions:
REMARK  status: ('A' for Active; 'I' for Inactive)
REMARK    1  A    between atoms: C3_8  and  C4_9 
REMARK    2  A    between atoms: C4_9  and  O2_10 
REMARK    3  A    between atoms: C4_9  and  C5_12 
REMARK    4  A    between atoms: C6_13  and  C7_14 
REMARK    5  A    between atoms: C8_15  and  C9_16 
REMARK    6  A    between atoms: C10_17  and  C11_18 
REMARK    7  A    between atoms: N3_19  and  N4_21 
REMARK    8  A    between atoms: N4_21  and  C12_23 
REMARK    9  A    between atoms: C12_23  and  C14_25 
REMARK   10  A    between atoms: C14_25  and  O3_26 
REMARK   11  A    between atoms: C14_25  and  C15_28 
ROOT
HETATM    1  C9  UNL     1      32.021   5.166  14.581  1.00  0.00     0.001 C 
HETATM    2  C10 UNL     1      31.128   5.698  13.773  1.00  0.00     0.019 C 
ENDROOT
BRANCH   1   3
HETATM    3  C8  UNL     1      31.821   5.242  16.014  1.00  0.00     0.000 C 
HETATM    4  C7  UNL     1      32.581   6.089  16.730  1.00  0.00    -0.000 C 
BRANCH   4   5
HETATM    5  C6  UNL     1      32.372   6.158  18.162  1.00  0.00    -0.001 C 
HETATM    6  C5  UNL     1      32.981   7.009  18.921  1.00  0.00     0.011 C 
BRANCH   6   7
HETATM    7  C4  UNL     1      33.943   7.994  18.428  1.00  0.00     0.195 C 
BRANCH   7   8
HETATM    8  C3  UNL     1      35.332   7.665  18.872  1.00  0.00     0.090 A 
HETATM    9  C2  UNL     1      36.429   7.736  18.076  1.00  0.00     0.058 A 
HETATM   10  C1  UNL     1      36.457   8.143  16.649  1.00  0.00     0.072 C 
HETATM   11  N1  UNL     1      37.496   7.372  18.830  1.00  0.00    -0.244 N 
HETATM   12  O1  UNL     1      37.038   7.102  20.006  1.00  0.00    -0.157 OA
ATOM     13  H1  UNL     1      38.469   7.321  18.527  1.00  0.00     0.196 HD
HETATM   14  N2  UNL     1      35.760   7.257  20.089  1.00  0.00    -0.241 N 
ATOM     15  H2  UNL     1      35.182   7.102  20.915  1.00  0.00     0.196 HD
ENDBRANCH   7   8
BRANCH   7  16
HETATM   16  O2  UNL     1      33.596   9.316  18.679  1.00  0.00    -0.385 OA
ATOM     17  H2  UNL     1      32.745   9.548  18.325  1.00  0.00     0.210 HD
ENDBRANCH   7  16
ENDBRANCH   6   7
ENDBRANCH   4   5
ENDBRANCH   1   3
BRANCH   2  18
HETATM   18  C11 UNL     1      31.274   5.653  12.326  1.00  0.00     0.106 C 
HETATM   19  N3  UNL     1      30.880   6.583  11.547  1.00  0.00    -0.316 N 
ATOM     20  H3  UNL     1      31.024   6.463  10.544  1.00  0.00     0.185 HD
BRANCH  19  21
HETATM   21  N4  UNL     1      30.261   7.757  11.986  1.00  0.00    -0.330 N 
ATOM     22  H4  UNL     1      29.303   7.717  12.334  1.00  0.00     0.180 HD
BRANCH  21  23
HETATM   23  C12 UNL     1      30.965   9.052  11.956  1.00  0.00     0.124 C 
HETATM   24  C13 UNL     1      31.248   9.363  10.527  1.00  0.00     0.036 C 
BRANCH  23  25
HETATM   25  C14 UNL     1      32.143   8.927  12.846  1.00  0.00     0.149 C 
BRANCH  25  26
HETATM   26  O3  UNL     1      33.264   8.597  12.110  1.00  0.00    -0.393 OA
ATOM     27  H3  UNL     1      33.738   9.383  11.864  1.00  0.00     0.210 HD
ENDBRANCH  25  26
BRANCH  25  28
HETATM   28  C15 UNL     1      32.402  10.054  13.777  1.00  0.00    -0.023 C 
HETATM   29  C16 UNL     1      33.697  10.785  13.560  1.00  0.00     0.017 C 
HETATM   30  C17 UNL     1      32.492   9.438  15.185  1.00  0.00     0.017 C 
HETATM   31  C18 UNL     1      31.238  11.018  13.835  1.00  0.00     0.017 C 
ENDBRANCH  25  28
ENDBRANCH  23  25
ENDBRANCH  21  23
ENDBRANCH  19  21
ENDBRANCH   2  18
TORSDOF 11
ENDMDL
MODEL 4
REMARK VINA RESULT: -7.593119980      2.586      7.609
REMARK  11 active torsions:
REMARK  status: ('A' for Active; 'I' for Inactive)
REMARK    1  A    between atoms: C3_8  and  C4_9 
REMARK    2  A    between atoms: C4_9  and  O2_10 
REMARK    3  A    between atoms: C4_9  and  C5_12 
REMARK    4  A    between atoms: C6_13  and  C7_14 
REMARK    5  A    between atoms: C8_15  and  C9_16 
REMARK    6  A    between atoms: C10_17  and  C11_18 
REMARK    7  A    between atoms: N3_19  and  N4_21 
REMARK    8  A    between atoms: N4_21  and  C12_23 
REMARK    9  A    between atoms: C12_23  and  C14_25 
REMARK   10  A    between atoms: C14_25  and  O3_26 
REMARK   11  A    between atoms: C14_25  and  C15_28 
ROOT
HETATM    1  C9  UNL     1      31.824   5.571  14.215  1.00  0.00     0.001 C 
HETATM    2  C10 UNL     1      30.654   5.908  13.713  1.00  0.00     0.019 C 
ENDROOT
BRANCH   1   3
HETATM    3  C8  UNL     1      31.934   5.284  15.632  1.00  0.00     0.000 C 
HETATM    4  C7  UNL     1      32.052   6.309  16.494  1.00  0.00    -0.000 C 
BRANCH   4   5
HETATM    5  C6  UNL     1      32.161   6.011  17.907  1.00  0.00    -0.001 C 
HETATM    6  C5  UNL     1      32.955   6.650  18.702  1.00  0.00     0.011 C 
BRANCH   6   7
HETATM    7  C4  UNL     1      33.829   7.741  18.271  1.00  0.00     0.195 C 
BRANCH   7   8
HETATM    8  C3  UNL     1      35.234   7.524  18.732  1.00  0.00     0.090 A 
HETATM    9  C2  UNL     1      36.334   7.717  17.960  1.00  0.00     0.058 A 
HETATM   10  C1  UNL     1      36.349   8.165  16.545  1.00  0.00     0.072 C 
HETATM   11  N1  UNL     1      37.416   7.428  18.724  1.00  0.00    -0.244 N 
HETATM   12  O1  UNL     1      36.965   7.085  19.884  1.00  0.00    -0.157 OA
ATOM     13  H1  UNL     1      38.394   7.473  18.439  1.00  0.00     0.196 HD
HETATM   14  N2  UNL     1      35.677   7.123  19.946  1.00  0.00    -0.241 N 
ATOM     15  H2  UNL     1      35.101   6.893  20.757  1.00  0.00     0.196 HD
ENDBRANCH   7   8
BRANCH   7  16
HETATM   16  O2  UNL     1      33.354   9.013  18.568  1.00  0.00    -0.385 OA
ATOM     17  H2  UNL     1      32.523   8.998  19.029  1.00  0.00     0.210 HD
ENDBRANCH   7  16
ENDBRANCH   6   7
ENDBRANCH   4   5
ENDBRANCH   1   3
BRANCH   2  18
HETATM   18  C11 UNL     1      30.481   6.209  12.300  1.00  0.00     0.106 C 
HETATM   19  N3  UNL     1      30.297   7.386  11.845  1.00  0.00    -0.316 N 
ATOM     20  H3  UNL     1      30.185   7.499  10.837  1.00  0.00     0.185 HD
BRANCH  19  21
HETATM   21  N4  UNL     1      30.241   8.530  12.646  1.00  0.00    -0.330 N 
ATOM     22  H4  UNL     1      29.385   8.739  13.159  1.00  0.00     0.180 HD
BRANCH  21  23
HETATM   23  C12 UNL     1      31.394   9.441  12.763  1.00  0.00     0.124 C 
HETATM   24  C13 UNL     1      31.740   9.526  14.208  1.00  0.00     0.036 C 
BRANCH  23  25
HETATM   25  C14 UNL     1      31.012  10.713  12.104  1.00  0.00     0.149 C 
BRANCH  25  26
HETATM   26  O3  UNL     1      30.969  11.735  13.031  1.00  0.00    -0.393 OA
ATOM     27  H3  UNL     1      31.767  12.248  12.991  1.00  0.00     0.210 HD
ENDBRANCH  25  26
BRANCH  25  28
HETATM   28  C15 UNL     1      31.775  11.095  10.889  1.00  0.00    -0.023 C 
HETATM   29  C16 UNL     1      31.655  10.145   9.730  1.00  0.00     0.017 C 
HETATM   30  C17 UNL     1      33.260  11.089  11.292  1.00  0.00     0.017 C 
HETATM   31  C18 UNL     1      31.480  12.515  10.461  1.00  0.00     0.017 C 
ENDBRANCH  25  28
ENDBRANCH  23  25
ENDBRANCH  21  23
ENDBRANCH  19  21
ENDBRANCH   2  18
TORSDOF 11
ENDMDL
MODEL 5
REMARK VINA RESULT: -7.580501219      2.119      7.338
REMARK  11 active torsions:
REMARK  status: ('A' for Active; 'I' for Inactive)
REMARK    1  A    between atoms: C3_8  and  C4_9 
REMARK    2  A    between atoms: C4_9  and  O2_10 
REMARK    3  A    between atoms: C4_9  and  C5_12 
REMARK    4  A    between atoms: C6_13  and  C7_14 
REMARK    5  A    between atoms: C8_15  and  C9_16 
REMARK    6  A    between atoms: C10_17  and  C11_18 
REMARK    7  A    between atoms: N3_19  and  N4_21 
REMARK    8  A    between atoms: N4_21  and  C12_23 
REMARK    9  A    between atoms: C12_23  and  C14_25 
REMARK   10  A    between atoms: C14_25  and  O3_26 
REMARK   11  A    between atoms: C14_25  and  C15_28 
ROOT
HETATM    1  C9  UNL     1      31.372   5.505  15.295  1.00  0.00     0.001 C 
HETATM    2  C10 UNL     1      30.426   6.416  15.198  1.00  0.00     0.019 C 
ENDROOT
BRANCH   1   3
HETATM    3  C8  UNL     1      32.256   5.518  16.444  1.00  0.00     0.000 C 
HETATM    4  C7  UNL     1      32.134   6.508  17.345  1.00  0.00    -0.000 C 
BRANCH   4   5
HETATM    5  C6  UNL     1      33.022   6.511  18.489  1.00  0.00    -0.001 C 
HETATM    6  C5  UNL     1      33.867   7.461  18.721  1.00  0.00     0.011 C 
BRANCH   6   7
HETATM    7  C4  UNL     1      34.026   8.634  17.863  1.00  0.00     0.195 C 
BRANCH   7   8
HETATM    8  C3  UNL     1      35.382   9.243  18.022  1.00  0.00     0.090 A 
HETATM    9  C2  UNL     1      36.376   9.155  17.101  1.00  0.00     0.058 A 
HETATM   10  C1  UNL     1      36.306   8.453  15.795  1.00  0.00     0.072 C 
HETATM   11  N1  UNL     1      37.441   9.832  17.595  1.00  0.00    -0.244 N 
HETATM   12  O1  UNL     1      37.083  10.291  18.747  1.00  0.00    -0.157 OA
ATOM     13  H1  UNL     1      38.349   9.955  17.145  1.00  0.00     0.196 HD
HETATM   14  N2  UNL     1      35.871   9.970  19.053  1.00  0.00    -0.241 N 
ATOM     15  H2  UNL     1      35.375  10.219  19.909  1.00  0.00     0.196 HD
ENDBRANCH   7   8
BRANCH   7  16
HETATM   16  O2  UNL     1      33.001   9.567  17.965  1.00  0.00    -0.385 OA
ATOM     17  H2  UNL     1      32.597   9.764  17.128  1.00  0.00     0.210 HD
ENDBRANCH   7  16
ENDBRANCH   6   7
ENDBRANCH   4   5
ENDBRANCH   1   3
BRANCH   2  18
HETATM   18  C11 UNL     1      29.508   6.455  14.068  1.00  0.00     0.106 C 
HETATM   19  N3  UNL     1      29.079   7.535  13.544  1.00  0.00    -0.316 N 
ATOM     20  H3  UNL     1      28.437   7.464  12.755  1.00  0.00     0.185 HD
BRANCH  19  21
HETATM   21  N4  UNL     1      29.436   8.812  13.988  1.00  0.00    -0.330 N 
ATOM     22  H4  UNL     1      28.818   9.309  14.630  1.00  0.00     0.180 HD
BRANCH  21  23
HETATM   23  C12 UNL     1      30.687   9.455  13.548  1.00  0.00     0.124 C 
HETATM   24  C13 UNL     1      30.409  10.912  13.419  1.00  0.00     0.036 C 
BRANCH  23  25
HETATM   25  C14 UNL     1      31.122   8.759  12.314  1.00  0.00     0.149 C 
BRANCH  25  26
HETATM   26  O3  UNL     1      30.845   9.535  11.206  1.00  0.00    -0.393 OA
ATOM     27  H3  UNL     1      30.758   8.987  10.435  1.00  0.00     0.210 HD
ENDBRANCH  25  26
BRANCH  25  28
HETATM   28  C15 UNL     1      32.512   8.236  12.294  1.00  0.00    -0.023 C 
HETATM   29  C16 UNL     1      33.418   8.856  11.266  1.00  0.00     0.017 C 
HETATM   30  C17 UNL     1      32.407   6.746  11.925  1.00  0.00     0.017 C 
HETATM   31  C18 UNL     1      33.147   8.267  13.666  1.00  0.00     0.017 C 
ENDBRANCH  25  28
ENDBRANCH  23  25
ENDBRANCH  21  23
ENDBRANCH  19  21
ENDBRANCH   2  18
TORSDOF 11
ENDMDL
