MODEL 1
REMARK VINA RESULT: -8.463073572      0.000      0.000
REMARK  11 active torsions:
REMARK  status: ('A' for Active; 'I' for Inactive)
REMARK       I    between atoms: C1_4  and  N3_6 
REMARK    1  A    between atoms: N3_6  and  C2_8 
REMARK    2  A    between atoms: C5_11  and  N4_12 
REMARK    3  A    between atoms: C6_16  and  O1_17 
REMARK    4  A    between atoms: O1_17  and  C7_18 
REMARK    5  A    between atoms: C7_18  and  C8_19 
REMARK    6  A    between atoms: C7_18  and  C9_22 
REMARK    7  A    between atoms: C8_19  and  O2_20 
REMARK    8  A    between atoms: C9_22  and  S1_23 
REMARK    9  A    between atoms: S1_23  and  C10_24 
REMARK   10  A    between atoms: C12_28  and  N6_29 
REMARK   11  A    between atoms: C13_34  and  N8_35 
ROOT
HETATM    1  C7  UNL     1      41.768  33.013  22.785  1.00  0.00     0.155 C 
ENDROOT
BRANCH   1   2
HETATM    2  O1  UNL     1      40.674  32.963  21.979  1.00  0.00    -0.376 OA
BRANCH   2   3
HETATM    3  C6  UNL     1      39.472  32.651  22.569  1.00  0.00     0.154 C 
HETATM    4  C5  UNL     1      38.463  33.721  22.314  1.00  0.00     0.212 C 
HETATM    5  C4  UNL     1      37.172  33.477  23.077  1.00  0.00     0.037 C 
HETATM    6  C3  UNL     1      37.110  32.000  23.419  1.00  0.00     0.027 C 
HETATM    7  C2  UNL     1      37.455  31.203  22.209  1.00  0.00     0.086 C 
HETATM    8  C15 UNL     1      38.920  31.357  21.885  1.00  0.00     0.059 C 
BRANCH   4   9
HETATM    9  N4  UNL     1      38.941  35.024  22.604  1.00  0.00    -0.073 N 
ATOM     10  H43 UNL     1      38.490  35.738  22.031  1.00  0.00     0.274 HD
ATOM     11  H42 UNL     1      38.630  35.355  23.517  1.00  0.00     0.274 HD
ATOM     12  H41 UNL     1      39.956  35.040  22.512  1.00  0.00     0.274 HD
ENDBRANCH   4   9
BRANCH   7  13
HETATM   13  N3  UNL     1      37.132  29.813  22.375  1.00  0.00    -0.360 N 
HETATM   14  C1  UNL     1      37.016  28.876  21.333  1.00  0.00     0.182 C 
HETATM   15  N1  UNL     1      37.380  27.648  21.619  1.00  0.00    -0.374 N 
HETATM   16  N2  UNL     1      36.555  29.116  20.019  1.00  0.00    -0.064 NA
ATOM     17  H12 UNL     1      37.296  26.968  20.864  1.00  0.00     0.158 HD
ATOM     18  H11 UNL     1      37.713  27.475  22.568  1.00  0.00     0.158 HD
ATOM     19  H3  UNL     1      36.973  29.479  23.325  1.00  0.00     0.162 HD
ENDBRANCH   7  13
ENDBRANCH   2   3
ENDBRANCH   1   2
BRANCH   1  20
HETATM   20  C8  UNL     1      42.933  33.849  22.446  1.00  0.00     0.196 C 
BRANCH  20  21
HETATM   21  O2  UNL     1      42.770  34.609  21.260  1.00  0.00    -0.398 OA
ATOM     22  H2  UNL     1      42.396  34.119  20.537  1.00  0.00     0.209 HD
ENDBRANCH  20  21
ENDBRANCH   1  20
BRANCH   1  23
HETATM   23  C9  UNL     1      42.181  31.610  23.146  1.00  0.00     0.117 C 
BRANCH  23  24
HETATM   24  S1  UNL     1      43.327  30.903  22.009  1.00  0.00    -0.084 SA
BRANCH  24  25
HETATM   25  C10 UNL     1      42.793  30.174  20.539  1.00  0.00     0.189 A 
HETATM   26  N5  UNL     1      41.587  29.647  20.244  1.00  0.00    -0.324 N 
HETATM   27  C11 UNL     1      41.562  29.175  18.992  1.00  0.00     0.131 A 
ATOM     28  H5  UNL     1      40.798  29.612  20.890  1.00  0.00     0.169 HD
HETATM   29  C12 UNL     1      40.615  28.554  18.200  1.00  0.00     0.146 A 
HETATM   30  C14 UNL     1      42.826  29.432  18.500  1.00  0.00     0.196 A 
HETATM   31  N7  UNL     1      40.888  28.182  16.937  1.00  0.00    -0.175 N 
HETATM   32  C13 UNL     1      42.139  28.437  16.456  1.00  0.00     0.679 A 
ATOM     33  H7  UNL     1      40.183  27.725  16.358  1.00  0.00     0.186 HD
HETATM   34  N9  UNL     1      43.065  29.041  17.221  1.00  0.00    -0.168 N 
ATOM     35  H9  UNL     1      43.988  29.213  16.823  1.00  0.00     0.186 HD
HETATM   36  O3  UNL     1      43.501  30.011  19.434  1.00  0.00    -0.268 OA
BRANCH  29  37
HETATM   37  N6  UNL     1      39.456  28.343  18.717  1.00  0.00    -0.383 N 
ATOM     38  H62 UNL     1      39.346  27.741  19.533  1.00  0.00     0.157 HD
ATOM     39  H61 UNL     1      38.656  28.799  18.278  1.00  0.00     0.157 HD
ENDBRANCH  29  37
BRANCH  32  40
HETATM   40  N8  UNL     1      42.417  28.083  15.237  1.00  0.00    -0.234 N 
ATOM     41  H82 UNL     1      41.682  27.748  14.614  1.00  0.00     0.174 HD
ATOM     42  H81 UNL     1      43.384  28.148  14.920  1.00  0.00     0.174 HD
ENDBRANCH  32  40
ENDBRANCH  24  25
ENDBRANCH  23  24
ENDBRANCH   1  23
TORSDOF 11
ENDMDL
MODEL 2
REMARK VINA RESULT: -8.394970942      2.783      5.088
REMARK  11 active torsions:
REMARK  status: ('A' for Active; 'I' for Inactive)
REMARK       I    between atoms: C1_4  and  N3_6 
REMARK    1  A    between atoms: N3_6  and  C2_8 
REMARK    2  A    between atoms: C5_11  and  N4_12 
REMARK    3  A    between atoms: C6_16  and  O1_17 
REMARK    4  A    between atoms: O1_17  and  C7_18 
REMARK    5  A    between atoms: C7_18  and  C8_19 
REMARK    6  A    between atoms: C7_18  and  C9_22 
REMARK    7  A    between atoms: C8_19  and  O2_20 
REMARK    8  A    between atoms: C9_22  and  S1_23 
REMARK    9  A    between atoms: S1_23  and  C10_24 
REMARK   10  A    between atoms: C12_28  and  N6_29 
REMARK   11  A    between atoms: C13_34  and  N8_35 
ROOT
HETATM    1  C7  UNL     1      37.385  28.207  21.240  1.00  0.00     0.155 C 
ENDROOT
BRANCH   1   2
HETATM    2  O1  UNL     1      37.969  28.696  22.367  1.00  0.00    -0.376 OA
BRANCH   2   3
HETATM    3  C6  UNL     1      37.542  29.924  22.813  1.00  0.00     0.154 C 
HETATM    4  C5  UNL     1      37.320  29.903  24.289  1.00  0.00     0.212 C 
HETATM    5  C4  UNL     1      36.706  31.200  24.788  1.00  0.00     0.037 C 
HETATM    6  C3  UNL     1      37.002  32.276  23.761  1.00  0.00     0.027 C 
HETATM    7  C2  UNL     1      38.437  32.200  23.372  1.00  0.00     0.086 C 
HETATM    8  C15 UNL     1      38.690  30.956  22.559  1.00  0.00     0.059 C 
BRANCH   4   9
HETATM    9  N4  UNL     1      36.526  28.811  24.722  1.00  0.00    -0.073 N 
ATOM     10  H43 UNL     1      36.627  28.631  25.721  1.00  0.00     0.274 HD
ATOM     11  H42 UNL     1      35.530  29.030  24.715  1.00  0.00     0.274 HD
ATOM     12  H41 UNL     1      36.744  27.990  24.157  1.00  0.00     0.274 HD
ENDBRANCH   4   9
BRANCH   7  13
HETATM   13  N3  UNL     1      38.854  33.362  22.636  1.00  0.00    -0.360 N 
HETATM   14  C1  UNL     1      39.250  34.585  23.203  1.00  0.00     0.182 C 
HETATM   15  N1  UNL     1      40.175  35.250  22.553  1.00  0.00    -0.374 N 
HETATM   16  N2  UNL     1      38.760  35.169  24.394  1.00  0.00    -0.064 NA
ATOM     17  H12 UNL     1      40.462  36.138  22.964  1.00  0.00     0.158 HD
ATOM     18  H11 UNL     1      40.528  34.829  21.694  1.00  0.00     0.158 HD
ATOM     19  H3  UNL     1      38.864  33.292  21.618  1.00  0.00     0.162 HD
ENDBRANCH   7  13
ENDBRANCH   2   3
ENDBRANCH   1   2
BRANCH   1  20
HETATM   20  C8  UNL     1      36.244  27.275  21.311  1.00  0.00     0.196 C 
BRANCH  20  21
HETATM   21  O2  UNL     1      35.641  27.201  22.591  1.00  0.00    -0.398 OA
ATOM     22  H2  UNL     1      35.103  26.428  22.719  1.00  0.00     0.209 HD
ENDBRANCH  20  21
ENDBRANCH   1  20
BRANCH   1  23
HETATM   23  C9  UNL     1      38.454  27.701  20.308  1.00  0.00     0.117 C 
BRANCH  23  24
HETATM   24  S1  UNL     1      38.847  28.831  19.014  1.00  0.00    -0.084 SA
BRANCH  24  25
HETATM   25  C10 UNL     1      40.389  28.805  18.241  1.00  0.00     0.189 A 
HETATM   26  N5  UNL     1      40.702  28.410  16.989  1.00  0.00    -0.324 N 
HETATM   27  C11 UNL     1      42.015  28.541  16.759  1.00  0.00     0.131 A 
ATOM     28  H5  UNL     1      40.029  28.060  16.308  1.00  0.00     0.169 HD
HETATM   29  C12 UNL     1      42.848  28.292  15.685  1.00  0.00     0.146 A 
HETATM   30  C14 UNL     1      42.525  29.043  17.940  1.00  0.00     0.196 A 
HETATM   31  N7  UNL     1      44.170  28.530  15.751  1.00  0.00    -0.175 N 
HETATM   32  C13 UNL     1      44.670  29.025  16.920  1.00  0.00     0.679 A 
ATOM     33  H7  UNL     1      44.779  28.346  14.954  1.00  0.00     0.186 HD
HETATM   34  N9  UNL     1      43.864  29.268  17.969  1.00  0.00    -0.168 N 
ATOM     35  H9  UNL     1      44.278  29.638  18.824  1.00  0.00     0.186 HD
HETATM   36  O3  UNL     1      41.544  29.177  18.766  1.00  0.00    -0.268 OA
BRANCH  29  37
HETATM   37  N6  UNL     1      42.311  27.825  14.614  1.00  0.00    -0.383 N 
ATOM     38  H62 UNL     1      41.872  26.905  14.605  1.00  0.00     0.157 HD
ATOM     39  H61 UNL     1      42.345  28.409  13.779  1.00  0.00     0.157 HD
ENDBRANCH  29  37
BRANCH  32  40
HETATM   40  N8  UNL     1      45.945  29.260  16.998  1.00  0.00    -0.234 N 
ATOM     41  H82 UNL     1      46.579  28.930  16.269  1.00  0.00     0.174 HD
ATOM     42  H81 UNL     1      46.296  29.779  17.803  1.00  0.00     0.174 HD
ENDBRANCH  32  40
ENDBRANCH  24  25
ENDBRANCH  23  24
ENDBRANCH   1  23
TORSDOF 11
ENDMDL
MODEL 3
REMARK VINA RESULT: -8.286167609      3.223      5.643
REMARK  11 active torsions:
REMARK  status: ('A' for Active; 'I' for Inactive)
REMARK       I    between atoms: C1_4  and  N3_6 
REMARK    1  A    between atoms: N3_6  and  C2_8 
REMARK    2  A    between atoms: C5_11  and  N4_12 
REMARK    3  A    between atoms: C6_16  and  O1_17 
REMARK    4  A    between atoms: O1_17  and  C7_18 
REMARK    5  A    between atoms: C7_18  and  C8_19 
REMARK    6  A    between atoms: C7_18  and  C9_22 
REMARK    7  A    between atoms: C8_19  and  O2_20 
REMARK    8  A    between atoms: C9_22  and  S1_23 
REMARK    9  A    between atoms: S1_23  and  C10_24 
REMARK   10  A    between atoms: C12_28  and  N6_29 
REMARK   11  A    between atoms: C13_34  and  N8_35 
ROOT
HETATM    1  C7  UNL     1      42.327  28.493  18.840  1.00  0.00     0.155 C 
ENDROOT
BRANCH   1   2
HETATM    2  O1  UNL     1      41.551  28.523  19.957  1.00  0.00    -0.376 OA
BRANCH   2   3
HETATM    3  C6  UNL     1      40.411  29.289  19.909  1.00  0.00     0.154 C 
HETATM    4  C5  UNL     1      39.208  28.468  20.235  1.00  0.00     0.212 C 
HETATM    5  C4  UNL     1      37.919  29.251  20.045  1.00  0.00     0.037 C 
HETATM    6  C3  UNL     1      38.262  30.727  20.108  1.00  0.00     0.027 C 
HETATM    7  C2  UNL     1      39.151  30.973  21.277  1.00  0.00     0.086 C 
HETATM    8  C15 UNL     1      40.514  30.377  21.029  1.00  0.00     0.059 C 
BRANCH   4   9
HETATM    9  N4  UNL     1      39.136  27.259  19.497  1.00  0.00    -0.073 N 
ATOM     10  H43 UNL     1      38.958  27.421  18.506  1.00  0.00     0.274 HD
ATOM     11  H42 UNL     1      40.045  26.807  19.408  1.00  0.00     0.274 HD
ATOM     12  H41 UNL     1      38.439  26.646  19.919  1.00  0.00     0.274 HD
ENDBRANCH   4   9
BRANCH   7  13
HETATM   13  N3  UNL     1      39.274  32.375  21.569  1.00  0.00    -0.360 N 
HETATM   14  C1  UNL     1      38.364  33.130  22.329  1.00  0.00     0.182 C 
HETATM   15  N1  UNL     1      38.878  34.104  23.042  1.00  0.00    -0.374 N 
HETATM   16  N2  UNL     1      36.965  32.949  22.408  1.00  0.00    -0.064 NA
ATOM     17  H12 UNL     1      38.218  34.652  23.594  1.00  0.00     0.158 HD
ATOM     18  H11 UNL     1      39.888  34.234  22.985  1.00  0.00     0.158 HD
ATOM     19  H3  UNL     1      40.088  32.862  21.193  1.00  0.00     0.162 HD
ENDBRANCH   7  13
ENDBRANCH   2   3
ENDBRANCH   1   2
BRANCH   1  20
HETATM   20  C8  UNL     1      43.728  28.950  18.867  1.00  0.00     0.196 C 
BRANCH  20  21
HETATM   21  O2  UNL     1      44.657  27.939  19.222  1.00  0.00    -0.398 OA
ATOM     22  H2  UNL     1      45.142  27.586  18.486  1.00  0.00     0.209 HD
ENDBRANCH  20  21
ENDBRANCH   1  20
BRANCH   1  23
HETATM   23  C9  UNL     1      41.567  29.107  17.693  1.00  0.00     0.117 C 
BRANCH  23  24
HETATM   24  S1  UNL     1      42.603  29.626  16.366  1.00  0.00    -0.084 SA
BRANCH  24  25
HETATM   25  C10 UNL     1      42.699  28.720  14.900  1.00  0.00     0.189 A 
HETATM   26  N5  UNL     1      41.975  27.647  14.519  1.00  0.00    -0.324 N 
HETATM   27  C11 UNL     1      42.347  27.224  13.304  1.00  0.00     0.131 A 
ATOM     28  H5  UNL     1      41.242  27.216  15.081  1.00  0.00     0.169 HD
HETATM   29  C12 UNL     1      41.954  26.202  12.463  1.00  0.00     0.146 A 
HETATM   30  C14 UNL     1      43.355  28.091  12.929  1.00  0.00     0.196 A 
HETATM   31  N7  UNL     1      42.530  26.018  11.262  1.00  0.00    -0.175 N 
HETATM   32  C13 UNL     1      43.525  26.876  10.896  1.00  0.00     0.679 A 
ATOM     33  H7  UNL     1      42.233  25.262  10.645  1.00  0.00     0.186 HD
HETATM   34  N9  UNL     1      43.913  27.873  11.710  1.00  0.00    -0.168 N 
ATOM     35  H9  UNL     1      44.661  28.492  11.399  1.00  0.00     0.186 HD
HETATM   36  O3  UNL     1      43.521  28.938  13.888  1.00  0.00    -0.268 OA
BRANCH  29  37
HETATM   37  N6  UNL     1      41.010  25.428  12.870  1.00  0.00    -0.383 N 
ATOM     38  H62 UNL     1      40.197  25.804  13.357  1.00  0.00     0.157 HD
ATOM     39  H61 UNL     1      41.110  24.430  12.689  1.00  0.00     0.157 HD
ENDBRANCH  29  37
BRANCH  32  40
HETATM   40  N8  UNL     1      44.091  26.710   9.738  1.00  0.00    -0.234 N 
ATOM     41  H82 UNL     1      44.197  25.777   9.341  1.00  0.00     0.174 HD
ATOM     42  H81 UNL     1      44.426  27.534   9.238  1.00  0.00     0.174 HD
ENDBRANCH  32  40
ENDBRANCH  24  25
ENDBRANCH  23  24
ENDBRANCH   1  23
TORSDOF 11
ENDMDL
MODEL 4
REMARK VINA RESULT: -8.110199590      1.008      1.730
REMARK  11 active torsions:
REMARK  status: ('A' for Active; 'I' for Inactive)
REMARK       I    between atoms: C1_4  and  N3_6 
REMARK    1  A    between atoms: N3_6  and  C2_8 
REMARK    2  A    between atoms: C5_11  and  N4_12 
REMARK    3  A    between atoms: C6_16  and  O1_17 
REMARK    4  A    between atoms: O1_17  and  C7_18 
REMARK    5  A    between atoms: C7_18  and  C8_19 
REMARK    6  A    between atoms: C7_18  and  C9_22 
REMARK    7  A    between atoms: C8_19  and  O2_20 
REMARK    8  A    between atoms: C9_22  and  S1_23 
REMARK    9  A    between atoms: S1_23  and  C10_24 
REMARK   10  A    between atoms: C12_28  and  N6_29 
REMARK   11  A    between atoms: C13_34  and  N8_35 
ROOT
HETATM    1  C7  UNL     1      41.710  33.163  22.813  1.00  0.00     0.155 C 
ENDROOT
BRANCH   1   2
HETATM    2  O1  UNL     1      40.667  32.945  21.967  1.00  0.00    -0.376 OA
BRANCH   2   3
HETATM    3  C6  UNL     1      39.465  32.591  22.531  1.00  0.00     0.154 C 
HETATM    4  C5  UNL     1      38.427  33.630  22.263  1.00  0.00     0.212 C 
HETATM    5  C4  UNL     1      37.130  33.338  22.999  1.00  0.00     0.037 C 
HETATM    6  C3  UNL     1      37.108  31.858  23.329  1.00  0.00     0.027 C 
HETATM    7  C2  UNL     1      37.502  31.082  22.121  1.00  0.00     0.086 C 
HETATM    8  C15 UNL     1      38.968  31.285  21.828  1.00  0.00     0.059 C 
BRANCH   4   9
HETATM    9  N4  UNL     1      38.856  34.946  22.572  1.00  0.00    -0.073 N 
ATOM     10  H43 UNL     1      39.468  35.331  21.852  1.00  0.00     0.274 HD
ATOM     11  H42 UNL     1      38.100  35.626  22.498  1.00  0.00     0.274 HD
ATOM     12  H41 UNL     1      39.292  34.952  23.494  1.00  0.00     0.274 HD
ENDBRANCH   4   9
BRANCH   7  13
HETATM   13  N3  UNL     1      37.221  29.680  22.271  1.00  0.00    -0.360 N 
HETATM   14  C1  UNL     1      36.870  28.806  21.228  1.00  0.00     0.182 C 
HETATM   15  N1  UNL     1      37.285  27.568  21.349  1.00  0.00    -0.374 N 
HETATM   16  N2  UNL     1      36.123  29.120  20.069  1.00  0.00    -0.064 NA
ATOM     17  H12 UNL     1      37.030  26.933  20.593  1.00  0.00     0.158 HD
ATOM     18  H11 UNL     1      37.824  27.342  22.185  1.00  0.00     0.158 HD
ATOM     19  H3  UNL     1      37.282  29.289  23.211  1.00  0.00     0.162 HD
ENDBRANCH   7  13
ENDBRANCH   2   3
ENDBRANCH   1   2
BRANCH   1  20
HETATM   20  C8  UNL     1      42.972  33.755  22.336  1.00  0.00     0.196 C 
BRANCH  20  21
HETATM   21  O2  UNL     1      42.812  34.657  21.253  1.00  0.00    -0.398 OA
ATOM     22  H2  UNL     1      42.184  35.350  21.418  1.00  0.00     0.209 HD
ENDBRANCH  20  21
ENDBRANCH   1  20
BRANCH   1  23
HETATM   23  C9  UNL     1      41.956  31.918  23.625  1.00  0.00     0.117 C 
BRANCH  23  24
HETATM   24  S1  UNL     1      43.221  30.887  22.962  1.00  0.00    -0.084 SA
BRANCH  24  25
HETATM   25  C10 UNL     1      43.119  30.269  21.354  1.00  0.00     0.189 A 
HETATM   26  N5  UNL     1      44.091  30.159  20.426  1.00  0.00    -0.324 N 
HETATM   27  C11 UNL     1      43.616  29.625  19.294  1.00  0.00     0.131 A 
ATOM     28  H5  UNL     1      45.060  30.445  20.567  1.00  0.00     0.169 HD
HETATM   29  C12 UNL     1      44.156  29.301  18.064  1.00  0.00     0.146 A 
HETATM   30  C14 UNL     1      42.278  29.399  19.552  1.00  0.00     0.196 A 
HETATM   31  N7  UNL     1      43.407  28.758  17.088  1.00  0.00    -0.175 N 
HETATM   32  C13 UNL     1      42.086  28.537  17.348  1.00  0.00     0.679 A 
ATOM     33  H7  UNL     1      43.813  28.520  16.183  1.00  0.00     0.186 HD
HETATM   34  N9  UNL     1      41.555  28.851  18.542  1.00  0.00    -0.168 N 
ATOM     35  H9  UNL     1      40.563  28.670  18.696  1.00  0.00     0.186 HD
HETATM   36  O3  UNL     1      42.041  29.789  20.759  1.00  0.00    -0.268 OA
BRANCH  29  37
HETATM   37  N6  UNL     1      45.408  29.537  17.885  1.00  0.00    -0.383 N 
ATOM     38  H62 UNL     1      46.081  28.774  17.821  1.00  0.00     0.157 HD
ATOM     39  H61 UNL     1      45.697  30.512  17.813  1.00  0.00     0.157 HD
ENDBRANCH  29  37
BRANCH  32  40
HETATM   40  N8  UNL     1      41.351  28.014  16.414  1.00  0.00    -0.234 N 
ATOM     41  H82 UNL     1      41.781  27.542  15.618  1.00  0.00     0.174 HD
ATOM     42  H81 UNL     1      40.337  28.087  16.495  1.00  0.00     0.174 HD
ENDBRANCH  32  40
ENDBRANCH  24  25
ENDBRANCH  23  24
ENDBRANCH   1  23
TORSDOF 11
ENDMDL
MODEL 5
REMARK VINA RESULT: -8.081876829      2.581      4.963
REMARK  11 active torsions:
REMARK  status: ('A' for Active; 'I' for Inactive)
REMARK       I    between atoms: C1_4  and  N3_6 
REMARK    1  A    between atoms: N3_6  and  C2_8 
REMARK    2  A    between atoms: C5_11  and  N4_12 
REMARK    3  A    between atoms: C6_16  and  O1_17 
REMARK    4  A    between atoms: O1_17  and  C7_18 
REMARK    5  A    between atoms: C7_18  and  C8_19 
REMARK    6  A    between atoms: C7_18  and  C9_22 
REMARK    7  A    between atoms: C8_19  and  O2_20 
REMARK    8  A    between atoms: C9_22  and  S1_23 
REMARK    9  A    between atoms: S1_23  and  C10_24 
REMARK   10  A    between atoms: C12_28  and  N6_29 
REMARK   11  A    between atoms: C13_34  and  N8_35 
ROOT
HETATM    1  C7  UNL     1      37.475  28.594  21.645  1.00  0.00     0.155 C 
ENDROOT
BRANCH   1   2
HETATM    2  O1  UNL     1      38.184  29.154  22.662  1.00  0.00    -0.376 OA
BRANCH   2   3
HETATM    3  C6  UNL     1      38.230  30.526  22.714  1.00  0.00     0.154 C 
HETATM    4  C5  UNL     1      37.803  31.020  24.057  1.00  0.00     0.212 C 
HETATM    5  C4  UNL     1      37.701  32.535  24.098  1.00  0.00     0.037 C 
HETATM    6  C3  UNL     1      38.555  33.086  22.972  1.00  0.00     0.027 C 
HETATM    7  C2  UNL     1      39.877  32.401  22.980  1.00  0.00     0.086 C 
HETATM    8  C15 UNL     1      39.722  30.967  22.541  1.00  0.00     0.059 C 
BRANCH   4   9
HETATM    9  N4  UNL     1      36.581  30.454  24.501  1.00  0.00    -0.073 N 
ATOM     10  H43 UNL     1      35.971  31.146  24.937  1.00  0.00     0.274 HD
ATOM     11  H42 UNL     1      35.973  30.193  23.725  1.00  0.00     0.274 HD
ATOM     12  H41 UNL     1      36.777  29.667  25.119  1.00  0.00     0.274 HD
ENDBRANCH   4   9
BRANCH   7  13
HETATM   13  N3  UNL     1      40.832  33.071  22.141  1.00  0.00    -0.360 N 
HETATM   14  C1  UNL     1      41.576  34.207  22.503  1.00  0.00     0.182 C 
HETATM   15  N1  UNL     1      42.782  34.292  21.993  1.00  0.00    -0.374 N 
HETATM   16  N2  UNL     1      41.167  35.257  23.355  1.00  0.00    -0.064 NA
ATOM     17  H12 UNL     1      43.322  35.116  22.255  1.00  0.00     0.158 HD
ATOM     18  H11 UNL     1      43.077  33.534  21.378  1.00  0.00     0.158 HD
ATOM     19  H3  UNL     1      40.981  32.691  21.206  1.00  0.00     0.162 HD
ENDBRANCH   7  13
ENDBRANCH   2   3
ENDBRANCH   1   2
BRANCH   1  20
HETATM   20  C8  UNL     1      36.289  27.760  21.907  1.00  0.00     0.196 C 
BRANCH  20  21
HETATM   21  O2  UNL     1      35.736  27.934  23.201  1.00  0.00    -0.398 OA
ATOM     22  H2  UNL     1      35.417  28.813  23.368  1.00  0.00     0.209 HD
ENDBRANCH  20  21
ENDBRANCH   1  20
BRANCH   1  23
HETATM   23  C9  UNL     1      38.426  27.920  20.691  1.00  0.00     0.117 C 
BRANCH  23  24
HETATM   24  S1  UNL     1      38.717  28.847  19.221  1.00  0.00    -0.084 SA
BRANCH  24  25
HETATM   25  C10 UNL     1      40.253  28.818  18.435  1.00  0.00     0.189 A 
HETATM   26  N5  UNL     1      40.562  28.381  17.197  1.00  0.00    -0.324 N 
HETATM   27  C11 UNL     1      41.870  28.525  16.950  1.00  0.00     0.131 A 
ATOM     28  H5  UNL     1      39.889  27.993  16.536  1.00  0.00     0.169 HD
HETATM   29  C12 UNL     1      42.698  28.251  15.879  1.00  0.00     0.146 A 
HETATM   30  C14 UNL     1      42.382  29.081  18.106  1.00  0.00     0.196 A 
HETATM   31  N7  UNL     1      44.017  28.513  15.923  1.00  0.00    -0.175 N 
HETATM   32  C13 UNL     1      44.518  29.061  17.067  1.00  0.00     0.679 A 
ATOM     33  H7  UNL     1      44.622  28.310  15.128  1.00  0.00     0.186 HD
HETATM   34  N9  UNL     1      43.717  29.330  18.114  1.00  0.00    -0.168 N 
ATOM     35  H9  UNL     1      44.131  29.740  18.951  1.00  0.00     0.186 HD
HETATM   36  O3  UNL     1      41.405  29.230  18.935  1.00  0.00    -0.268 OA
BRANCH  29  37
HETATM   37  N6  UNL     1      42.161  27.734  14.831  1.00  0.00    -0.383 N 
ATOM     38  H62 UNL     1      42.034  26.725  14.749  1.00  0.00     0.157 HD
ATOM     39  H61 UNL     1      41.871  28.370  14.089  1.00  0.00     0.157 HD
ENDBRANCH  29  37
BRANCH  32  40
HETATM   40  N8  UNL     1      45.789  29.320  17.125  1.00  0.00    -0.234 N 
ATOM     41  H82 UNL     1      46.142  30.055  17.738  1.00  0.00     0.174 HD
ATOM     42  H81 UNL     1      46.424  28.773  16.542  1.00  0.00     0.174 HD
ENDBRANCH  32  40
ENDBRANCH  24  25
ENDBRANCH  23  24
ENDBRANCH   1  23
TORSDOF 11
ENDMDL
