MODEL 1
REMARK VINA RESULT: -7.770286115      0.000      0.000
REMARK  12 active torsions:
REMARK  status: ('A' for Active; 'I' for Inactive)
REMARK    1  A    between atoms: O1_2  and  C2_3 
REMARK    2  A    between atoms: C2_3  and  C3_4 
REMARK    3  A    between atoms: C3_4  and  N1_5 
REMARK    4  A    between atoms: N1_5  and  C4_7 
REMARK    5  A    between atoms: C5_10  and  N3_11 
REMARK    6  A    between atoms: C7_17  and  C8_18 
REMARK    7  A    between atoms: C8_18  and  C9_19 
REMARK    8  A    between atoms: C9_19  and  N5_20 
REMARK    9  A    between atoms: N5_20  and  C10_22 
REMARK   10  A    between atoms: C15_31  and  C16_32 
REMARK   11  A    between atoms: C16_32  and  N8_33 
REMARK   12  A    between atoms: C16_32  and  N9_37 
ROOT
HETATM    1  C4  UNL     1      39.868  32.282  21.840  1.00  0.00     0.135 A 
HETATM    2  N2  UNL     1      38.910  32.775  22.646  1.00  0.00    -0.176 N 
ATOM      3  H2  UNL     1      39.148  33.551  23.263  1.00  0.00     0.186 HD
HETATM    4  C5  UNL     1      37.637  32.288  22.679  1.00  0.00     0.677 A 
HETATM    5  N4  UNL     1      37.259  31.272  21.898  1.00  0.00    -0.191 N 
ATOM      6  H4  UNL     1      36.306  30.910  21.926  1.00  0.00     0.184 HD
HETATM    7  C6  UNL     1      38.197  30.739  21.063  1.00  0.00     0.071 A 
HETATM    8  C7  UNL     1      37.857  29.678  20.231  1.00  0.00    -0.028 A 
HETATM    9  C14 UNL     1      38.798  29.125  19.387  1.00  0.00     0.022 A 
HETATM   10  C15 UNL     1      40.093  29.594  19.331  1.00  0.00     0.025 A 
HETATM   11  C17 UNL     1      40.433  30.645  20.152  1.00  0.00     0.072 A 
HETATM   12  N10 UNL     1      41.738  31.145  20.118  1.00  0.00    -0.101 NA
HETATM   13  C18 UNL     1      39.479  31.204  21.007  1.00  0.00     0.061 A 
ENDROOT
BRANCH   8  14
HETATM   14  C8  UNL     1      36.454  29.191  20.264  1.00  0.00     0.061 C 
BRANCH  14  15
HETATM   15  C9  UNL     1      36.392  27.768  20.811  1.00  0.00     0.142 C 
BRANCH  15  16
HETATM   16  N5  UNL     1      35.729  27.750  22.095  1.00  0.00    -0.226 N 
ATOM     17  H5  UNL     1      34.775  27.395  22.160  1.00  0.00     0.177 HD
BRANCH  16  18
HETATM   18  C10 UNL     1      36.390  28.223  23.281  1.00  0.00     0.669 C 
HETATM   19  N6  UNL     1      37.663  28.114  23.424  1.00  0.00    -0.227 N 
HETATM   20  C11 UNL     1      38.325  28.585  24.607  1.00  0.00     0.139 C 
ATOM     21  H6  UNL     1      38.214  27.684  22.681  1.00  0.00     0.177 HD
HETATM   22  C12 UNL     1      37.681  29.731  25.304  1.00  0.00     0.040 C 
HETATM   23  C13 UNL     1      36.210  29.879  25.092  1.00  0.00     0.139 C 
HETATM   24  N7  UNL     1      35.638  28.820  24.307  1.00  0.00    -0.227 N 
ATOM     25  H7  UNL     1      34.687  28.503  24.495  1.00  0.00     0.177 HD
ENDBRANCH  16  18
ENDBRANCH  15  16
ENDBRANCH  14  15
ENDBRANCH   8  14
BRANCH  10  26
HETATM   26  C16 UNL     1      41.125  29.025  18.439  1.00  0.00     0.413 C 
BRANCH  26  27
HETATM   27  N8  UNL     1      40.568  28.212  17.397  1.00  0.00    -0.046 N 
ATOM     28  H83 UNL     1      39.629  27.899  17.639  1.00  0.00     0.277 HD
ATOM     29  H82 UNL     1      40.347  28.773  16.573  1.00  0.00     0.277 HD
ATOM     30  H81 UNL     1      41.165  27.423  17.152  1.00  0.00     0.277 HD
ENDBRANCH  26  27
BRANCH  26  31
HETATM   31  N9  UNL     1      42.183  28.363  19.169  1.00  0.00    -0.046 N 
ATOM     32  H93 UNL     1      42.568  28.972  19.891  1.00  0.00     0.277 HD
ATOM     33  H92 UNL     1      41.811  27.622  19.762  1.00  0.00     0.277 HD
ATOM     34  H91 UNL     1      42.917  28.009  18.556  1.00  0.00     0.277 HD
ENDBRANCH  26  31
ENDBRANCH  10  26
BRANCH   4  35
HETATM   35  N3  UNL     1      36.801  32.844  23.496  1.00  0.00    -0.234 N 
ATOM     36  H32 UNL     1      35.991  33.357  23.146  1.00  0.00     0.174 HD
ATOM     37  H31 UNL     1      36.981  32.750  24.495  1.00  0.00     0.174 HD
ENDBRANCH   4  35
BRANCH   1  38
HETATM   38  N1  UNL     1      41.042  32.657  21.734  1.00  0.00    -0.353 N 
ATOM     39  H1  UNL     1      41.428  32.282  20.867  1.00  0.00     0.166 HD
BRANCH  38  40
HETATM   40  C3  UNL     1      42.013  33.395  22.362  1.00  0.00     0.088 C 
BRANCH  40  41
HETATM   41  C2  UNL     1      42.033  34.883  22.252  1.00  0.00     0.211 C 
BRANCH  41  42
HETATM   42  O1  UNL     1      40.692  35.308  22.440  1.00  0.00    -0.391 OA
HETATM   43  C1  UNL     1      40.567  35.861  23.714  1.00  0.00     0.201 C 
ENDBRANCH  41  42
ENDBRANCH  40  41
ENDBRANCH  38  40
ENDBRANCH   1  38
TORSDOF 12
ENDMDL
MODEL 2
REMARK VINA RESULT: -7.650587545      1.039      1.440
REMARK  12 active torsions:
REMARK  status: ('A' for Active; 'I' for Inactive)
REMARK    1  A    between atoms: O1_2  and  C2_3 
REMARK    2  A    between atoms: C2_3  and  C3_4 
REMARK    3  A    between atoms: C3_4  and  N1_5 
REMARK    4  A    between atoms: N1_5  and  C4_7 
REMARK    5  A    between atoms: C5_10  and  N3_11 
REMARK    6  A    between atoms: C7_17  and  C8_18 
REMARK    7  A    between atoms: C8_18  and  C9_19 
REMARK    8  A    between atoms: C9_19  and  N5_20 
REMARK    9  A    between atoms: N5_20  and  C10_22 
REMARK   10  A    between atoms: C15_31  and  C16_32 
REMARK   11  A    between atoms: C16_32  and  N8_33 
REMARK   12  A    between atoms: C16_32  and  N9_37 
ROOT
HETATM    1  C4  UNL     1      39.917  32.361  21.901  1.00  0.00     0.135 A 
HETATM    2  N2  UNL     1      38.962  32.875  22.697  1.00  0.00    -0.176 N 
ATOM      3  H2  UNL     1      39.209  33.652  23.309  1.00  0.00     0.186 HD
HETATM    4  C5  UNL     1      37.682  32.409  22.727  1.00  0.00     0.677 A 
HETATM    5  N4  UNL     1      37.291  31.392  21.953  1.00  0.00    -0.191 N 
ATOM      6  H4  UNL     1      36.333  31.045  21.978  1.00  0.00     0.184 HD
HETATM    7  C6  UNL     1      38.225  30.837  21.127  1.00  0.00     0.071 A 
HETATM    8  C7  UNL     1      37.873  29.775  20.302  1.00  0.00    -0.028 A 
HETATM    9  C14 UNL     1      38.810  29.201  19.468  1.00  0.00     0.022 A 
HETATM   10  C15 UNL     1      40.112  29.649  19.414  1.00  0.00     0.025 A 
HETATM   11  C17 UNL     1      40.464  30.701  20.229  1.00  0.00     0.072 A 
HETATM   12  N10 UNL     1      41.777  31.180  20.198  1.00  0.00    -0.101 NA
HETATM   13  C18 UNL     1      39.515  31.282  21.074  1.00  0.00     0.061 A 
ENDROOT
BRANCH   8  14
HETATM   14  C8  UNL     1      36.463  29.311  20.332  1.00  0.00     0.061 C 
BRANCH  14  15
HETATM   15  C9  UNL     1      36.384  27.861  20.803  1.00  0.00     0.142 C 
BRANCH  15  16
HETATM   16  N5  UNL     1      35.746  27.786  22.097  1.00  0.00    -0.226 N 
ATOM     17  H5  UNL     1      34.809  27.390  22.170  1.00  0.00     0.177 HD
BRANCH  16  18
HETATM   18  C10 UNL     1      36.409  28.259  23.282  1.00  0.00     0.669 C 
HETATM   19  N6  UNL     1      37.680  28.138  23.429  1.00  0.00    -0.227 N 
HETATM   20  C11 UNL     1      38.344  28.609  24.611  1.00  0.00     0.139 C 
ATOM     21  H6  UNL     1      38.228  27.698  22.690  1.00  0.00     0.177 HD
HETATM   22  C12 UNL     1      37.711  29.766  25.299  1.00  0.00     0.040 C 
HETATM   23  C13 UNL     1      36.242  29.928  25.082  1.00  0.00     0.139 C 
HETATM   24  N7  UNL     1      35.660  28.871  24.303  1.00  0.00    -0.227 N 
ATOM     25  H7  UNL     1      34.706  28.564  24.490  1.00  0.00     0.177 HD
ENDBRANCH  16  18
ENDBRANCH  15  16
ENDBRANCH  14  15
ENDBRANCH   8  14
BRANCH  10  26
HETATM   26  C16 UNL     1      41.140  29.056  18.533  1.00  0.00     0.413 C 
BRANCH  26  27
HETATM   27  N8  UNL     1      40.574  28.278  17.469  1.00  0.00    -0.046 N 
ATOM     28  H83 UNL     1      39.969  27.543  17.835  1.00  0.00     0.277 HD
ATOM     29  H82 UNL     1      39.882  28.817  16.949  1.00  0.00     0.277 HD
ATOM     30  H81 UNL     1      41.281  27.892  16.845  1.00  0.00     0.277 HD
ENDBRANCH  26  27
BRANCH  26  31
HETATM   31  N9  UNL     1      42.160  28.347  19.272  1.00  0.00    -0.046 N 
ATOM     32  H93 UNL     1      42.556  28.933  20.007  1.00  0.00     0.277 HD
ATOM     33  H92 UNL     1      41.751  27.614  19.850  1.00  0.00     0.277 HD
ATOM     34  H91 UNL     1      42.891  27.973  18.666  1.00  0.00     0.277 HD
ENDBRANCH  26  31
ENDBRANCH  10  26
BRANCH   4  35
HETATM   35  N3  UNL     1      36.850  32.984  23.535  1.00  0.00    -0.234 N 
ATOM     36  H32 UNL     1      36.922  33.982  23.736  1.00  0.00     0.174 HD
ATOM     37  H31 UNL     1      36.125  32.407  23.959  1.00  0.00     0.174 HD
ENDBRANCH   4  35
BRANCH   1  38
HETATM   38  N1  UNL     1      41.097  32.716  21.797  1.00  0.00    -0.353 N 
ATOM     39  H1  UNL     1      41.576  32.077  21.162  1.00  0.00     0.166 HD
BRANCH  38  40
HETATM   40  C3  UNL     1      41.994  33.659  22.230  1.00  0.00     0.088 C 
BRANCH  40  41
HETATM   41  C2  UNL     1      43.218  33.261  22.984  1.00  0.00     0.211 C 
BRANCH  41  42
HETATM   42  O1  UNL     1      44.159  32.837  22.009  1.00  0.00    -0.391 OA
HETATM   43  C1  UNL     1      44.841  31.723  22.494  1.00  0.00     0.201 C 
ENDBRANCH  41  42
ENDBRANCH  40  41
ENDBRANCH  38  40
ENDBRANCH   1  38
TORSDOF 12
ENDMDL
MODEL 3
REMARK VINA RESULT: -7.333718213      2.292      6.060
REMARK  12 active torsions:
REMARK  status: ('A' for Active; 'I' for Inactive)
REMARK    1  A    between atoms: O1_2  and  C2_3 
REMARK    2  A    between atoms: C2_3  and  C3_4 
REMARK    3  A    between atoms: C3_4  and  N1_5 
REMARK    4  A    between atoms: N1_5  and  C4_7 
REMARK    5  A    between atoms: C5_10  and  N3_11 
REMARK    6  A    between atoms: C7_17  and  C8_18 
REMARK    7  A    between atoms: C8_18  and  C9_19 
REMARK    8  A    between atoms: C9_19  and  N5_20 
REMARK    9  A    between atoms: N5_20  and  C10_22 
REMARK   10  A    between atoms: C15_31  and  C16_32 
REMARK   11  A    between atoms: C16_32  and  N8_33 
REMARK   12  A    between atoms: C16_32  and  N9_37 
ROOT
HETATM    1  C4  UNL     1      37.558  29.524  22.123  1.00  0.00     0.135 A 
HETATM    2  N2  UNL     1      36.490  28.863  21.641  1.00  0.00    -0.176 N 
ATOM      3  H2  UNL     1      35.686  28.730  22.254  1.00  0.00     0.186 HD
HETATM    4  C5  UNL     1      36.429  28.362  20.375  1.00  0.00     0.677 A 
HETATM    5  N4  UNL     1      37.447  28.499  19.521  1.00  0.00    -0.191 N 
ATOM      6  H4  UNL     1      37.399  28.123  18.575  1.00  0.00     0.184 HD
HETATM    7  C6  UNL     1      38.554  29.163  19.964  1.00  0.00     0.071 A 
HETATM    8  C7  UNL     1      39.643  29.332  19.118  1.00  0.00    -0.028 A 
HETATM    9  C14 UNL     1      40.771  29.995  19.556  1.00  0.00     0.022 A 
HETATM   10  C15 UNL     1      40.864  30.513  20.830  1.00  0.00     0.025 A 
HETATM   11  C17 UNL     1      39.787  30.349  21.671  1.00  0.00     0.072 A 
HETATM   12  N10 UNL     1      39.848  30.863  22.969  1.00  0.00    -0.101 NA
HETATM   13  C18 UNL     1      38.645  29.677  21.226  1.00  0.00     0.061 A 
ENDROOT
BRANCH   8  14
HETATM   14  C8  UNL     1      39.535  28.805  17.733  1.00  0.00     0.061 C 
BRANCH  14  15
HETATM   15  C9  UNL     1      40.669  29.341  16.864  1.00  0.00     0.142 C 
BRANCH  15  16
HETATM   16  N5  UNL     1      41.625  28.296  16.582  1.00  0.00    -0.226 N 
ATOM     17  H5  UNL     1      41.330  27.478  16.049  1.00  0.00     0.177 HD
BRANCH  16  18
HETATM   18  C10 UNL     1      42.985  28.387  17.041  1.00  0.00     0.669 C 
HETATM   19  N6  UNL     1      43.926  28.790  16.263  1.00  0.00    -0.227 N 
HETATM   20  C11 UNL     1      45.284  28.882  16.718  1.00  0.00     0.139 C 
ATOM     21  H6  UNL     1      43.703  29.050  15.303  1.00  0.00     0.177 HD
HETATM   22  C12 UNL     1      45.470  29.153  18.170  1.00  0.00     0.040 C 
HETATM   23  C13 UNL     1      44.349  28.726  19.060  1.00  0.00     0.139 C 
HETATM   24  N7  UNL     1      43.300  28.035  18.365  1.00  0.00    -0.227 N 
ATOM     25  H7  UNL     1      42.783  27.289  18.832  1.00  0.00     0.177 HD
ENDBRANCH  16  18
ENDBRANCH  15  16
ENDBRANCH  14  15
ENDBRANCH   8  14
BRANCH  10  26
HETATM   26  C16 UNL     1      42.056  31.228  21.332  1.00  0.00     0.413 C 
BRANCH  26  27
HETATM   27  N8  UNL     1      42.732  30.512  22.375  1.00  0.00    -0.046 N 
ATOM     28  H83 UNL     1      42.500  30.895  23.291  1.00  0.00     0.277 HD
ATOM     29  H82 UNL     1      42.346  29.575  22.485  1.00  0.00     0.277 HD
ATOM     30  H81 UNL     1      43.742  30.478  22.238  1.00  0.00     0.277 HD
ENDBRANCH  26  27
BRANCH  26  31
HETATM   31  N9  UNL     1      41.771  32.602  21.681  1.00  0.00    -0.046 N 
ATOM     32  H93 UNL     1      40.769  32.749  21.803  1.00  0.00     0.277 HD
ATOM     33  H92 UNL     1      42.083  32.811  22.629  1.00  0.00     0.277 HD
ATOM     34  H91 UNL     1      42.161  33.264  21.011  1.00  0.00     0.277 HD
ENDBRANCH  26  31
ENDBRANCH  10  26
BRANCH   4  35
HETATM   35  N3  UNL     1      35.347  27.744  20.023  1.00  0.00    -0.234 N 
ATOM     36  H32 UNL     1      34.511  27.782  20.606  1.00  0.00     0.174 HD
ATOM     37  H31 UNL     1      35.363  27.223  19.147  1.00  0.00     0.174 HD
ENDBRANCH   4  35
BRANCH   1  38
HETATM   38  N1  UNL     1      37.706  30.018  23.247  1.00  0.00    -0.353 N 
ATOM     39  H1  UNL     1      38.676  29.888  23.536  1.00  0.00     0.166 HD
BRANCH  38  40
HETATM   40  C3  UNL     1      37.036  30.679  24.245  1.00  0.00     0.088 C 
BRANCH  40  41
HETATM   41  C2  UNL     1      36.823  32.153  24.177  1.00  0.00     0.211 C 
BRANCH  41  42
HETATM   42  O1  UNL     1      36.802  32.484  22.798  1.00  0.00    -0.391 OA
HETATM   43  C1  UNL     1      37.255  33.792  22.639  1.00  0.00     0.201 C 
ENDBRANCH  41  42
ENDBRANCH  40  41
ENDBRANCH  38  40
ENDBRANCH   1  38
TORSDOF 12
ENDMDL
MODEL 4
REMARK VINA RESULT: -7.252467065      2.439      5.591
REMARK  12 active torsions:
REMARK  status: ('A' for Active; 'I' for Inactive)
REMARK    1  A    between atoms: O1_2  and  C2_3 
REMARK    2  A    between atoms: C2_3  and  C3_4 
REMARK    3  A    between atoms: C3_4  and  N1_5 
REMARK    4  A    between atoms: N1_5  and  C4_7 
REMARK    5  A    between atoms: C5_10  and  N3_11 
REMARK    6  A    between atoms: C7_17  and  C8_18 
REMARK    7  A    between atoms: C8_18  and  C9_19 
REMARK    8  A    between atoms: C9_19  and  N5_20 
REMARK    9  A    between atoms: N5_20  and  C10_22 
REMARK   10  A    between atoms: C15_31  and  C16_32 
REMARK   11  A    between atoms: C16_32  and  N8_33 
REMARK   12  A    between atoms: C16_32  and  N9_37 
ROOT
HETATM    1  C4  UNL     1      41.484  30.163  20.298  1.00  0.00     0.135 A 
HETATM    2  N2  UNL     1      42.371  30.989  20.882  1.00  0.00    -0.176 N 
ATOM      3  H2  UNL     1      43.332  30.989  20.539  1.00  0.00     0.186 HD
HETATM    4  C5  UNL     1      42.051  31.824  21.911  1.00  0.00     0.677 A 
HETATM    5  N4  UNL     1      40.813  31.872  22.410  1.00  0.00    -0.191 N 
ATOM      6  H4  UNL     1      40.576  32.497  23.180  1.00  0.00     0.184 HD
HETATM    7  C6  UNL     1      39.877  31.053  21.850  1.00  0.00     0.071 A 
HETATM    8  C7  UNL     1      38.574  31.060  22.333  1.00  0.00    -0.028 A 
HETATM    9  C14 UNL     1      37.620  30.231  21.779  1.00  0.00     0.022 A 
HETATM   10  C15 UNL     1      37.912  29.375  20.739  1.00  0.00     0.025 A 
HETATM   11  C17 UNL     1      39.201  29.365  20.257  1.00  0.00     0.072 A 
HETATM   12  N10 UNL     1      39.530  28.509  19.202  1.00  0.00    -0.101 NA
HETATM   13  C18 UNL     1      40.167  30.205  20.819  1.00  0.00     0.061 A 
ENDROOT
BRANCH   8  14
HETATM   14  C8  UNL     1      38.246  32.005  23.431  1.00  0.00     0.061 C 
BRANCH  14  15
HETATM   15  C9  UNL     1      37.110  32.937  23.017  1.00  0.00     0.142 C 
BRANCH  15  16
HETATM   16  N5  UNL     1      37.636  34.213  22.590  1.00  0.00    -0.226 N 
ATOM     17  H5  UNL     1      37.196  34.699  21.809  1.00  0.00     0.177 HD
BRANCH  16  18
HETATM   18  C10 UNL     1      38.769  34.809  23.246  1.00  0.00     0.669 C 
HETATM   19  N6  UNL     1      39.831  35.120  22.592  1.00  0.00    -0.227 N 
HETATM   20  C11 UNL     1      40.963  35.715  23.244  1.00  0.00     0.139 C 
ATOM     21  H6  UNL     1      39.870  34.940  21.590  1.00  0.00     0.177 HD
HETATM   22  C12 UNL     1      40.664  36.542  24.445  1.00  0.00     0.040 C 
HETATM   23  C13 UNL     1      39.402  36.206  25.170  1.00  0.00     0.139 C 
HETATM   24  N7  UNL     1      38.719  35.065  24.627  1.00  0.00    -0.227 N 
ATOM     25  H7  UNL     1      38.200  34.440  25.244  1.00  0.00     0.177 HD
ENDBRANCH  16  18
ENDBRANCH  15  16
ENDBRANCH  14  15
ENDBRANCH   8  14
BRANCH  10  26
HETATM   26  C16 UNL     1      36.915  28.474  20.123  1.00  0.00     0.413 C 
BRANCH  26  27
HETATM   27  N8  UNL     1      35.629  29.092  19.974  1.00  0.00    -0.046 N 
ATOM     28  H83 UNL     1      35.723  30.083  19.750  1.00  0.00     0.277 HD
ATOM     29  H82 UNL     1      35.167  28.774  19.123  1.00  0.00     0.277 HD
ATOM     30  H81 UNL     1      35.031  28.957  20.788  1.00  0.00     0.277 HD
ENDBRANCH  26  27
BRANCH  26  31
HETATM   31  N9  UNL     1      36.852  27.188  20.781  1.00  0.00    -0.046 N 
ATOM     32  H93 UNL     1      36.954  26.427  20.110  1.00  0.00     0.277 HD
ATOM     33  H92 UNL     1      37.686  27.022  21.343  1.00  0.00     0.277 HD
ATOM     34  H91 UNL     1      36.005  27.076  21.338  1.00  0.00     0.277 HD
ENDBRANCH  26  31
ENDBRANCH  10  26
BRANCH   4  35
HETATM   35  N3  UNL     1      42.990  32.574  22.392  1.00  0.00    -0.234 N 
ATOM     36  H32 UNL     1      43.972  32.332  22.259  1.00  0.00     0.174 HD
ATOM     37  H31 UNL     1      42.712  33.410  22.906  1.00  0.00     0.174 HD
ENDBRANCH   4  35
BRANCH   1  38
HETATM   38  N1  UNL     1      41.675  29.378  19.361  1.00  0.00    -0.353 N 
ATOM     39  H1  UNL     1      40.932  28.679  19.364  1.00  0.00     0.166 HD
BRANCH  38  40
HETATM   40  C3  UNL     1      42.526  29.108  18.320  1.00  0.00     0.088 C 
BRANCH  40  41
HETATM   41  C2  UNL     1      42.714  30.089  17.212  1.00  0.00     0.211 C 
BRANCH  41  42
HETATM   42  O1  UNL     1      44.090  30.434  17.222  1.00  0.00    -0.391 OA
HETATM   43  C1  UNL     1      44.830  29.329  17.640  1.00  0.00     0.201 C 
ENDBRANCH  41  42
ENDBRANCH  40  41
ENDBRANCH  38  40
ENDBRANCH   1  38
TORSDOF 12
ENDMDL
MODEL 5
REMARK VINA RESULT: -7.080099231      2.806      5.358
REMARK  12 active torsions:
REMARK  status: ('A' for Active; 'I' for Inactive)
REMARK    1  A    between atoms: O1_2  and  C2_3 
REMARK    2  A    between atoms: C2_3  and  C3_4 
REMARK    3  A    between atoms: C3_4  and  N1_5 
REMARK    4  A    between atoms: N1_5  and  C4_7 
REMARK    5  A    between atoms: C5_10  and  N3_11 
REMARK    6  A    between atoms: C7_17  and  C8_18 
REMARK    7  A    between atoms: C8_18  and  C9_19 
REMARK    8  A    between atoms: C9_19  and  N5_20 
REMARK    9  A    between atoms: N5_20  and  C10_22 
REMARK   10  A    between atoms: C15_31  and  C16_32 
REMARK   11  A    between atoms: C16_32  and  N8_33 
REMARK   12  A    between atoms: C16_32  and  N9_37 
ROOT
HETATM    1  C4  UNL     1      42.236  29.673  19.723  1.00  0.00     0.135 A 
HETATM    2  N2  UNL     1      41.236  29.070  19.054  1.00  0.00    -0.176 N 
ATOM      3  H2  UNL     1      41.465  28.553  18.205  1.00  0.00     0.186 HD
HETATM    4  C5  UNL     1      39.934  29.117  19.453  1.00  0.00     0.677 A 
HETATM    5  N4  UNL     1      39.565  29.778  20.553  1.00  0.00    -0.191 N 
ATOM      6  H4  UNL     1      38.590  29.812  20.849  1.00  0.00     0.184 HD
HETATM    7  C6  UNL     1      40.544  30.407  21.266  1.00  0.00     0.071 A 
HETATM    8  C7  UNL     1      40.216  31.112  22.418  1.00  0.00    -0.028 A 
HETATM    9  C14 UNL     1      41.196  31.757  23.144  1.00  0.00     0.022 A 
HETATM   10  C15 UNL     1      42.521  31.729  22.767  1.00  0.00     0.025 A 
HETATM   11  C17 UNL     1      42.851  31.031  21.627  1.00  0.00     0.072 A 
HETATM   12  N10 UNL     1      44.186  30.982  21.218  1.00  0.00    -0.101 NA
HETATM   13  C18 UNL     1      41.857  30.378  20.893  1.00  0.00     0.061 A 
ENDROOT
BRANCH   8  14
HETATM   14  C8  UNL     1      38.794  31.117  22.847  1.00  0.00     0.061 C 
BRANCH  14  15
HETATM   15  C9  UNL     1      38.678  30.761  24.327  1.00  0.00     0.142 C 
BRANCH  15  16
HETATM   16  N5  UNL     1      38.503  29.336  24.490  1.00  0.00    -0.226 N 
ATOM     17  H5  UNL     1      39.108  28.829  25.136  1.00  0.00     0.177 HD
BRANCH  16  18
HETATM   18  C10 UNL     1      37.493  28.621  23.758  1.00  0.00     0.669 C 
HETATM   19  N6  UNL     1      36.242  28.833  23.966  1.00  0.00    -0.227 N 
HETATM   20  C11 UNL     1      35.232  28.120  23.237  1.00  0.00     0.139 C 
ATOM     21  H6  UNL     1      35.962  29.521  24.664  1.00  0.00     0.177 HD
HETATM   22  C12 UNL     1      35.605  27.680  21.865  1.00  0.00     0.040 C 
HETATM   23  C13 UNL     1      37.065  27.485  21.618  1.00  0.00     0.139 C 
HETATM   24  N7  UNL     1      37.872  27.673  22.791  1.00  0.00    -0.227 N 
ATOM     25  H7  UNL     1      38.719  27.120  22.922  1.00  0.00     0.177 HD
ENDBRANCH  16  18
ENDBRANCH  15  16
ENDBRANCH  14  15
ENDBRANCH   8  14
BRANCH  10  26
HETATM   26  C16 UNL     1      43.595  32.409  23.521  1.00  0.00     0.413 C 
BRANCH  26  27
HETATM   27  N8  UNL     1      44.190  33.487  22.785  1.00  0.00    -0.046 N 
ATOM     28  H83 UNL     1      44.242  33.266  21.791  1.00  0.00     0.277 HD
ATOM     29  H82 UNL     1      43.564  34.291  22.743  1.00  0.00     0.277 HD
ATOM     30  H81 UNL     1      45.104  33.754  23.149  1.00  0.00     0.277 HD
ENDBRANCH  26  27
BRANCH  26  31
HETATM   31  N9  UNL     1      44.569  31.482  24.053  1.00  0.00    -0.046 N 
ATOM     32  H93 UNL     1      44.113  30.694  24.513  1.00  0.00     0.277 HD
ATOM     33  H92 UNL     1      45.046  30.981  23.305  1.00  0.00     0.277 HD
ATOM     34  H91 UNL     1      45.237  31.935  24.676  1.00  0.00     0.277 HD
ENDBRANCH  26  31
ENDBRANCH  10  26
BRANCH   4  35
HETATM   35  N3  UNL     1      39.059  28.497  18.727  1.00  0.00    -0.234 N 
ATOM     36  H32 UNL     1      38.061  28.610  18.902  1.00  0.00     0.174 HD
ATOM     37  H31 UNL     1      39.404  27.897  17.979  1.00  0.00     0.174 HD
ENDBRANCH   4  35
BRANCH   1  38
HETATM   38  N1  UNL     1      43.441  29.683  19.446  1.00  0.00    -0.353 N 
ATOM     39  H1  UNL     1      43.894  30.421  19.986  1.00  0.00     0.166 HD
BRANCH  38  40
HETATM   40  C3  UNL     1      44.389  29.060  18.675  1.00  0.00     0.088 C 
BRANCH  40  41
HETATM   41  C2  UNL     1      44.274  29.042  17.188  1.00  0.00     0.211 C 
BRANCH  41  42
HETATM   42  O1  UNL     1      43.378  27.986  16.877  1.00  0.00    -0.391 OA
HETATM   43  C1  UNL     1      42.621  28.348  15.764  1.00  0.00     0.201 C 
ENDBRANCH  41  42
ENDBRANCH  40  41
ENDBRANCH  38  40
ENDBRANCH   1  38
TORSDOF 12
ENDMDL
