MODEL 1
REMARK VINA RESULT: -6.248281465      0.000      0.000
REMARK  1 active torsions:
REMARK  status: ('A' for Active; 'I' for Inactive)
REMARK    1  A    between atoms: N1_1  and  C1_4 
REMARK       I    between atoms: N3_9  and  C3_10 
REMARK       I    between atoms: C3_10  and  N4_11 
REMARK       I    between atoms: C3_10  and  N5_15 
ROOT
HETATM    1  C1  UNL     1      39.386  31.715  48.193  1.00  0.00     0.683 A 
HETATM    2  N2  UNL     1      39.746  31.439  49.454  1.00  0.00    -0.141 N 
ATOM      3  H2  UNL     1      40.712  31.581  49.748  1.00  0.00     0.189 HD
HETATM    4  C2  UNL     1      38.828  30.968  50.346  1.00  0.00     0.347 A 
HETATM    5  O1  UNL     1      39.176  30.713  51.523  1.00  0.00    -0.246 OA
HETATM    6  N3  UNL     1      37.552  30.772  49.986  1.00  0.00    -0.197 N 
HETATM    7  C3  UNL     1      36.566  30.274  50.918  1.00  0.00     0.494 C 
HETATM    8  N4  UNL     1      37.185  29.622  52.057  1.00  0.00    -0.032 N 
ATOM      9  H41 UNL     1      36.490  29.270  52.715  1.00  0.00     0.279 HD
ATOM     10  H42 UNL     1      37.856  30.237  52.518  1.00  0.00     0.279 HD
ATOM     11  H43 UNL     1      37.823  28.883  51.761  1.00  0.00     0.279 HD
HETATM   12  N5  UNL     1      35.635  29.360  50.339  1.00  0.00    -0.032 N 
ATOM     13  H51 UNL     1      34.939  29.009  50.997  1.00  0.00     0.279 HD
ATOM     14  H52 UNL     1      36.124  28.587  49.888  1.00  0.00     0.279 HD
ATOM     15  H53 UNL     1      35.182  29.776  49.525  1.00  0.00     0.279 HD
HETATM   16  C4  UNL     1      37.192  31.045  48.735  1.00  0.00     0.347 A 
HETATM   17  O2  UNL     1      36.018  30.881  48.344  1.00  0.00    -0.246 OA
HETATM   18  N6  UNL     1      38.103  31.516  47.833  1.00  0.00    -0.141 N 
ATOM     19  H6  UNL     1      37.809  31.720  46.878  1.00  0.00     0.189 HD
ENDROOT
BRANCH   1  20
HETATM   20  N1  UNL     1      40.236  32.157  47.346  1.00  0.00    -0.234 N 
ATOM     21  H12 UNL     1      40.655  33.079  47.466  1.00  0.00     0.174 HD
ATOM     22  H11 UNL     1      40.512  31.599  46.538  1.00  0.00     0.174 HD
ENDBRANCH   1  20
TORSDOF 1
ENDMDL
MODEL 2
REMARK VINA RESULT: -6.230407705      0.571      2.500
REMARK  1 active torsions:
REMARK  status: ('A' for Active; 'I' for Inactive)
REMARK    1  A    between atoms: N1_1  and  C1_4 
REMARK       I    between atoms: N3_9  and  C3_10 
REMARK       I    between atoms: C3_10  and  N4_11 
REMARK       I    between atoms: C3_10  and  N5_15 
ROOT
HETATM    1  C1  UNL     1      39.466  31.877  48.625  1.00  0.00     0.683 A 
HETATM    2  N2  UNL     1      38.322  31.584  47.992  1.00  0.00    -0.141 N 
ATOM      3  H2  UNL     1      38.177  31.902  47.034  1.00  0.00     0.189 HD
HETATM    4  C2  UNL     1      37.350  30.865  48.622  1.00  0.00     0.347 A 
HETATM    5  O1  UNL     1      36.283  30.598  48.020  1.00  0.00    -0.246 OA
HETATM    6  N3  UNL     1      37.514  30.435  49.881  1.00  0.00    -0.197 N 
HETATM    7  C3  UNL     1      36.494  29.671  50.563  1.00  0.00     0.494 C 
HETATM    8  N4  UNL     1      35.196  29.826  49.933  1.00  0.00    -0.032 N 
ATOM      9  H41 UNL     1      34.476  29.287  50.415  1.00  0.00     0.279 HD
ATOM     10  H42 UNL     1      35.234  29.593  48.941  1.00  0.00     0.279 HD
ATOM     11  H43 UNL     1      34.935  30.809  49.856  1.00  0.00     0.279 HD
HETATM   12  N5  UNL     1      36.356  30.000  51.945  1.00  0.00    -0.032 N 
ATOM     13  H51 UNL     1      35.636  29.461  52.427  1.00  0.00     0.279 HD
ATOM     14  H52 UNL     1      36.193  31.000  52.062  1.00  0.00     0.279 HD
ATOM     15  H53 UNL     1      37.252  29.914  52.426  1.00  0.00     0.279 HD
HETATM   16  C4  UNL     1      38.649  30.724  50.511  1.00  0.00     0.347 A 
HETATM   17  O2  UNL     1      38.856  30.350  51.684  1.00  0.00    -0.246 OA
HETATM   18  N6  UNL     1      39.629  31.444  49.891  1.00  0.00    -0.141 N 
ATOM     19  H6  UNL     1      40.492  31.657  50.390  1.00  0.00     0.189 HD
ENDROOT
BRANCH   1  20
HETATM   20  N1  UNL     1      40.387  32.551  48.047  1.00  0.00    -0.234 N 
ATOM     21  H12 UNL     1      40.413  32.625  47.029  1.00  0.00     0.174 HD
ATOM     22  H11 UNL     1      41.109  33.026  48.587  1.00  0.00     0.174 HD
ENDBRANCH   1  20
TORSDOF 1
ENDMDL
MODEL 3
REMARK VINA RESULT: -5.704850610      1.868      3.478
REMARK  1 active torsions:
REMARK  status: ('A' for Active; 'I' for Inactive)
REMARK    1  A    between atoms: N1_1  and  C1_4 
REMARK       I    between atoms: N3_9  and  C3_10 
REMARK       I    between atoms: C3_10  and  N4_11 
REMARK       I    between atoms: C3_10  and  N5_15 
ROOT
HETATM    1  C1  UNL     1      38.888  29.813  51.586  1.00  0.00     0.683 A 
HETATM    2  N2  UNL     1      37.595  29.463  51.571  1.00  0.00    -0.141 N 
ATOM      3  H2  UNL     1      37.245  28.786  52.248  1.00  0.00     0.189 HD
HETATM    4  C2  UNL     1      36.745  30.006  50.654  1.00  0.00     0.347 A 
HETATM    5  O1  UNL     1      35.536  29.670  50.648  1.00  0.00    -0.246 OA
HETATM    6  N3  UNL     1      37.178  30.898  49.752  1.00  0.00    -0.197 N 
HETATM    7  C3  UNL     1      36.290  31.484  48.774  1.00  0.00     0.494 C 
HETATM    8  N4  UNL     1      35.084  30.695  48.603  1.00  0.00    -0.032 N 
ATOM      9  H41 UNL     1      34.457  31.108  47.912  1.00  0.00     0.279 HD
ATOM     10  H42 UNL     1      34.609  30.545  49.493  1.00  0.00     0.279 HD
ATOM     11  H43 UNL     1      35.303  29.726  48.373  1.00  0.00     0.279 HD
HETATM   12  N5  UNL     1      36.885  31.663  47.489  1.00  0.00    -0.032 N 
ATOM     13  H51 UNL     1      36.259  32.076  46.798  1.00  0.00     0.279 HD
ATOM     14  H52 UNL     1      37.268  30.782  47.145  1.00  0.00     0.279 HD
ATOM     15  H53 UNL     1      37.746  32.206  47.565  1.00  0.00     0.279 HD
HETATM   16  C4  UNL     1      38.461  31.247  49.766  1.00  0.00     0.347 A 
HETATM   17  O2  UNL     1      38.920  32.073  48.950  1.00  0.00    -0.246 OA
HETATM   18  N6  UNL     1      39.322  30.710  50.679  1.00  0.00    -0.141 N 
ATOM     19  H6  UNL     1      40.303  30.989  50.674  1.00  0.00     0.189 HD
ENDROOT
BRANCH   1  20
HETATM   20  N1  UNL     1      39.698  29.312  52.441  1.00  0.00    -0.234 N 
ATOM     21  H12 UNL     1      39.789  29.722  53.370  1.00  0.00     0.174 HD
ATOM     22  H11 UNL     1      40.264  28.495  52.212  1.00  0.00     0.174 HD
ENDBRANCH   1  20
TORSDOF 1
ENDMDL
MODEL 4
REMARK VINA RESULT: -4.929355910      2.029      3.442
REMARK  1 active torsions:
REMARK  status: ('A' for Active; 'I' for Inactive)
REMARK    1  A    between atoms: N1_1  and  C1_4 
REMARK       I    between atoms: N3_9  and  C3_10 
REMARK       I    between atoms: C3_10  and  N4_11 
REMARK       I    between atoms: C3_10  and  N5_15 
ROOT
HETATM    1  C1  UNL     1      38.918  29.443  51.563  1.00  0.00     0.683 A 
HETATM    2  N2  UNL     1      39.285  29.658  50.292  1.00  0.00    -0.141 N 
ATOM      3  H2  UNL     1      40.241  29.462  50.000  1.00  0.00     0.189 HD
HETATM    4  C2  UNL     1      38.385  30.139  49.387  1.00  0.00     0.347 A 
HETATM    5  O1  UNL     1      38.739  30.338  48.201  1.00  0.00    -0.246 OA
HETATM    6  N3  UNL     1      37.121  30.407  49.744  1.00  0.00    -0.197 N 
HETATM    7  C3  UNL     1      36.155  30.917  48.798  1.00  0.00     0.494 C 
HETATM    8  N4  UNL     1      36.798  31.500  47.635  1.00  0.00    -0.032 N 
ATOM      9  H41 UNL     1      36.116  31.860  46.968  1.00  0.00     0.279 HD
ATOM     10  H42 UNL     1      37.438  30.839  47.194  1.00  0.00     0.279 HD
ATOM     11  H43 UNL     1      37.470  32.219  47.903  1.00  0.00     0.279 HD
HETATM   12  N5  UNL     1      35.269  31.891  49.347  1.00  0.00    -0.032 N 
ATOM     13  H51 UNL     1      34.587  32.252  48.680  1.00  0.00     0.279 HD
ATOM     14  H52 UNL     1      35.795  32.656  49.771  1.00  0.00     0.279 HD
ATOM     15  H53 UNL     1      34.801  31.525  50.177  1.00  0.00     0.279 HD
HETATM   16  C4  UNL     1      36.755  30.194  51.004  1.00  0.00     0.347 A 
HETATM   17  O2  UNL     1      35.591  30.424  51.394  1.00  0.00    -0.246 OA
HETATM   18  N6  UNL     1      37.647  29.712  51.919  1.00  0.00    -0.141 N 
ATOM     19  H6  UNL     1      37.349  29.556  52.882  1.00  0.00     0.189 HD
ENDROOT
BRANCH   1  20
HETATM   20  N1  UNL     1      39.751  28.992  52.422  1.00  0.00    -0.234 N 
ATOM     21  H12 UNL     1      40.756  29.094  52.273  1.00  0.00     0.174 HD
ATOM     22  H11 UNL     1      39.431  28.524  53.270  1.00  0.00     0.174 HD
ENDBRANCH   1  20
TORSDOF 1
ENDMDL
MODEL 5
REMARK VINA RESULT: -4.791288410      0.958      4.353
REMARK  1 active torsions:
REMARK  status: ('A' for Active; 'I' for Inactive)
REMARK    1  A    between atoms: N1_1  and  C1_4 
REMARK       I    between atoms: N3_9  and  C3_10 
REMARK       I    between atoms: C3_10  and  N4_11 
REMARK       I    between atoms: C3_10  and  N5_15 
ROOT
HETATM    1  C1  UNL     1      35.882  30.171  50.708  1.00  0.00     0.683 A 
HETATM    2  N2  UNL     1      35.791  30.635  49.454  1.00  0.00    -0.141 N 
ATOM      3  H2  UNL     1      34.901  30.585  48.958  1.00  0.00     0.189 HD
HETATM    4  C2  UNL     1      36.881  31.173  48.837  1.00  0.00     0.347 A 
HETATM    5  O1  UNL     1      36.785  31.603  47.664  1.00  0.00    -0.246 OA
HETATM    6  N3  UNL     1      38.063  31.251  49.466  1.00  0.00    -0.197 N 
HETATM    7  C3  UNL     1      39.229  31.818  48.827  1.00  0.00     0.494 C 
HETATM    8  N4  UNL     1      39.087  31.852  47.383  1.00  0.00    -0.032 N 
ATOM      9  H41 UNL     1      39.910  32.252  46.933  1.00  0.00     0.279 HD
ATOM     10  H42 UNL     1      38.235  32.340  47.105  1.00  0.00     0.279 HD
ATOM     11  H43 UNL     1      38.871  30.928  47.009  1.00  0.00     0.279 HD
HETATM   12  N5  UNL     1      40.444  31.137  49.135  1.00  0.00    -0.032 N 
ATOM     13  H51 UNL     1      41.267  31.537  48.685  1.00  0.00     0.279 HD
ATOM     14  H52 UNL     1      40.363  30.143  48.918  1.00  0.00     0.279 HD
ATOM     15  H53 UNL     1      40.578  31.081  50.145  1.00  0.00     0.279 HD
HETATM   16  C4  UNL     1      38.155  30.792  50.710  1.00  0.00     0.347 A 
HETATM   17  O2  UNL     1      39.230  30.838  51.344  1.00  0.00    -0.246 OA
HETATM   18  N6  UNL     1      37.070  30.251  51.338  1.00  0.00    -0.141 N 
ATOM     19  H6  UNL     1      37.160  29.903  52.292  1.00  0.00     0.189 HD
ENDROOT
BRANCH   1  20
HETATM   20  N1  UNL     1      34.867  29.664  51.299  1.00  0.00    -0.234 N 
ATOM     21  H12 UNL     1      34.675  28.664  51.233  1.00  0.00     0.174 HD
ATOM     22  H11 UNL     1      34.232  30.245  51.845  1.00  0.00     0.174 HD
ENDBRANCH   1  20
TORSDOF 1
ENDMDL
