MODEL 1
REMARK VINA RESULT: -9.527697747      0.000      0.000
REMARK  16 active torsions:
REMARK  status: ('A' for Active; 'I' for Inactive)
REMARK    1  A    between atoms: N1_1  and  C1_5 
REMARK    2  A    between atoms: C1_5  and  C2_6 
REMARK    3  A    between atoms: C2_6  and  N2_7 
REMARK    4  A    between atoms: N2_7  and  C3_8 
REMARK    5  A    between atoms: N2_7  and  N3_27 
REMARK    6  A    between atoms: C3_8  and  C4_9 
REMARK    7  A    between atoms: C4_9  and  O1_10 
REMARK    8  A    between atoms: C5_12  and  O2_13 
REMARK    9  A    between atoms: C6_15  and  O3_16 
REMARK   10  A    between atoms: C7_18  and  O4_19 
REMARK   11  A    between atoms: C8_21  and  O5_22 
REMARK   12  A    between atoms: C9_24  and  O6_25 
REMARK       I    between atoms: N3_27  and  C10_29 
REMARK   13  A    between atoms: C10_29  and  C11_31 
REMARK   14  A    between atoms: C15_37  and  C16_38 
REMARK   15  A    between atoms: C16_38  and  O9_39 
REMARK   16  A    between atoms: C16_38  and  O10_41 
ROOT
HETATM    1  N2  UNL     1      23.876  20.553  17.674  1.00  0.00    -0.224 NA
ENDROOT
BRANCH   1   2
HETATM    2  C2  UNL     1      25.092  20.912  18.367  1.00  0.00     0.141 C 
BRANCH   2   3
HETATM    3  C1  UNL     1      24.819  22.016  19.388  1.00  0.00     0.245 C 
BRANCH   3   4
HETATM    4  N1  UNL     1      23.517  22.589  19.104  1.00  0.00    -0.078 N 
ATOM      5  H13 UNL     1      23.549  23.286  18.361  1.00  0.00     0.274 HD
ATOM      6  H12 UNL     1      22.890  21.927  18.647  1.00  0.00     0.274 HD
ATOM      7  H11 UNL     1      23.132  22.959  19.973  1.00  0.00     0.274 HD
ENDBRANCH   3   4
ENDBRANCH   2   3
ENDBRANCH   1   2
BRANCH   1   8
HETATM    8  C3  UNL     1      23.962  20.357  16.282  1.00  0.00     0.157 C 
BRANCH   8   9
HETATM    9  C4  UNL     1      22.922  20.872  15.381  1.00  0.00     0.128 C 
HETATM   10  C5  UNL     1      23.147  20.243  14.013  1.00  0.00     0.187 C 
HETATM   11  C6  UNL     1      21.893  19.853  13.309  1.00  0.00     0.181 C 
HETATM   12  C7  UNL     1      21.032  18.913  14.121  1.00  0.00     0.180 C 
HETATM   13  C8  UNL     1      20.917  19.342  15.546  1.00  0.00     0.181 C 
HETATM   14  C9  UNL     1      21.513  20.675  15.840  1.00  0.00     0.187 C 
BRANCH   9  15
HETATM   15  O1  UNL     1      23.095  22.242  15.191  1.00  0.00    -0.383 OA
ATOM     16  H1  UNL     1      22.470  22.561  14.550  1.00  0.00     0.210 HD
ENDBRANCH   9  15
BRANCH  10  17
HETATM   17  O2  UNL     1      23.863  21.100  13.168  1.00  0.00    -0.390 OA
ATOM     18  H2  UNL     1      24.474  20.619  12.624  1.00  0.00     0.210 HD
ENDBRANCH  10  17
BRANCH  11  19
HETATM   19  O3  UNL     1      22.269  19.151  12.155  1.00  0.00    -0.390 OA
ATOM     20  H3  UNL     1      21.578  18.527  11.970  1.00  0.00     0.210 HD
ENDBRANCH  11  19
BRANCH  12  21
HETATM   21  O4  UNL     1      19.778  18.869  13.550  1.00  0.00    -0.390 OA
ATOM     22  H4  UNL     1      19.425  19.752  13.533  1.00  0.00     0.210 HD
ENDBRANCH  12  21
BRANCH  13  23
HETATM   23  O5  UNL     1      19.559  19.408  15.937  1.00  0.00    -0.390 OA
ATOM     24  H5  UNL     1      19.386  20.217  16.403  1.00  0.00     0.210 HD
ENDBRANCH  13  23
BRANCH  14  25
HETATM   25  O6  UNL     1      20.720  21.697  15.265  1.00  0.00    -0.390 OA
ATOM     26  H6  UNL     1      19.809  21.497  15.447  1.00  0.00     0.210 HD
ENDBRANCH  14  25
ENDBRANCH   8   9
ENDBRANCH   1   8
BRANCH   1  27
HETATM   27  N3  UNL     1      23.540  19.273  18.205  1.00  0.00    -0.285 N 
HETATM   28  C10 UNL     1      22.458  19.038  19.042  1.00  0.00     0.270 C 
HETATM   29  O7  UNL     1      21.726  20.014  19.351  1.00  0.00    -0.266 OA
ATOM     30  H3  UNL     1      24.133  18.481  17.955  1.00  0.00     0.184 HD
BRANCH  28  31
HETATM   31  C11 UNL     1      22.124  17.733  19.579  1.00  0.00     0.096 A 
HETATM   32  C12 UNL     1      21.162  16.948  19.148  1.00  0.00     0.116 A 
HETATM   33  N4  UNL     1      20.256  17.227  18.064  1.00  0.00    -0.097 NA
HETATM   34  C13 UNL     1      21.161  15.732  19.958  1.00  0.00     0.210 A 
HETATM   35  O8  UNL     1      20.358  14.767  19.808  1.00  0.00    -0.285 OA
HETATM   36  C14 UNL     1      22.219  15.821  20.946  1.00  0.00     0.062 A 
HETATM   37  C15 UNL     1      22.702  15.034  21.953  1.00  0.00     0.019 A 
HETATM   38  C19 UNL     1      22.806  17.068  20.698  1.00  0.00     0.112 A 
HETATM   39  C17 UNL     1      23.778  15.498  22.717  1.00  0.00     0.095 A 
HETATM   40  C18 UNL     1      24.316  16.728  22.432  1.00  0.00     0.288 A 
HETATM   41  O11 UNL     1      25.297  17.147  23.130  1.00  0.00    -0.260 OA
HETATM   42  O12 UNL     1      23.811  17.422  21.465  1.00  0.00    -0.273 OA
BRANCH  37  43
HETATM   43  C16 UNL     1      22.118  13.708  22.205  1.00  0.00     0.289 C 
BRANCH  43  44
HETATM   44  O9  UNL     1      20.765  13.749  22.475  1.00  0.00    -0.367 OA
ATOM     45  H9  UNL     1      20.567  13.760  23.404  1.00  0.00     0.213 HD
ENDBRANCH  43  44
BRANCH  43  46
HETATM   46  O10 UNL     1      22.301  12.850  21.125  1.00  0.00    -0.367 OA
ATOM     47  H10 UNL     1      21.516  12.350  20.934  1.00  0.00     0.213 HD
ENDBRANCH  43  46
ENDBRANCH  37  43
ENDBRANCH  28  31
ENDBRANCH   1  27
TORSDOF 16
ENDMDL
MODEL 2
REMARK VINA RESULT: -9.261645716      1.132      2.329
REMARK  16 active torsions:
REMARK  status: ('A' for Active; 'I' for Inactive)
REMARK    1  A    between atoms: N1_1  and  C1_5 
REMARK    2  A    between atoms: C1_5  and  C2_6 
REMARK    3  A    between atoms: C2_6  and  N2_7 
REMARK    4  A    between atoms: N2_7  and  C3_8 
REMARK    5  A    between atoms: N2_7  and  N3_27 
REMARK    6  A    between atoms: C3_8  and  C4_9 
REMARK    7  A    between atoms: C4_9  and  O1_10 
REMARK    8  A    between atoms: C5_12  and  O2_13 
REMARK    9  A    between atoms: C6_15  and  O3_16 
REMARK   10  A    between atoms: C7_18  and  O4_19 
REMARK   11  A    between atoms: C8_21  and  O5_22 
REMARK   12  A    between atoms: C9_24  and  O6_25 
REMARK       I    between atoms: N3_27  and  C10_29 
REMARK   13  A    between atoms: C10_29  and  C11_31 
REMARK   14  A    between atoms: C15_37  and  C16_38 
REMARK   15  A    between atoms: C16_38  and  O9_39 
REMARK   16  A    between atoms: C16_38  and  O10_41 
ROOT
HETATM    1  N2  UNL     1      24.019  20.516  17.688  1.00  0.00    -0.224 NA
ENDROOT
BRANCH   1   2
HETATM    2  C2  UNL     1      25.094  20.959  18.546  1.00  0.00     0.141 C 
BRANCH   2   3
HETATM    3  C1  UNL     1      24.642  22.144  19.400  1.00  0.00     0.245 C 
BRANCH   3   4
HETATM    4  N1  UNL     1      23.369  22.614  18.891  1.00  0.00    -0.078 N 
ATOM      5  H13 UNL     1      23.354  22.681  17.873  1.00  0.00     0.274 HD
ATOM      6  H12 UNL     1      22.625  21.924  18.996  1.00  0.00     0.274 HD
ATOM      7  H11 UNL     1      23.149  23.501  19.345  1.00  0.00     0.274 HD
ENDBRANCH   3   4
ENDBRANCH   2   3
ENDBRANCH   1   2
BRANCH   1   8
HETATM    8  C3  UNL     1      24.333  20.265  16.339  1.00  0.00     0.157 C 
BRANCH   8   9
HETATM    9  C4  UNL     1      23.280  20.214  15.314  1.00  0.00     0.128 C 
HETATM   10  C5  UNL     1      22.129  21.087  15.796  1.00  0.00     0.187 C 
HETATM   11  C6  UNL     1      21.485  21.893  14.720  1.00  0.00     0.181 C 
HETATM   12  C7  UNL     1      22.465  22.775  13.982  1.00  0.00     0.180 C 
HETATM   13  C8  UNL     1      23.728  22.056  13.642  1.00  0.00     0.181 C 
HETATM   14  C9  UNL     1      23.703  20.595  13.932  1.00  0.00     0.187 C 
BRANCH   9  15
HETATM   15  O1  UNL     1      22.758  18.925  15.235  1.00  0.00    -0.383 OA
ATOM     16  H1  UNL     1      23.463  18.289  15.252  1.00  0.00     0.210 HD
ENDBRANCH   9  15
BRANCH  10  17
HETATM   17  O2  UNL     1      21.131  20.322  16.412  1.00  0.00    -0.390 OA
ATOM     18  H2  UNL     1      20.976  20.609  17.304  1.00  0.00     0.210 HD
ENDBRANCH  10  17
BRANCH  11  19
HETATM   19  O3  UNL     1      20.567  22.751  15.342  1.00  0.00    -0.390 OA
ATOM     20  H3  UNL     1      21.071  23.393  15.828  1.00  0.00     0.210 HD
ENDBRANCH  11  19
BRANCH  12  21
HETATM   21  O4  UNL     1      21.863  23.222  12.825  1.00  0.00    -0.390 OA
ATOM     22  H4  UNL     1      22.291  24.026  12.556  1.00  0.00     0.210 HD
ENDBRANCH  12  21
BRANCH  13  23
HETATM   23  O5  UNL     1      24.021  22.191  12.265  1.00  0.00    -0.390 OA
ATOM     24  H5  UNL     1      24.861  22.618  12.143  1.00  0.00     0.210 HD
ENDBRANCH  13  23
BRANCH  14  25
HETATM   25  O6  UNL     1      22.850  19.933  13.017  1.00  0.00    -0.390 OA
ATOM     26  H6  UNL     1      23.249  19.099  12.797  1.00  0.00     0.210 HD
ENDBRANCH  14  25
ENDBRANCH   8   9
ENDBRANCH   1   8
BRANCH   1  27
HETATM   27  N3  UNL     1      23.652  19.246  18.222  1.00  0.00    -0.285 N 
HETATM   28  C10 UNL     1      22.523  19.025  19.000  1.00  0.00     0.270 C 
HETATM   29  O7  UNL     1      21.776  20.007  19.250  1.00  0.00    -0.266 OA
ATOM     30  H3  UNL     1      24.256  18.449  18.020  1.00  0.00     0.184 HD
BRANCH  28  31
HETATM   31  C11 UNL     1      22.159  17.731  19.540  1.00  0.00     0.096 A 
HETATM   32  C12 UNL     1      21.187  16.962  19.101  1.00  0.00     0.116 A 
HETATM   33  N4  UNL     1      20.300  17.252  18.005  1.00  0.00    -0.097 NA
HETATM   34  C13 UNL     1      21.152  15.751  19.919  1.00  0.00     0.210 A 
HETATM   35  O8  UNL     1      20.333  14.801  19.764  1.00  0.00    -0.285 OA
HETATM   36  C14 UNL     1      22.199  15.825  20.919  1.00  0.00     0.062 A 
HETATM   37  C15 UNL     1      22.655  15.035  21.936  1.00  0.00     0.019 A 
HETATM   38  C19 UNL     1      22.813  17.059  20.672  1.00  0.00     0.112 A 
HETATM   39  C17 UNL     1      23.731  15.483  22.711  1.00  0.00     0.095 A 
HETATM   40  C18 UNL     1      24.296  16.700  22.426  1.00  0.00     0.288 A 
HETATM   41  O11 UNL     1      25.275  17.105  23.134  1.00  0.00    -0.260 OA
HETATM   42  O12 UNL     1      23.816  17.398  21.448  1.00  0.00    -0.273 OA
BRANCH  37  43
HETATM   43  C16 UNL     1      22.043  13.722  22.188  1.00  0.00     0.289 C 
BRANCH  43  44
HETATM   44  O9  UNL     1      20.686  13.789  22.430  1.00  0.00    -0.367 OA
ATOM     45  H9  UNL     1      20.363  14.677  22.522  1.00  0.00     0.213 HD
ENDBRANCH  43  44
BRANCH  43  46
HETATM   46  O10 UNL     1      22.233  12.850  21.120  1.00  0.00    -0.367 OA
ATOM     47  H10 UNL     1      21.688  13.079  20.377  1.00  0.00     0.213 HD
ENDBRANCH  43  46
ENDBRANCH  37  43
ENDBRANCH  28  31
ENDBRANCH   1  27
TORSDOF 16
ENDMDL
MODEL 3
REMARK VINA RESULT: -9.171108588      1.326      2.025
REMARK  16 active torsions:
REMARK  status: ('A' for Active; 'I' for Inactive)
REMARK    1  A    between atoms: N1_1  and  C1_5 
REMARK    2  A    between atoms: C1_5  and  C2_6 
REMARK    3  A    between atoms: C2_6  and  N2_7 
REMARK    4  A    between atoms: N2_7  and  C3_8 
REMARK    5  A    between atoms: N2_7  and  N3_27 
REMARK    6  A    between atoms: C3_8  and  C4_9 
REMARK    7  A    between atoms: C4_9  and  O1_10 
REMARK    8  A    between atoms: C5_12  and  O2_13 
REMARK    9  A    between atoms: C6_15  and  O3_16 
REMARK   10  A    between atoms: C7_18  and  O4_19 
REMARK   11  A    between atoms: C8_21  and  O5_22 
REMARK   12  A    between atoms: C9_24  and  O6_25 
REMARK       I    between atoms: N3_27  and  C10_29 
REMARK   13  A    between atoms: C10_29  and  C11_31 
REMARK   14  A    between atoms: C15_37  and  C16_38 
REMARK   15  A    between atoms: C16_38  and  O9_39 
REMARK   16  A    between atoms: C16_38  and  O10_41 
ROOT
HETATM    1  N2  UNL     1      22.131  21.283  18.472  1.00  0.00    -0.224 NA
ENDROOT
BRANCH   1   2
HETATM    2  C2  UNL     1      23.007  21.796  19.500  1.00  0.00     0.141 C 
BRANCH   2   3
HETATM    3  C1  UNL     1      22.814  23.304  19.663  1.00  0.00     0.245 C 
BRANCH   3   4
HETATM    4  N1  UNL     1      23.507  23.726  20.865  1.00  0.00    -0.078 N 
ATOM      5  H13 UNL     1      23.154  23.266  21.703  1.00  0.00     0.274 HD
ATOM      6  H12 UNL     1      24.465  23.377  20.908  1.00  0.00     0.274 HD
ATOM      7  H11 UNL     1      23.457  24.743  20.924  1.00  0.00     0.274 HD
ENDBRANCH   3   4
ENDBRANCH   2   3
ENDBRANCH   1   2
BRANCH   1   8
HETATM    8  C3  UNL     1      22.695  21.047  17.204  1.00  0.00     0.157 C 
BRANCH   8   9
HETATM    9  C4  UNL     1      21.936  20.346  16.158  1.00  0.00     0.128 C 
HETATM   10  C5  UNL     1      21.754  21.314  14.997  1.00  0.00     0.187 C 
HETATM   11  C6  UNL     1      21.896  20.685  13.653  1.00  0.00     0.181 C 
HETATM   12  C7  UNL     1      23.219  19.979  13.472  1.00  0.00     0.180 C 
HETATM   13  C8  UNL     1      23.588  19.156  14.661  1.00  0.00     0.181 C 
HETATM   14  C9  UNL     1      22.520  19.051  15.694  1.00  0.00     0.187 C 
BRANCH   9  15
HETATM   15  O1  UNL     1      20.648  20.067  16.612  1.00  0.00    -0.383 OA
ATOM     16  H1  UNL     1      20.091  20.827  16.491  1.00  0.00     0.210 HD
ENDBRANCH   9  15
BRANCH  10  17
HETATM   17  O2  UNL     1      20.502  21.941  15.046  1.00  0.00    -0.390 OA
ATOM     18  H2  UNL     1      20.550  22.833  14.725  1.00  0.00     0.210 HD
ENDBRANCH  10  17
BRANCH  11  19
HETATM   19  O3  UNL     1      21.864  21.721  12.709  1.00  0.00    -0.390 OA
ATOM     20  H3  UNL     1      22.721  21.754  12.302  1.00  0.00     0.210 HD
ENDBRANCH  11  19
BRANCH  12  21
HETATM   21  O4  UNL     1      23.133  19.171  12.359  1.00  0.00    -0.390 OA
ATOM     22  H4  UNL     1      22.627  19.627  11.696  1.00  0.00     0.210 HD
ENDBRANCH  12  21
BRANCH  13  23
HETATM   23  O5  UNL     1      23.905  17.834  14.269  1.00  0.00    -0.390 OA
ATOM     24  H5  UNL     1      23.173  17.437  13.812  1.00  0.00     0.210 HD
ENDBRANCH  13  23
BRANCH  14  25
HETATM   25  O6  UNL     1      21.461  18.241  15.217  1.00  0.00    -0.390 OA
ATOM     26  H6  UNL     1      21.561  18.154  14.276  1.00  0.00     0.210 HD
ENDBRANCH  14  25
ENDBRANCH   8   9
ENDBRANCH   1   8
BRANCH   1  27
HETATM   27  N3  UNL     1      21.752  19.995  18.952  1.00  0.00    -0.285 N 
HETATM   28  C10 UNL     1      22.650  18.973  19.229  1.00  0.00     0.270 C 
HETATM   29  O7  UNL     1      23.875  19.197  19.047  1.00  0.00    -0.266 OA
ATOM     30  H3  UNL     1      20.759  19.813  19.101  1.00  0.00     0.184 HD
BRANCH  28  31
HETATM   31  C11 UNL     1      22.255  17.666  19.717  1.00  0.00     0.096 A 
HETATM   32  C12 UNL     1      21.291  16.921  19.223  1.00  0.00     0.116 A 
HETATM   33  N4  UNL     1      20.444  17.254  18.107  1.00  0.00    -0.097 NA
HETATM   34  C13 UNL     1      21.218  15.686  20.001  1.00  0.00     0.210 A 
HETATM   35  O8  UNL     1      20.396  14.750  19.790  1.00  0.00    -0.285 OA
HETATM   36  C14 UNL     1      22.233  15.718  21.036  1.00  0.00     0.062 A 
HETATM   37  C15 UNL     1      22.647  14.893  22.043  1.00  0.00     0.019 A 
HETATM   38  C19 UNL     1      22.866  16.954  20.848  1.00  0.00     0.112 A 
HETATM   39  C17 UNL     1      23.700  15.306  22.866  1.00  0.00     0.095 A 
HETATM   40  C18 UNL     1      24.286  16.526  22.637  1.00  0.00     0.288 A 
HETATM   41  O11 UNL     1      25.245  16.898  23.389  1.00  0.00    -0.260 OA
HETATM   42  O12 UNL     1      23.845  17.258  21.667  1.00  0.00    -0.273 OA
BRANCH  37  43
HETATM   43  C16 UNL     1      22.014  13.580  22.234  1.00  0.00     0.289 C 
BRANCH  43  44
HETATM   44  O9  UNL     1      20.659  13.656  22.482  1.00  0.00    -0.367 OA
ATOM     45  H9  UNL     1      20.337  14.547  22.541  1.00  0.00     0.213 HD
ENDBRANCH  43  44
BRANCH  43  46
HETATM   46  O10 UNL     1      22.189  12.757  21.126  1.00  0.00    -0.367 OA
ATOM     47  H10 UNL     1      21.685  11.955  21.199  1.00  0.00     0.213 HD
ENDBRANCH  43  46
ENDBRANCH  37  43
ENDBRANCH  28  31
ENDBRANCH   1  27
TORSDOF 16
ENDMDL
MODEL 4
REMARK VINA RESULT: -9.095015478      1.778      3.294
REMARK  16 active torsions:
REMARK  status: ('A' for Active; 'I' for Inactive)
REMARK    1  A    between atoms: N1_1  and  C1_5 
REMARK    2  A    between atoms: C1_5  and  C2_6 
REMARK    3  A    between atoms: C2_6  and  N2_7 
REMARK    4  A    between atoms: N2_7  and  C3_8 
REMARK    5  A    between atoms: N2_7  and  N3_27 
REMARK    6  A    between atoms: C3_8  and  C4_9 
REMARK    7  A    between atoms: C4_9  and  O1_10 
REMARK    8  A    between atoms: C5_12  and  O2_13 
REMARK    9  A    between atoms: C6_15  and  O3_16 
REMARK   10  A    between atoms: C7_18  and  O4_19 
REMARK   11  A    between atoms: C8_21  and  O5_22 
REMARK   12  A    between atoms: C9_24  and  O6_25 
REMARK       I    between atoms: N3_27  and  C10_29 
REMARK   13  A    between atoms: C10_29  and  C11_31 
REMARK   14  A    between atoms: C15_37  and  C16_38 
REMARK   15  A    between atoms: C16_38  and  O9_39 
REMARK   16  A    between atoms: C16_38  and  O10_41 
ROOT
HETATM    1  N2  UNL     1      22.583  21.440  17.017  1.00  0.00    -0.224 NA
ENDROOT
BRANCH   1   2
HETATM    2  C2  UNL     1      22.826  22.754  17.569  1.00  0.00     0.141 C 
BRANCH   2   3
HETATM    3  C1  UNL     1      21.534  23.571  17.590  1.00  0.00     0.245 C 
BRANCH   3   4
HETATM    4  N1  UNL     1      20.725  23.118  18.705  1.00  0.00    -0.078 N 
ATOM      5  H13 UNL     1      20.096  23.841  19.053  1.00  0.00     0.274 HD
ATOM      6  H12 UNL     1      20.017  22.439  18.426  1.00  0.00     0.274 HD
ATOM      7  H11 UNL     1      21.349  22.758  19.429  1.00  0.00     0.274 HD
ENDBRANCH   3   4
ENDBRANCH   2   3
ENDBRANCH   1   2
BRANCH   1   8
HETATM    8  C3  UNL     1      23.238  21.116  15.814  1.00  0.00     0.157 C 
BRANCH   8   9
HETATM    9  C4  UNL     1      22.820  19.955  15.015  1.00  0.00     0.128 C 
HETATM   10  C5  UNL     1      21.579  19.367  15.674  1.00  0.00     0.187 C 
HETATM   11  C6  UNL     1      20.540  18.907  14.711  1.00  0.00     0.181 C 
HETATM   12  C7  UNL     1      20.096  19.995  13.761  1.00  0.00     0.180 C 
HETATM   13  C8  UNL     1      21.247  20.772  13.214  1.00  0.00     0.181 C 
HETATM   14  C9  UNL     1      22.585  20.220  13.563  1.00  0.00     0.187 C 
BRANCH   9  15
HETATM   15  O1  UNL     1      23.787  18.954  15.091  1.00  0.00    -0.383 OA
ATOM     16  H1  UNL     1      24.293  18.932  14.287  1.00  0.00     0.210 HD
ENDBRANCH   9  15
BRANCH  10  17
HETATM   17  O2  UNL     1      21.905  18.286  16.502  1.00  0.00    -0.390 OA
ATOM     18  H2  UNL     1      21.138  17.952  16.952  1.00  0.00     0.210 HD
ENDBRANCH  10  17
BRANCH  11  19
HETATM   19  O3  UNL     1      19.412  18.549  15.462  1.00  0.00    -0.390 OA
ATOM     20  H3  UNL     1      19.153  17.680  15.181  1.00  0.00     0.210 HD
ENDBRANCH  11  19
BRANCH  12  21
HETATM   21  O4  UNL     1      19.398  19.411  12.726  1.00  0.00    -0.390 OA
ATOM     22  H4  UNL     1      18.474  19.414  12.948  1.00  0.00     0.210 HD
ENDBRANCH  12  21
BRANCH  13  23
HETATM   23  O5  UNL     1      21.184  20.822  11.802  1.00  0.00    -0.390 OA
ATOM     24  H5  UNL     1      21.611  20.064  11.422  1.00  0.00     0.210 HD
ENDBRANCH  13  23
BRANCH  14  25
HETATM   25  O6  UNL     1      22.812  19.013  12.858  1.00  0.00    -0.390 OA
ATOM     26  H6  UNL     1      22.330  19.058  12.040  1.00  0.00     0.210 HD
ENDBRANCH  14  25
ENDBRANCH   8   9
ENDBRANCH   1   8
BRANCH   1  27
HETATM   27  N3  UNL     1      23.134  20.551  17.987  1.00  0.00    -0.285 N 
HETATM   28  C10 UNL     1      22.383  19.874  18.937  1.00  0.00     0.270 C 
HETATM   29  O7  UNL     1      21.137  20.054  18.944  1.00  0.00    -0.266 OA
ATOM     30  H3  UNL     1      24.144  20.405  17.982  1.00  0.00     0.184 HD
BRANCH  28  31
HETATM   31  C11 UNL     1      22.952  18.973  19.920  1.00  0.00     0.096 A 
HETATM   32  C12 UNL     1      23.977  19.236  20.700  1.00  0.00     0.116 A 
HETATM   33  N4  UNL     1      24.730  20.462  20.733  1.00  0.00    -0.097 NA
HETATM   34  C13 UNL     1      24.230  18.065  21.538  1.00  0.00     0.210 A 
HETATM   35  O8  UNL     1      25.150  17.983  22.401  1.00  0.00    -0.285 OA
HETATM   36  C14 UNL     1      23.265  17.034  21.214  1.00  0.00     0.062 A 
HETATM   37  C15 UNL     1      22.996  15.762  21.635  1.00  0.00     0.019 A 
HETATM   38  C19 UNL     1      22.480  17.611  20.208  1.00  0.00     0.112 A 
HETATM   39  C17 UNL     1      21.936  15.063  21.045  1.00  0.00     0.095 A 
HETATM   40  C18 UNL     1      21.199  15.677  20.064  1.00  0.00     0.288 A 
HETATM   41  O11 UNL     1      20.234  15.038  19.528  1.00  0.00    -0.260 OA
HETATM   42  O12 UNL     1      21.507  16.883  19.713  1.00  0.00    -0.273 OA
BRANCH  37  43
HETATM   43  C16 UNL     1      23.789  15.152  22.712  1.00  0.00     0.289 C 
BRANCH  43  44
HETATM   44  O9  UNL     1      23.261  13.965  23.176  1.00  0.00    -0.367 OA
ATOM     45  H9  UNL     1      22.354  14.038  23.449  1.00  0.00     0.213 HD
ENDBRANCH  43  44
BRANCH  43  46
HETATM   46  O10 UNL     1      25.096  14.897  22.311  1.00  0.00    -0.367 OA
ATOM     47  H10 UNL     1      25.371  14.018  22.542  1.00  0.00     0.213 HD
ENDBRANCH  43  46
ENDBRANCH  37  43
ENDBRANCH  28  31
ENDBRANCH   1  27
TORSDOF 16
ENDMDL
MODEL 5
REMARK VINA RESULT: -9.040490767      0.957      1.314
REMARK  16 active torsions:
REMARK  status: ('A' for Active; 'I' for Inactive)
REMARK    1  A    between atoms: N1_1  and  C1_5 
REMARK    2  A    between atoms: C1_5  and  C2_6 
REMARK    3  A    between atoms: C2_6  and  N2_7 
REMARK    4  A    between atoms: N2_7  and  C3_8 
REMARK    5  A    between atoms: N2_7  and  N3_27 
REMARK    6  A    between atoms: C3_8  and  C4_9 
REMARK    7  A    between atoms: C4_9  and  O1_10 
REMARK    8  A    between atoms: C5_12  and  O2_13 
REMARK    9  A    between atoms: C6_15  and  O3_16 
REMARK   10  A    between atoms: C7_18  and  O4_19 
REMARK   11  A    between atoms: C8_21  and  O5_22 
REMARK   12  A    between atoms: C9_24  and  O6_25 
REMARK       I    between atoms: N3_27  and  C10_29 
REMARK   13  A    between atoms: C10_29  and  C11_31 
REMARK   14  A    between atoms: C15_37  and  C16_38 
REMARK   15  A    between atoms: C16_38  and  O9_39 
REMARK   16  A    between atoms: C16_38  and  O10_41 
ROOT
HETATM    1  N2  UNL     1      24.125  20.719  18.486  1.00  0.00    -0.224 NA
ENDROOT
BRANCH   1   2
HETATM    2  C2  UNL     1      25.106  21.183  19.441  1.00  0.00     0.141 C 
BRANCH   2   3
HETATM    3  C1  UNL     1      24.513  22.277  20.328  1.00  0.00     0.245 C 
BRANCH   3   4
HETATM    4  N1  UNL     1      23.161  22.547  19.878  1.00  0.00    -0.078 N 
ATOM      5  H13 UNL     1      22.496  21.839  20.187  1.00  0.00     0.274 HD
ATOM      6  H12 UNL     1      22.743  23.347  20.352  1.00  0.00     0.274 HD
ATOM      7  H11 UNL     1      23.176  22.655  18.863  1.00  0.00     0.274 HD
ENDBRANCH   3   4
ENDBRANCH   2   3
ENDBRANCH   1   2
BRANCH   1   8
HETATM    8  C3  UNL     1      24.557  20.528  17.160  1.00  0.00     0.157 C 
BRANCH   8   9
HETATM    9  C4  UNL     1      23.772  21.040  16.028  1.00  0.00     0.128 C 
HETATM   10  C5  UNL     1      24.694  21.094  14.817  1.00  0.00     0.187 C 
HETATM   11  C6  UNL     1      24.047  20.676  13.541  1.00  0.00     0.181 C 
HETATM   12  C7  UNL     1      23.448  19.291  13.613  1.00  0.00     0.180 C 
HETATM   13  C8  UNL     1      22.686  19.069  14.877  1.00  0.00     0.181 C 
HETATM   14  C9  UNL     1      22.518  20.287  15.718  1.00  0.00     0.187 C 
BRANCH   9  15
HETATM   15  O1  UNL     1      23.399  22.361  16.268  1.00  0.00    -0.383 OA
ATOM     16  H1  UNL     1      24.096  22.815  16.728  1.00  0.00     0.210 HD
ENDBRANCH   9  15
BRANCH  10  17
HETATM   17  O2  UNL     1      25.217  22.380  14.631  1.00  0.00    -0.390 OA
ATOM     18  H2  UNL     1      24.677  22.891  14.040  1.00  0.00     0.210 HD
ENDBRANCH  10  17
BRANCH  11  19
HETATM   19  O3  UNL     1      25.054  20.625  12.567  1.00  0.00    -0.390 OA
ATOM     20  H3  UNL     1      24.932  19.817  12.083  1.00  0.00     0.210 HD
ENDBRANCH  11  19
BRANCH  12  21
HETATM   21  O4  UNL     1      22.609  19.122  12.532  1.00  0.00    -0.390 OA
ATOM     22  H4  UNL     1      21.791  19.571  12.715  1.00  0.00     0.210 HD
ENDBRANCH  12  21
BRANCH  13  23
HETATM   23  O5  UNL     1      21.385  18.589  14.594  1.00  0.00    -0.390 OA
ATOM     24  H5  UNL     1      21.261  17.724  14.967  1.00  0.00     0.210 HD
ENDBRANCH  13  23
BRANCH  14  25
HETATM   25  O6  UNL     1      21.613  21.184  15.099  1.00  0.00    -0.390 OA
ATOM     26  H6  UNL     1      20.976  21.451  15.751  1.00  0.00     0.210 HD
ENDBRANCH  14  25
ENDBRANCH   8   9
ENDBRANCH   1   8
BRANCH   1  27
HETATM   27  N3  UNL     1      23.778  19.417  18.952  1.00  0.00    -0.285 N 
HETATM   28  C10 UNL     1      22.480  19.010  19.229  1.00  0.00     0.270 C 
HETATM   29  O7  UNL     1      21.551  19.841  19.058  1.00  0.00    -0.266 OA
ATOM     30  H3  UNL     1      24.531  18.743  19.090  1.00  0.00     0.184 HD
BRANCH  28  31
HETATM   31  C11 UNL     1      22.137  17.684  19.703  1.00  0.00     0.096 A 
HETATM   32  C12 UNL     1      21.196  16.911  19.208  1.00  0.00     0.116 A 
HETATM   33  N4  UNL     1      20.327  17.226  18.104  1.00  0.00    -0.097 NA
HETATM   34  C13 UNL     1      21.174  15.664  19.971  1.00  0.00     0.210 A 
HETATM   35  O8  UNL     1      20.384  14.702  19.756  1.00  0.00    -0.285 OA
HETATM   36  C14 UNL     1      22.196  15.721  20.999  1.00  0.00     0.062 A 
HETATM   37  C15 UNL     1      22.648  14.899  21.992  1.00  0.00     0.019 A 
HETATM   38  C19 UNL     1      22.783  16.980  20.820  1.00  0.00     0.112 A 
HETATM   39  C17 UNL     1      23.694  15.339  22.811  1.00  0.00     0.095 A 
HETATM   40  C18 UNL     1      24.233  16.582  22.593  1.00  0.00     0.288 A 
HETATM   41  O11 UNL     1      25.185  16.979  23.341  1.00  0.00    -0.260 OA
HETATM   42  O12 UNL     1      23.758  17.309  21.635  1.00  0.00    -0.273 OA
BRANCH  37  43
HETATM   43  C16 UNL     1      22.065  13.561  22.172  1.00  0.00     0.289 C 
BRANCH  43  44
HETATM   44  O9  UNL     1      20.712  13.586  22.443  1.00  0.00    -0.367 OA
ATOM     45  H9  UNL     1      20.329  14.452  22.367  1.00  0.00     0.213 HD
ENDBRANCH  43  44
BRANCH  43  46
HETATM   46  O10 UNL     1      22.249  12.762  21.048  1.00  0.00    -0.367 OA
ATOM     47  H10 UNL     1      21.813  11.923  21.136  1.00  0.00     0.213 HD
ENDBRANCH  43  46
ENDBRANCH  37  43
ENDBRANCH  28  31
ENDBRANCH   1  27
TORSDOF 16
ENDMDL
