MODEL 1
REMARK VINA RESULT: -11.048244633      0.000      0.000
REMARK  6 active torsions:
REMARK  status: ('A' for Active; 'I' for Inactive)
REMARK    1  A    between atoms: C2_2  and  C3_3 
REMARK    2  A    between atoms: C3_3  and  C4_4 
REMARK    3  A    between atoms: C4_4  and  C5_5 
REMARK    4  A    between atoms: C5_5  and  C6_6 
REMARK    5  A    between atoms: C9_9  and  N1_10 
REMARK       I    between atoms: N1_10  and  C10_12 
REMARK    6  A    between atoms: C10_12  and  C11_14 
ROOT
HETATM    1  C6  UNL     1      -3.897  12.815  18.044  1.00  0.00    -0.057 A 
HETATM    2  C7  UNL     1      -3.071  12.014  17.300  1.00  0.00     0.009 A 
HETATM    3  C8  UNL     1      -2.653  10.765  17.803  1.00  0.00     0.031 A 
HETATM    4  C9  UNL     1      -3.081  10.362  19.043  1.00  0.00     0.046 A 
HETATM    5  C21 UNL     1      -3.924  11.171  19.809  1.00  0.00     0.001 A 
HETATM    6  C22 UNL     1      -4.428  10.741  21.092  1.00  0.00    -0.024 A 
HETATM    7  C23 UNL     1      -4.173  11.577  22.188  1.00  0.00     0.012 A 
HETATM    8  C24 UNL     1      -4.644  11.280  23.447  1.00  0.00     0.001 A 
HETATM    9  C25 UNL     1      -5.383  10.150  23.671  1.00  0.00     0.000 A 
HETATM   10  C26 UNL     1      -5.634   9.325  22.581  1.00  0.00     0.001 A 
HETATM   11  C27 UNL     1      -5.173   9.605  21.325  1.00  0.00     0.012 A 
HETATM   12  C28 UNL     1      -4.308  12.382  19.281  1.00  0.00     0.021 A 
ENDROOT
BRANCH   4  13
HETATM   13  N1  UNL     1      -2.657   9.174  19.644  1.00  0.00    -0.322 N 
HETATM   14  C10 UNL     1      -3.023   7.885  19.249  1.00  0.00     0.256 C 
HETATM   15  O1  UNL     1      -3.788   7.639  18.309  1.00  0.00    -0.267 OA
ATOM     16  H1  UNL     1      -2.026   9.255  20.441  1.00  0.00     0.169 HD
BRANCH  14  17
HETATM   17  C11 UNL     1      -2.496   6.689  19.964  1.00  0.00     0.033 A 
HETATM   18  C12 UNL     1      -3.252   5.972  20.853  1.00  0.00     0.018 A 
HETATM   19  C13 UNL     1      -2.695   4.850  21.485  1.00  0.00     0.013 A 
HETATM   20  C14 UNL     1      -1.403   4.444  21.237  1.00  0.00    -0.026 A 
HETATM   21  C15 UNL     1      -0.839   3.338  21.852  1.00  0.00     0.012 A 
HETATM   22  C19 UNL     1      -0.652   5.172  20.341  1.00  0.00    -0.025 A 
HETATM   23  C16 UNL     1       0.461   2.931  21.601  1.00  0.00     0.001 A 
HETATM   24  C17 UNL     1       1.210   3.670  20.698  1.00  0.00     0.001 A 
HETATM   25  C18 UNL     1       0.643   4.770  20.087  1.00  0.00     0.012 A 
HETATM   26  C20 UNL     1      -1.222   6.275  19.730  1.00  0.00     0.029 A 
ENDBRANCH  14  17
ENDBRANCH   4  13
BRANCH   1  27
HETATM   27  C5  UNL     1      -4.331  14.117  17.518  1.00  0.00     0.038 C 
BRANCH  27  28
HETATM   28  C4  UNL     1      -3.452  15.258  18.012  1.00  0.00     0.005 C 
BRANCH  28  29
HETATM   29  C3  UNL     1      -3.624  16.394  17.036  1.00  0.00    -0.000 C 
BRANCH  29  30
HETATM   30  C2  UNL     1      -3.954  17.697  17.705  1.00  0.00    -0.005 C 
HETATM   31  C1  UNL     1      -4.725  18.646  16.845  1.00  0.00     0.005 C 
ENDBRANCH  29  30
ENDBRANCH  28  29
ENDBRANCH  27  28
ENDBRANCH   1  27
TORSDOF 6
ENDMDL
MODEL 2
REMARK VINA RESULT: -10.661731364      0.675      1.472
REMARK  6 active torsions:
REMARK  status: ('A' for Active; 'I' for Inactive)
REMARK    1  A    between atoms: C2_2  and  C3_3 
REMARK    2  A    between atoms: C3_3  and  C4_4 
REMARK    3  A    between atoms: C4_4  and  C5_5 
REMARK    4  A    between atoms: C5_5  and  C6_6 
REMARK    5  A    between atoms: C9_9  and  N1_10 
REMARK       I    between atoms: N1_10  and  C10_12 
REMARK    6  A    between atoms: C10_12  and  C11_14 
ROOT
HETATM    1  C6  UNL     1      -3.920  12.729  17.961  1.00  0.00    -0.057 A 
HETATM    2  C7  UNL     1      -3.038  11.990  17.217  1.00  0.00     0.009 A 
HETATM    3  C8  UNL     1      -2.552  10.760  17.706  1.00  0.00     0.031 A 
HETATM    4  C9  UNL     1      -2.972  10.312  18.933  1.00  0.00     0.046 A 
HETATM    5  C21 UNL     1      -3.873  11.057  19.699  1.00  0.00     0.001 A 
HETATM    6  C22 UNL     1      -4.368  10.576  20.968  1.00  0.00    -0.024 A 
HETATM    7  C23 UNL     1      -4.178  11.407  22.080  1.00  0.00     0.012 A 
HETATM    8  C24 UNL     1      -4.648  11.063  23.328  1.00  0.00     0.001 A 
HETATM    9  C25 UNL     1      -5.321   9.887  23.523  1.00  0.00     0.000 A 
HETATM   10  C26 UNL     1      -5.507   9.067  22.417  1.00  0.00     0.001 A 
HETATM   11  C27 UNL     1      -5.046   9.394  21.172  1.00  0.00     0.012 A 
HETATM   12  C28 UNL     1      -4.321  12.252  19.185  1.00  0.00     0.021 A 
ENDROOT
BRANCH   4  13
HETATM   13  N1  UNL     1      -2.487   9.142  19.522  1.00  0.00    -0.322 N 
HETATM   14  C10 UNL     1      -2.430   7.885  18.913  1.00  0.00     0.256 C 
HETATM   15  O1  UNL     1      -2.820   7.655  17.762  1.00  0.00    -0.267 OA
ATOM     16  H1  UNL     1      -2.144   9.210  20.480  1.00  0.00     0.169 HD
BRANCH  14  17
HETATM   17  C11 UNL     1      -1.879   6.709  19.640  1.00  0.00     0.033 A 
HETATM   18  C12 UNL     1      -0.545   6.576  19.919  1.00  0.00     0.018 A 
HETATM   19  C13 UNL     1      -0.094   5.445  20.617  1.00  0.00     0.013 A 
HETATM   20  C14 UNL     1      -0.958   4.456  21.033  1.00  0.00    -0.026 A 
HETATM   21  C15 UNL     1      -0.529   3.334  21.722  1.00  0.00     0.012 A 
HETATM   22  C19 UNL     1      -2.297   4.600  20.746  1.00  0.00    -0.025 A 
HETATM   23  C16 UNL     1      -1.400   2.341  22.139  1.00  0.00     0.001 A 
HETATM   24  C17 UNL     1      -2.747   2.493  21.847  1.00  0.00     0.001 A 
HETATM   25  C18 UNL     1      -3.169   3.614  21.160  1.00  0.00     0.012 A 
HETATM   26  C20 UNL     1      -2.719   5.724  20.058  1.00  0.00     0.029 A 
ENDBRANCH  14  17
ENDBRANCH   4  13
BRANCH   1  27
HETATM   27  C5  UNL     1      -4.424  14.011  17.449  1.00  0.00     0.038 C 
BRANCH  27  28
HETATM   28  C4  UNL     1      -3.610  15.192  17.959  1.00  0.00     0.005 C 
BRANCH  28  29
HETATM   29  C3  UNL     1      -3.789  16.308  16.962  1.00  0.00    -0.000 C 
BRANCH  29  30
HETATM   30  C2  UNL     1      -4.011  17.644  17.609  1.00  0.00    -0.005 C 
HETATM   31  C1  UNL     1      -4.774  18.613  16.763  1.00  0.00     0.005 C 
ENDBRANCH  29  30
ENDBRANCH  28  29
ENDBRANCH  27  28
ENDBRANCH   1  27
TORSDOF 6
ENDMDL
MODEL 3
REMARK VINA RESULT: -10.094023779      1.332      8.651
REMARK  6 active torsions:
REMARK  status: ('A' for Active; 'I' for Inactive)
REMARK    1  A    between atoms: C2_2  and  C3_3 
REMARK    2  A    between atoms: C3_3  and  C4_4 
REMARK    3  A    between atoms: C4_4  and  C5_5 
REMARK    4  A    between atoms: C5_5  and  C6_6 
REMARK    5  A    between atoms: C9_9  and  N1_10 
REMARK       I    between atoms: N1_10  and  C10_12 
REMARK    6  A    between atoms: C10_12  and  C11_14 
ROOT
HETATM    1  C6  UNL     1      -3.432   6.205  20.088  1.00  0.00    -0.057 A 
HETATM    2  C7  UNL     1      -3.189   6.454  18.762  1.00  0.00     0.009 A 
HETATM    3  C8  UNL     1      -3.323   7.760  18.250  1.00  0.00     0.031 A 
HETATM    4  C9  UNL     1      -3.698   8.778  19.092  1.00  0.00     0.046 A 
HETATM    5  C21 UNL     1      -3.946   8.534  20.445  1.00  0.00     0.001 A 
HETATM    6  C22 UNL     1      -4.289   9.601  21.357  1.00  0.00    -0.024 A 
HETATM    7  C23 UNL     1      -5.485   9.463  22.073  1.00  0.00     0.012 A 
HETATM    8  C24 UNL     1      -5.885  10.402  22.998  1.00  0.00     0.001 A 
HETATM    9  C25 UNL     1      -5.118  11.509  23.249  1.00  0.00     0.000 A 
HETATM   10  C26 UNL     1      -3.933  11.639  22.536  1.00  0.00     0.001 A 
HETATM   11  C27 UNL     1      -3.523  10.717  21.615  1.00  0.00     0.012 A 
HETATM   12  C28 UNL     1      -3.805   7.245  20.903  1.00  0.00     0.021 A 
ENDROOT
BRANCH   4  13
HETATM   13  N1  UNL     1      -3.922  10.085  18.652  1.00  0.00    -0.322 N 
HETATM   14  C10 UNL     1      -2.983  10.905  18.020  1.00  0.00     0.256 C 
HETATM   15  O1  UNL     1      -1.818  10.567  17.781  1.00  0.00    -0.267 OA
ATOM     16  H1  UNL     1      -4.852  10.474  18.804  1.00  0.00     0.169 HD
BRANCH  14  17
HETATM   17  C11 UNL     1      -3.344  12.282  17.585  1.00  0.00     0.033 A 
HETATM   18  C12 UNL     1      -4.146  12.524  16.502  1.00  0.00     0.018 A 
HETATM   19  C13 UNL     1      -4.454  13.848  16.152  1.00  0.00     0.013 A 
HETATM   20  C14 UNL     1      -3.970  14.920  16.868  1.00  0.00    -0.026 A 
HETATM   21  C15 UNL     1      -4.264  16.231  16.536  1.00  0.00     0.012 A 
HETATM   22  C19 UNL     1      -3.164  14.665  17.955  1.00  0.00    -0.025 A 
HETATM   23  C16 UNL     1      -3.776  17.308  17.258  1.00  0.00     0.001 A 
HETATM   24  C17 UNL     1      -2.965  17.043  18.351  1.00  0.00     0.001 A 
HETATM   25  C18 UNL     1      -2.675  15.734  18.678  1.00  0.00     0.012 A 
HETATM   26  C20 UNL     1      -2.874  13.352  18.282  1.00  0.00     0.029 A 
ENDBRANCH  14  17
ENDBRANCH   4  13
BRANCH   1  27
HETATM   27  C5  UNL     1      -3.292   4.842  20.619  1.00  0.00     0.038 C 
BRANCH  27  28
HETATM   28  C4  UNL     1      -1.945   4.224  20.270  1.00  0.00     0.005 C 
BRANCH  28  29
HETATM   29  C3  UNL     1      -0.973   4.672  21.332  1.00  0.00    -0.000 C 
BRANCH  29  30
HETATM   30  C2  UNL     1       0.392   4.980  20.786  1.00  0.00    -0.005 C 
HETATM   31  C1  UNL     1       0.391   5.972  19.667  1.00  0.00     0.005 C 
ENDBRANCH  29  30
ENDBRANCH  28  29
ENDBRANCH  27  28
ENDBRANCH   1  27
TORSDOF 6
ENDMDL
MODEL 4
REMARK VINA RESULT: -9.961330672      2.550      9.619
REMARK  6 active torsions:
REMARK  status: ('A' for Active; 'I' for Inactive)
REMARK    1  A    between atoms: C2_2  and  C3_3 
REMARK    2  A    between atoms: C3_3  and  C4_4 
REMARK    3  A    between atoms: C4_4  and  C5_5 
REMARK    4  A    between atoms: C5_5  and  C6_6 
REMARK    5  A    between atoms: C9_9  and  N1_10 
REMARK       I    between atoms: N1_10  and  C10_12 
REMARK    6  A    between atoms: C10_12  and  C11_14 
ROOT
HETATM    1  C6  UNL     1       0.163   3.679  20.132  1.00  0.00    -0.057 A 
HETATM    2  C7  UNL     1       0.445   4.828  20.823  1.00  0.00     0.009 A 
HETATM    3  C8  UNL     1      -0.085   6.062  20.395  1.00  0.00     0.031 A 
HETATM    4  C9  UNL     1      -0.886   6.099  19.281  1.00  0.00     0.046 A 
HETATM    5  C21 UNL     1      -1.181   4.933  18.570  1.00  0.00     0.001 A 
HETATM    6  C22 UNL     1      -2.066   4.945  17.428  1.00  0.00    -0.024 A 
HETATM    7  C23 UNL     1      -1.557   4.434  16.226  1.00  0.00     0.012 A 
HETATM    8  C24 UNL     1      -2.330   4.360  15.089  1.00  0.00     0.001 A 
HETATM    9  C25 UNL     1      -3.630   4.788  15.096  1.00  0.00     0.000 A 
HETATM   10  C26 UNL     1      -4.129   5.294  16.290  1.00  0.00     0.001 A 
HETATM   11  C27 UNL     1      -3.375   5.373  17.428  1.00  0.00     0.012 A 
HETATM   12  C28 UNL     1      -0.642   3.751  19.021  1.00  0.00     0.021 A 
ENDROOT
BRANCH   4  13
HETATM   13  N1  UNL     1      -1.393   7.287  18.749  1.00  0.00    -0.322 N 
HETATM   14  C10 UNL     1      -2.349   8.109  19.353  1.00  0.00     0.256 C 
HETATM   15  O1  UNL     1      -2.876   7.870  20.446  1.00  0.00    -0.267 OA
ATOM     16  H1  UNL     1      -1.034   7.581  17.841  1.00  0.00     0.169 HD
BRANCH  14  17
HETATM   17  C11 UNL     1      -2.806   9.362  18.692  1.00  0.00     0.033 A 
HETATM   18  C12 UNL     1      -3.568   9.357  17.554  1.00  0.00     0.018 A 
HETATM   19  C13 UNL     1      -3.971  10.576  16.988  1.00  0.00     0.013 A 
HETATM   20  C14 UNL     1      -3.623  11.786  17.544  1.00  0.00    -0.026 A 
HETATM   21  C15 UNL     1      -4.014  12.997  16.998  1.00  0.00     0.012 A 
HETATM   22  C19 UNL     1      -2.857  11.779  18.689  1.00  0.00    -0.025 A 
HETATM   23  C16 UNL     1      -3.662  14.214  17.560  1.00  0.00     0.001 A 
HETATM   24  C17 UNL     1      -2.890  14.198  18.712  1.00  0.00     0.001 A 
HETATM   25  C18 UNL     1      -2.504  12.988  19.253  1.00  0.00     0.012 A 
HETATM   26  C20 UNL     1      -2.470  10.566  19.230  1.00  0.00     0.029 A 
ENDBRANCH  14  17
ENDBRANCH   4  13
BRANCH   1  27
HETATM   27  C5  UNL     1       0.718   2.393  20.579  1.00  0.00     0.038 C 
BRANCH  27  28
HETATM   28  C4  UNL     1       0.197   1.990  21.952  1.00  0.00     0.005 C 
BRANCH  28  29
HETATM   29  C3  UNL     1      -1.086   1.232  21.725  1.00  0.00    -0.000 C 
BRANCH  29  30
HETATM   30  C2  UNL     1      -2.270   1.867  22.396  1.00  0.00    -0.005 C 
HETATM   31  C1  UNL     1      -3.191   2.581  21.459  1.00  0.00     0.005 C 
ENDBRANCH  29  30
ENDBRANCH  28  29
ENDBRANCH  27  28
ENDBRANCH   1  27
TORSDOF 6
ENDMDL
MODEL 5
REMARK VINA RESULT: -9.667797532      2.534     10.144
REMARK  6 active torsions:
REMARK  status: ('A' for Active; 'I' for Inactive)
REMARK    1  A    between atoms: C2_2  and  C3_3 
REMARK    2  A    between atoms: C3_3  and  C4_4 
REMARK    3  A    between atoms: C4_4  and  C5_5 
REMARK    4  A    between atoms: C5_5  and  C6_6 
REMARK    5  A    between atoms: C9_9  and  N1_10 
REMARK       I    between atoms: N1_10  and  C10_12 
REMARK    6  A    between atoms: C10_12  and  C11_14 
ROOT
HETATM    1  C6  UNL     1      -0.013   3.629  20.140  1.00  0.00    -0.057 A 
HETATM    2  C7  UNL     1       0.229   4.757  20.881  1.00  0.00     0.009 A 
HETATM    3  C8  UNL     1      -0.274   6.004  20.460  1.00  0.00     0.031 A 
HETATM    4  C9  UNL     1      -1.009   6.076  19.302  1.00  0.00     0.046 A 
HETATM    5  C21 UNL     1      -1.263   4.932  18.541  1.00  0.00     0.001 A 
HETATM    6  C22 UNL     1      -2.080   4.980  17.351  1.00  0.00    -0.024 A 
HETATM    7  C23 UNL     1      -1.502   4.503  16.166  1.00  0.00     0.012 A 
HETATM    8  C24 UNL     1      -2.208   4.465  14.984  1.00  0.00     0.001 A 
HETATM    9  C25 UNL     1      -3.506   4.896  14.928  1.00  0.00     0.000 A 
HETATM   10  C26 UNL     1      -4.073   5.367  16.106  1.00  0.00     0.001 A 
HETATM   11  C27 UNL     1      -3.387   5.411  17.287  1.00  0.00     0.012 A 
HETATM   12  C28 UNL     1      -0.752   3.736  18.988  1.00  0.00     0.021 A 
ENDROOT
BRANCH   4  13
HETATM   13  N1  UNL     1      -1.484   7.281  18.778  1.00  0.00    -0.322 N 
HETATM   14  C10 UNL     1      -2.452   8.100  19.364  1.00  0.00     0.256 C 
HETATM   15  O1  UNL     1      -3.021   7.845  20.432  1.00  0.00    -0.267 OA
ATOM     16  H1  UNL     1      -1.089   7.589  17.889  1.00  0.00     0.169 HD
BRANCH  14  17
HETATM   17  C11 UNL     1      -2.871   9.372  18.713  1.00  0.00     0.033 A 
HETATM   18  C12 UNL     1      -3.623   9.399  17.569  1.00  0.00     0.018 A 
HETATM   19  C13 UNL     1      -3.991  10.634  17.013  1.00  0.00     0.013 A 
HETATM   20  C14 UNL     1      -3.616  11.829  17.586  1.00  0.00    -0.026 A 
HETATM   21  C15 UNL     1      -3.971  13.055  17.050  1.00  0.00     0.012 A 
HETATM   22  C19 UNL     1      -2.860  11.790  18.736  1.00  0.00    -0.025 A 
HETATM   23  C16 UNL     1      -3.593  14.256  17.628  1.00  0.00     0.001 A 
HETATM   24  C17 UNL     1      -2.831  14.208  18.785  1.00  0.00     0.001 A 
HETATM   25  C18 UNL     1      -2.481  12.983  19.316  1.00  0.00     0.012 A 
HETATM   26  C20 UNL     1      -2.509  10.561  19.267  1.00  0.00     0.029 A 
ENDBRANCH  14  17
ENDBRANCH   4  13
BRANCH   1  27
HETATM   27  C5  UNL     1       0.514   2.330  20.581  1.00  0.00     0.038 C 
BRANCH  27  28
HETATM   28  C4  UNL     1       0.422   2.155  22.091  1.00  0.00     0.005 C 
BRANCH  28  29
HETATM   29  C3  UNL     1      -0.018   0.735  22.339  1.00  0.00    -0.000 C 
BRANCH  29  30
HETATM   30  C2  UNL     1       0.810   0.037  23.379  1.00  0.00    -0.005 C 
HETATM   31  C1  UNL     1       1.349  -1.287  22.942  1.00  0.00     0.005 C 
ENDBRANCH  29  30
ENDBRANCH  28  29
ENDBRANCH  27  28
ENDBRANCH   1  27
TORSDOF 6
ENDMDL
