MODEL 1
REMARK VINA RESULT: -4.802788817      0.000      0.000
REMARK  5 active torsions:
REMARK  status: ('A' for Active; 'I' for Inactive)
REMARK    1  A    between atoms: C2_2  and  N1_3 
REMARK    2  A    between atoms: N1_3  and  C3_6 
REMARK    3  A    between atoms: C3_6  and  C5_8 
REMARK    4  A    between atoms: C5_8  and  N2_9 
REMARK    5  A    between atoms: N2_9  and  C6_11 
ROOT
HETATM    1  N2  UNL     1      23.396   2.994  22.587  1.00  0.00    -0.360 N 
ATOM      2  H2  UNL     1      23.578   3.698  21.872  1.00  0.00     0.162 HD
ENDROOT
BRANCH   1   3
HETATM    3  C5  UNL     1      22.071   2.397  22.679  1.00  0.00     0.155 C 
BRANCH   3   4
HETATM    4  C3  UNL     1      21.123   3.015  21.671  1.00  0.00     0.199 C 
HETATM    5  C4  UNL     1      19.731   2.832  22.192  1.00  0.00     0.041 C 
BRANCH   4   6
HETATM    6  N1  UNL     1      21.451   4.395  21.488  1.00  0.00    -0.070 N 
ATOM      7  H12 UNL     1      22.396   4.490  21.118  1.00  0.00     0.277 HD
ATOM      8  H11 UNL     1      21.569   4.856  22.390  1.00  0.00     0.277 HD
BRANCH   6   9
HETATM    9  C2  UNL     1      20.515   5.124  20.670  1.00  0.00     0.228 C 
HETATM   10  C1  UNL     1      20.234   6.436  21.401  1.00  0.00     0.034 C 
ENDBRANCH   6   9
ENDBRANCH   4   6
ENDBRANCH   3   4
ENDBRANCH   1   3
BRANCH   1  11
HETATM   11  C6  UNL     1      24.454   2.611  23.484  1.00  0.00     0.171 C 
HETATM   12  N3  UNL     1      24.491   1.547  24.227  1.00  0.00    -0.361 N 
HETATM   13  C7  UNL     1      25.737   1.522  24.994  1.00  0.00     0.142 C 
ATOM     14  H3  UNL     1      23.761   0.836  24.270  1.00  0.00     0.162 HD
HETATM   15  C8  UNL     1      26.142   2.979  24.984  1.00  0.00     0.142 C 
HETATM   16  N4  UNL     1      25.645   3.366  23.679  1.00  0.00    -0.361 N 
ATOM     17  H4  UNL     1      26.061   4.040  23.036  1.00  0.00     0.162 HD
ENDBRANCH   1  11
TORSDOF 5
ENDMDL
MODEL 2
REMARK VINA RESULT: -4.792958356      0.206      1.097
REMARK  5 active torsions:
REMARK  status: ('A' for Active; 'I' for Inactive)
REMARK    1  A    between atoms: C2_2  and  N1_3 
REMARK    2  A    between atoms: N1_3  and  C3_6 
REMARK    3  A    between atoms: C3_6  and  C5_8 
REMARK    4  A    between atoms: C5_8  and  N2_9 
REMARK    5  A    between atoms: N2_9  and  C6_11 
ROOT
HETATM    1  N2  UNL     1      23.399   2.828  22.464  1.00  0.00    -0.360 N 
ATOM      2  H2  UNL     1      23.641   3.171  21.534  1.00  0.00     0.162 HD
ENDROOT
BRANCH   1   3
HETATM    3  C5  UNL     1      22.016   2.478  22.755  1.00  0.00     0.155 C 
BRANCH   3   4
HETATM    4  C3  UNL     1      21.076   3.050  21.714  1.00  0.00     0.199 C 
HETATM    5  C4  UNL     1      19.680   2.888  22.229  1.00  0.00     0.041 C 
BRANCH   4   6
HETATM    6  N1  UNL     1      21.404   4.422  21.475  1.00  0.00    -0.070 N 
ATOM      7  H12 UNL     1      22.325   4.498  21.043  1.00  0.00     0.277 HD
ATOM      8  H11 UNL     1      21.584   4.904  22.356  1.00  0.00     0.277 HD
BRANCH   6   9
HETATM    9  C2  UNL     1      20.425   5.140  20.700  1.00  0.00     0.228 C 
HETATM   10  C1  UNL     1      20.202   6.473  21.413  1.00  0.00     0.034 C 
ENDBRANCH   6   9
ENDBRANCH   4   6
ENDBRANCH   3   4
ENDBRANCH   1   3
BRANCH   1  11
HETATM   11  C6  UNL     1      24.431   2.700  23.458  1.00  0.00     0.171 C 
HETATM   12  N3  UNL     1      25.559   3.343  23.489  1.00  0.00    -0.361 N 
HETATM   13  C7  UNL     1      26.331   2.931  24.661  1.00  0.00     0.142 C 
ATOM     14  H3  UNL     1      25.860   4.032  22.799  1.00  0.00     0.162 HD
HETATM   15  C8  UNL     1      25.722   1.584  24.982  1.00  0.00     0.142 C 
HETATM   16  N4  UNL     1      24.351   1.830  24.582  1.00  0.00    -0.361 N 
ATOM     17  H4  UNL     1      23.506   1.457  25.014  1.00  0.00     0.162 HD
ENDBRANCH   1  11
TORSDOF 5
ENDMDL
MODEL 3
REMARK VINA RESULT: -4.720942169      3.823      5.881
REMARK  5 active torsions:
REMARK  status: ('A' for Active; 'I' for Inactive)
REMARK    1  A    between atoms: C2_2  and  N1_3 
REMARK    2  A    between atoms: N1_3  and  C3_6 
REMARK    3  A    between atoms: C3_6  and  C5_8 
REMARK    4  A    between atoms: C5_8  and  N2_9 
REMARK    5  A    between atoms: N2_9  and  C6_11 
ROOT
HETATM    1  N2  UNL     1      24.246   2.539  27.155  1.00  0.00    -0.360 N 
ATOM      2  H2  UNL     1      24.491   3.154  27.931  1.00  0.00     0.162 HD
ENDROOT
BRANCH   1   3
HETATM    3  C5  UNL     1      23.189   1.554  27.333  1.00  0.00     0.155 C 
BRANCH   3   4
HETATM    4  C3  UNL     1      23.760   0.159  27.481  1.00  0.00     0.199 C 
HETATM    5  C4  UNL     1      23.250  -0.401  28.773  1.00  0.00     0.041 C 
BRANCH   4   6
HETATM    6  N1  UNL     1      23.373  -0.640  26.360  1.00  0.00    -0.070 N 
ATOM      7  H12 UNL     1      24.188  -1.099  25.952  1.00  0.00     0.277 HD
ATOM      8  H11 UNL     1      23.099  -0.046  25.577  1.00  0.00     0.277 HD
BRANCH   6   9
HETATM    9  C2  UNL     1      22.342  -1.604  26.645  1.00  0.00     0.228 C 
HETATM   10  C1  UNL     1      21.988  -2.264  25.313  1.00  0.00     0.034 C 
ENDBRANCH   6   9
ENDBRANCH   4   6
ENDBRANCH   3   4
ENDBRANCH   1   3
BRANCH   1  11
HETATM   11  C6  UNL     1      24.952   2.664  25.907  1.00  0.00     0.171 C 
HETATM   12  N3  UNL     1      26.164   3.103  25.746  1.00  0.00    -0.361 N 
HETATM   13  C7  UNL     1      26.515   3.074  24.326  1.00  0.00     0.142 C 
ATOM     14  H3  UNL     1      26.778   3.420  26.496  1.00  0.00     0.162 HD
HETATM   15  C8  UNL     1      25.155   3.071  23.664  1.00  0.00     0.142 C 
HETATM   16  N4  UNL     1      24.406   2.307  24.643  1.00  0.00    -0.361 N 
ATOM     17  H4  UNL     1      23.646   1.651  24.462  1.00  0.00     0.162 HD
ENDBRANCH   1  11
TORSDOF 5
ENDMDL
MODEL 4
REMARK VINA RESULT: -4.708354007      3.774      6.002
REMARK  5 active torsions:
REMARK  status: ('A' for Active; 'I' for Inactive)
REMARK    1  A    between atoms: C2_2  and  N1_3 
REMARK    2  A    between atoms: N1_3  and  C3_6 
REMARK    3  A    between atoms: C3_6  and  C5_8 
REMARK    4  A    between atoms: C5_8  and  N2_9 
REMARK    5  A    between atoms: N2_9  and  C6_11 
ROOT
HETATM    1  N2  UNL     1      24.955   0.333  26.190  1.00  0.00    -0.360 N 
ATOM      2  H2  UNL     1      25.578   0.063  26.951  1.00  0.00     0.162 HD
ENDROOT
BRANCH   1   3
HETATM    3  C5  UNL     1      23.670  -0.336  26.050  1.00  0.00     0.155 C 
BRANCH   3   4
HETATM    4  C3  UNL     1      22.902  -0.323  27.356  1.00  0.00     0.199 C 
HETATM    5  C4  UNL     1      22.288  -1.678  27.531  1.00  0.00     0.041 C 
BRANCH   4   6
HETATM    6  N1  UNL     1      23.788   0.007  28.430  1.00  0.00    -0.070 N 
ATOM      7  H12 UNL     1      24.653   0.407  28.067  1.00  0.00     0.277 HD
ATOM      8  H11 UNL     1      24.155  -0.840  28.862  1.00  0.00     0.277 HD
BRANCH   6   9
HETATM    9  C2  UNL     1      23.214   0.873  29.428  1.00  0.00     0.228 C 
HETATM   10  C1  UNL     1      23.784   2.267  29.170  1.00  0.00     0.034 C 
ENDBRANCH   6   9
ENDBRANCH   4   6
ENDBRANCH   3   4
ENDBRANCH   1   3
BRANCH   1  11
HETATM   11  C6  UNL     1      25.365   1.368  25.278  1.00  0.00     0.171 C 
HETATM   12  N3  UNL     1      26.399   2.144  25.404  1.00  0.00    -0.361 N 
HETATM   13  C7  UNL     1      26.470   3.062  24.267  1.00  0.00     0.142 C 
ATOM     14  H3  UNL     1      27.062   2.117  26.179  1.00  0.00     0.162 HD
HETATM   15  C8  UNL     1      25.041   3.057  23.768  1.00  0.00     0.142 C 
HETATM   16  N4  UNL     1      24.677   1.687  24.073  1.00  0.00    -0.361 N 
ATOM     17  H4  UNL     1      24.057   1.080  23.538  1.00  0.00     0.162 HD
ENDBRANCH   1  11
TORSDOF 5
ENDMDL
MODEL 5
REMARK VINA RESULT: -4.703197674      3.738      5.461
REMARK  5 active torsions:
REMARK  status: ('A' for Active; 'I' for Inactive)
REMARK    1  A    between atoms: C2_2  and  N1_3 
REMARK    2  A    between atoms: N1_3  and  C3_6 
REMARK    3  A    between atoms: C3_6  and  C5_8 
REMARK    4  A    between atoms: C5_8  and  N2_9 
REMARK    5  A    between atoms: N2_9  and  C6_11 
ROOT
HETATM    1  N2  UNL     1      24.944   0.278  26.325  1.00  0.00    -0.360 N 
ATOM      2  H2  UNL     1      25.632  -0.408  26.635  1.00  0.00     0.162 HD
ENDROOT
BRANCH   1   3
HETATM    3  C5  UNL     1      23.585   0.209  26.843  1.00  0.00     0.155 C 
BRANCH   3   4
HETATM    4  C3  UNL     1      22.947  -1.128  26.525  1.00  0.00     0.199 C 
HETATM    5  C4  UNL     1      21.920  -1.398  27.580  1.00  0.00     0.041 C 
BRANCH   4   6
HETATM    6  N1  UNL     1      22.374  -1.087  25.216  1.00  0.00    -0.070 N 
ATOM      7  H12 UNL     1      23.098  -0.928  24.515  1.00  0.00     0.277 HD
ATOM      8  H11 UNL     1      21.824  -0.236  25.094  1.00  0.00     0.277 HD
BRANCH   6   9
HETATM    9  C2  UNL     1      21.590  -2.246  24.874  1.00  0.00     0.228 C 
HETATM   10  C1  UNL     1      20.345  -1.728  24.155  1.00  0.00     0.034 C 
ENDBRANCH   6   9
ENDBRANCH   4   6
ENDBRANCH   3   4
ENDBRANCH   1   3
BRANCH   1  11
HETATM   11  C6  UNL     1      25.338   1.295  25.385  1.00  0.00     0.171 C 
HETATM   12  N3  UNL     1      26.345   2.106  25.501  1.00  0.00    -0.361 N 
HETATM   13  C7  UNL     1      26.406   2.988  24.335  1.00  0.00     0.142 C 
ATOM     14  H3  UNL     1      26.995   2.126  26.287  1.00  0.00     0.162 HD
HETATM   15  C8  UNL     1      24.987   2.922  23.815  1.00  0.00     0.142 C 
HETATM   16  N4  UNL     1      24.660   1.553  24.161  1.00  0.00    -0.361 N 
ATOM     17  H4  UNL     1      24.067   0.910  23.636  1.00  0.00     0.162 HD
ENDBRANCH   1  11
TORSDOF 5
ENDMDL
