MODEL 1
REMARK VINA RESULT: -5.747210838      0.000      0.000
REMARK  15 active torsions:
REMARK  status: ('A' for Active; 'I' for Inactive)
REMARK    1  A    between atoms: C2_2  and  N1_3 
REMARK    2  A    between atoms: N1_3  and  C3_4 
REMARK       I    between atoms: N1_3  and  C9_15 
REMARK    3  A    between atoms: C3_4  and  C4_5 
REMARK    4  A    between atoms: C4_5  and  N2_6 
REMARK    5  A    between atoms: N2_6  and  C5_7 
REMARK    6  A    between atoms: N2_6  and  C7_11 
REMARK    7  A    between atoms: C5_7  and  C6_8 
REMARK    8  A    between atoms: C6_8  and  O1_9 
REMARK    9  A    between atoms: C7_11  and  C8_12 
REMARK   10  A    between atoms: C8_12  and  O2_13 
REMARK   11  A    between atoms: C9_15  and  C10_17 
REMARK   12  A    between atoms: C12_21  and  N4_22 
REMARK   13  A    between atoms: N4_22  and  C13_24 
REMARK   14  A    between atoms: C13_24  and  C14_25 
REMARK   15  A    between atoms: C14_25  and  O4_26 
ROOT
HETATM    1  C10 UNL     1      55.205  17.138  18.372  1.00  0.00     0.092 A 
HETATM    2  C11 UNL     1      54.993  15.806  18.636  1.00  0.00     0.127 A 
HETATM    3  N3  UNL     1      55.433  15.277  19.776  1.00  0.00    -0.201 N 
ATOM      4  H3  UNL     1      55.269  14.287  19.956  1.00  0.00     0.183 HD
HETATM    5  C12 UNL     1      56.099  16.017  20.710  1.00  0.00     0.679 A 
HETATM    6  N5  UNL     1      56.319  17.314  20.480  1.00  0.00    -0.176 N 
ATOM      7  H5  UNL     1      56.813  17.882  21.168  1.00  0.00     0.186 HD
HETATM    8  C15 UNL     1      55.872  17.874  19.309  1.00  0.00     0.132 A 
HETATM    9  N6  UNL     1      56.105  19.118  19.092  1.00  0.00    -0.384 N 
ATOM     10  H61 UNL     1      56.603  19.668  19.793  1.00  0.00     0.157 HD
ATOM     11  H62 UNL     1      55.773  19.534  18.223  1.00  0.00     0.157 HD
ENDROOT
BRANCH   1  12
HETATM   12  C9  UNL     1      54.704  17.719  17.137  1.00  0.00     0.259 C 
HETATM   13  N1  UNL     1      53.403  18.265  17.110  1.00  0.00    -0.347 N 
HETATM   14  O3  UNL     1      55.434  17.734  16.087  1.00  0.00    -0.267 OA
BRANCH  13  15
HETATM   15  C2  UNL     1      52.483  18.303  18.202  1.00  0.00     0.121 C 
HETATM   16  C1  UNL     1      52.015  19.665  18.578  1.00  0.00     0.026 C 
ENDBRANCH  13  15
BRANCH  13  17
HETATM   17  C3  UNL     1      52.948  18.842  15.840  1.00  0.00     0.145 C 
BRANCH  17  18
HETATM   18  C4  UNL     1      51.827  17.988  15.308  1.00  0.00     0.141 C 
BRANCH  18  19
HETATM   19  N2  UNL     1      52.289  17.185  14.229  1.00  0.00    -0.388 N 
BRANCH  19  20
HETATM   20  C5  UNL     1      53.143  17.883  13.357  1.00  0.00     0.084 C 
BRANCH  20  21
HETATM   21  C6  UNL     1      52.453  18.744  12.319  1.00  0.00     0.208 C 
BRANCH  21  22
HETATM   22  O1  UNL     1      53.120  19.992  12.257  1.00  0.00    -0.396 OA
ATOM     23  H1  UNL     1      52.602  20.584  11.723  1.00  0.00     0.209 HD
ENDBRANCH  21  22
ENDBRANCH  20  21
ENDBRANCH  19  20
BRANCH  19  24
HETATM   24  C7  UNL     1      52.552  15.824  14.513  1.00  0.00     0.148 C 
BRANCH  24  25
HETATM   25  C8  UNL     1      53.874  15.433  13.872  1.00  0.00     0.183 C 
BRANCH  25  26
HETATM   26  O2  UNL     1      54.820  15.091  14.841  1.00  0.00    -0.399 OA
ATOM     27  H2  UNL     1      55.703  15.253  14.529  1.00  0.00     0.209 HD
ENDBRANCH  25  26
ENDBRANCH  24  25
ENDBRANCH  19  24
ENDBRANCH  18  19
ENDBRANCH  17  18
ENDBRANCH  13  17
ENDBRANCH   1  12
BRANCH   5  28
HETATM   28  N4  UNL     1      56.506  15.482  21.791  1.00  0.00    -0.224 N 
ATOM     29  H4  UNL     1      56.529  16.053  22.636  1.00  0.00     0.177 HD
BRANCH  28  30
HETATM   30  C13 UNL     1      56.930  14.132  21.881  1.00  0.00     0.164 C 
BRANCH  30  31
HETATM   31  C14 UNL     1      56.258  13.393  23.028  1.00  0.00     0.184 C 
BRANCH  31  32
HETATM   32  O4  UNL     1      57.031  12.304  23.446  1.00  0.00    -0.399 OA
ATOM     33  H4  UNL     1      56.635  11.870  24.193  1.00  0.00     0.209 HD
ENDBRANCH  31  32
ENDBRANCH  30  31
ENDBRANCH  28  30
ENDBRANCH   5  28
TORSDOF 15
ENDMDL
MODEL 2
REMARK VINA RESULT: -5.702892036      1.570      2.596
REMARK  15 active torsions:
REMARK  status: ('A' for Active; 'I' for Inactive)
REMARK    1  A    between atoms: C2_2  and  N1_3 
REMARK    2  A    between atoms: N1_3  and  C3_4 
REMARK       I    between atoms: N1_3  and  C9_15 
REMARK    3  A    between atoms: C3_4  and  C4_5 
REMARK    4  A    between atoms: C4_5  and  N2_6 
REMARK    5  A    between atoms: N2_6  and  C5_7 
REMARK    6  A    between atoms: N2_6  and  C7_11 
REMARK    7  A    between atoms: C5_7  and  C6_8 
REMARK    8  A    between atoms: C6_8  and  O1_9 
REMARK    9  A    between atoms: C7_11  and  C8_12 
REMARK   10  A    between atoms: C8_12  and  O2_13 
REMARK   11  A    between atoms: C9_15  and  C10_17 
REMARK   12  A    between atoms: C12_21  and  N4_22 
REMARK   13  A    between atoms: N4_22  and  C13_24 
REMARK   14  A    between atoms: C13_24  and  C14_25 
REMARK   15  A    between atoms: C14_25  and  O4_26 
ROOT
HETATM    1  C10 UNL     1      55.061  17.876  18.298  1.00  0.00     0.092 A 
HETATM    2  C11 UNL     1      54.669  16.582  18.545  1.00  0.00     0.127 A 
HETATM    3  N3  UNL     1      55.117  15.946  19.625  1.00  0.00    -0.201 N 
ATOM      4  H3  UNL     1      54.817  14.986  19.792  1.00  0.00     0.183 HD
HETATM    5  C12 UNL     1      55.967  16.538  20.515  1.00  0.00     0.679 A 
HETATM    6  N5  UNL     1      56.364  17.794  20.301  1.00  0.00    -0.176 N 
ATOM      7  H5  UNL     1      56.998  18.252  20.956  1.00  0.00     0.186 HD
HETATM    8  C15 UNL     1      55.912  18.464  19.191  1.00  0.00     0.132 A 
HETATM    9  N6  UNL     1      56.316  19.665  18.988  1.00  0.00    -0.384 N 
ATOM     10  H61 UNL     1      56.951  20.104  19.655  1.00  0.00     0.157 HD
ATOM     11  H62 UNL     1      55.979  20.162  18.164  1.00  0.00     0.157 HD
ENDROOT
BRANCH   1  12
HETATM   12  C9  UNL     1      54.553  18.577  17.130  1.00  0.00     0.259 C 
HETATM   13  N1  UNL     1      53.294  19.210  17.200  1.00  0.00    -0.347 N 
HETATM   14  O3  UNL     1      55.238  18.616  16.051  1.00  0.00    -0.267 OA
BRANCH  13  15
HETATM   15  C2  UNL     1      52.425  19.233  18.334  1.00  0.00     0.121 C 
HETATM   16  C1  UNL     1      51.818  20.560  18.631  1.00  0.00     0.026 C 
ENDBRANCH  13  15
BRANCH  13  17
HETATM   17  C3  UNL     1      52.829  19.907  15.994  1.00  0.00     0.145 C 
BRANCH  17  18
HETATM   18  C4  UNL     1      51.824  19.027  15.299  1.00  0.00     0.141 C 
BRANCH  18  19
HETATM   19  N2  UNL     1      51.288  19.693  14.164  1.00  0.00    -0.388 N 
BRANCH  19  20
HETATM   20  C5  UNL     1      51.204  18.861  13.033  1.00  0.00     0.084 C 
BRANCH  20  21
HETATM   21  C6  UNL     1      52.482  18.722  12.231  1.00  0.00     0.208 C 
BRANCH  21  22
HETATM   22  O1  UNL     1      53.161  19.965  12.249  1.00  0.00    -0.396 OA
ATOM     23  H1  UNL     1      53.254  20.270  11.354  1.00  0.00     0.209 HD
ENDBRANCH  21  22
ENDBRANCH  20  21
ENDBRANCH  19  20
BRANCH  19  24
HETATM   24  C7  UNL     1      50.263  20.639  14.403  1.00  0.00     0.148 C 
BRANCH  24  25
HETATM   25  C8  UNL     1      50.357  21.743  13.362  1.00  0.00     0.183 C 
BRANCH  25  26
HETATM   26  O2  UNL     1      51.644  22.283  13.319  1.00  0.00    -0.399 OA
ATOM     27  H2  UNL     1      51.687  23.101  13.800  1.00  0.00     0.209 HD
ENDBRANCH  25  26
ENDBRANCH  24  25
ENDBRANCH  19  24
ENDBRANCH  18  19
ENDBRANCH  17  18
ENDBRANCH  13  17
ENDBRANCH   1  12
BRANCH   5  28
HETATM   28  N4  UNL     1      56.377  15.903  21.540  1.00  0.00    -0.224 N 
ATOM     29  H4  UNL     1      56.265  16.338  22.455  1.00  0.00     0.177 HD
BRANCH  28  30
HETATM   30  C13 UNL     1      56.982  14.623  21.473  1.00  0.00     0.164 C 
BRANCH  30  31
HETATM   31  C14 UNL     1      56.501  13.700  22.582  1.00  0.00     0.184 C 
BRANCH  31  32
HETATM   32  O4  UNL     1      57.515  12.821  22.979  1.00  0.00    -0.399 OA
ATOM     33  H4  UNL     1      57.222  11.918  22.931  1.00  0.00     0.209 HD
ENDBRANCH  31  32
ENDBRANCH  30  31
ENDBRANCH  28  30
ENDBRANCH   5  28
TORSDOF 15
ENDMDL
MODEL 3
REMARK VINA RESULT: -5.657930794      6.510      9.320
REMARK  15 active torsions:
REMARK  status: ('A' for Active; 'I' for Inactive)
REMARK    1  A    between atoms: C2_2  and  N1_3 
REMARK    2  A    between atoms: N1_3  and  C3_4 
REMARK       I    between atoms: N1_3  and  C9_15 
REMARK    3  A    between atoms: C3_4  and  C4_5 
REMARK    4  A    between atoms: C4_5  and  N2_6 
REMARK    5  A    between atoms: N2_6  and  C5_7 
REMARK    6  A    between atoms: N2_6  and  C7_11 
REMARK    7  A    between atoms: C5_7  and  C6_8 
REMARK    8  A    between atoms: C6_8  and  O1_9 
REMARK    9  A    between atoms: C7_11  and  C8_12 
REMARK   10  A    between atoms: C8_12  and  O2_13 
REMARK   11  A    between atoms: C9_15  and  C10_17 
REMARK   12  A    between atoms: C12_21  and  N4_22 
REMARK   13  A    between atoms: N4_22  and  C13_24 
REMARK   14  A    between atoms: C13_24  and  C14_25 
REMARK   15  A    between atoms: C14_25  and  O4_26 
ROOT
HETATM    1  C10 UNL     1      56.900  12.996  13.774  1.00  0.00     0.092 A 
HETATM    2  C11 UNL     1      56.584  14.232  14.286  1.00  0.00     0.127 A 
HETATM    3  N3  UNL     1      57.217  15.316  13.844  1.00  0.00    -0.201 N 
ATOM      4  H3  UNL     1      56.971  16.225  14.235  1.00  0.00     0.183 HD
HETATM    5  C12 UNL     1      58.186  15.249  12.884  1.00  0.00     0.679 A 
HETATM    6  N5  UNL     1      58.513  14.063  12.368  1.00  0.00    -0.176 N 
ATOM      7  H5  UNL     1      59.234  13.995  11.650  1.00  0.00     0.186 HD
HETATM    8  C15 UNL     1      57.870  12.935  12.814  1.00  0.00     0.132 A 
HETATM    9  N6  UNL     1      58.207  11.797  12.323  1.00  0.00    -0.384 N 
ATOM     10  H61 UNL     1      58.931  11.752  11.606  1.00  0.00     0.157 HD
ATOM     11  H62 UNL     1      57.728  10.960  12.654  1.00  0.00     0.157 HD
ENDROOT
BRANCH   1  12
HETATM   12  C9  UNL     1      56.191  11.816  14.241  1.00  0.00     0.259 C 
HETATM   13  N1  UNL     1      54.836  11.642  13.891  1.00  0.00    -0.347 N 
HETATM   14  O3  UNL     1      56.789  10.947  14.964  1.00  0.00    -0.267 OA
BRANCH  13  15
HETATM   15  C2  UNL     1      54.048  12.537  13.104  1.00  0.00     0.121 C 
HETATM   16  C1  UNL     1      53.049  13.331  13.870  1.00  0.00     0.026 C 
ENDBRANCH  13  15
BRANCH  13  17
HETATM   17  C3  UNL     1      54.168  10.432  14.386  1.00  0.00     0.145 C 
BRANCH  17  18
HETATM   18  C4  UNL     1      53.526   9.735  13.215  1.00  0.00     0.141 C 
BRANCH  18  19
HETATM   19  N2  UNL     1      54.024   8.409  13.097  1.00  0.00    -0.388 N 
BRANCH  19  20
HETATM   20  C5  UNL     1      53.110   7.441  13.550  1.00  0.00     0.084 C 
BRANCH  20  21
HETATM   21  C6  UNL     1      52.877   6.274  12.611  1.00  0.00     0.208 C 
BRANCH  21  22
HETATM   22  O1  UNL     1      53.429   5.110  13.197  1.00  0.00    -0.396 OA
ATOM     23  H1  UNL     1      54.333   5.289  13.428  1.00  0.00     0.209 HD
ENDBRANCH  21  22
ENDBRANCH  20  21
ENDBRANCH  19  20
BRANCH  19  24
HETATM   24  C7  UNL     1      54.827   8.125  11.967  1.00  0.00     0.148 C 
BRANCH  24  25
HETATM   25  C8  UNL     1      56.276   8.446  12.297  1.00  0.00     0.183 C 
BRANCH  25  26
HETATM   26  O2  UNL     1      56.725   9.548  11.565  1.00  0.00    -0.399 OA
ATOM     27  H2  UNL     1      56.325  10.351  11.877  1.00  0.00     0.209 HD
ENDBRANCH  25  26
ENDBRANCH  24  25
ENDBRANCH  19  24
ENDBRANCH  18  19
ENDBRANCH  17  18
ENDBRANCH  13  17
ENDBRANCH   1  12
BRANCH   5  28
HETATM   28  N4  UNL     1      58.773  16.306  12.481  1.00  0.00    -0.224 N 
ATOM     29  H4  UNL     1      58.851  17.091  13.127  1.00  0.00     0.177 HD
BRANCH  28  30
HETATM   30  C13 UNL     1      59.323  16.445  11.182  1.00  0.00     0.164 C 
BRANCH  30  31
HETATM   31  C14 UNL     1      60.825  16.209  11.165  1.00  0.00     0.184 C 
BRANCH  31  32
HETATM   32  O4  UNL     1      61.139  15.005  10.525  1.00  0.00    -0.399 OA
ATOM     33  H4  UNL     1      62.022  14.726  10.734  1.00  0.00     0.209 HD
ENDBRANCH  31  32
ENDBRANCH  30  31
ENDBRANCH  28  30
ENDBRANCH   5  28
TORSDOF 15
ENDMDL
MODEL 4
REMARK VINA RESULT: -5.640971970      2.450      3.943
REMARK  15 active torsions:
REMARK  status: ('A' for Active; 'I' for Inactive)
REMARK    1  A    between atoms: C2_2  and  N1_3 
REMARK    2  A    between atoms: N1_3  and  C3_4 
REMARK       I    between atoms: N1_3  and  C9_15 
REMARK    3  A    between atoms: C3_4  and  C4_5 
REMARK    4  A    between atoms: C4_5  and  N2_6 
REMARK    5  A    between atoms: N2_6  and  C5_7 
REMARK    6  A    between atoms: N2_6  and  C7_11 
REMARK    7  A    between atoms: C5_7  and  C6_8 
REMARK    8  A    between atoms: C6_8  and  O1_9 
REMARK    9  A    between atoms: C7_11  and  C8_12 
REMARK   10  A    between atoms: C8_12  and  O2_13 
REMARK   11  A    between atoms: C9_15  and  C10_17 
REMARK   12  A    between atoms: C12_21  and  N4_22 
REMARK   13  A    between atoms: N4_22  and  C13_24 
REMARK   14  A    between atoms: C13_24  and  C14_25 
REMARK   15  A    between atoms: C14_25  and  O4_26 
ROOT
HETATM    1  C10 UNL     1      55.570  17.665  18.908  1.00  0.00     0.092 A 
HETATM    2  C11 UNL     1      56.023  18.940  18.665  1.00  0.00     0.127 A 
HETATM    3  N3  UNL     1      56.774  19.562  19.571  1.00  0.00    -0.201 N 
ATOM      4  H3  UNL     1      57.101  20.508  19.375  1.00  0.00     0.183 HD
HETATM    5  C12 UNL     1      57.121  18.974  20.753  1.00  0.00     0.679 A 
HETATM    6  N5  UNL     1      56.696  17.736  21.016  1.00  0.00    -0.176 N 
ATOM      7  H5  UNL     1      56.946  17.281  21.894  1.00  0.00     0.186 HD
HETATM    8  C15 UNL     1      55.919  17.081  20.092  1.00  0.00     0.132 A 
HETATM    9  N6  UNL     1      55.502  15.898  20.365  1.00  0.00    -0.384 N 
ATOM     10  H61 UNL     1      55.763  15.462  21.249  1.00  0.00     0.157 HD
ATOM     11  H62 UNL     1      54.925  15.412  19.679  1.00  0.00     0.157 HD
ENDROOT
BRANCH   1  12
HETATM   12  C9  UNL     1      54.768  16.979  17.907  1.00  0.00     0.259 C 
HETATM   13  N1  UNL     1      53.403  17.308  17.774  1.00  0.00    -0.347 N 
HETATM   14  O3  UNL     1      55.295  16.087  17.158  1.00  0.00    -0.267 OA
BRANCH  13  15
HETATM   15  C2  UNL     1      52.689  18.273  18.550  1.00  0.00     0.121 C 
HETATM   16  C1  UNL     1      51.663  17.704  19.466  1.00  0.00     0.026 C 
ENDBRANCH  13  15
BRANCH  13  17
HETATM   17  C3  UNL     1      52.640  16.589  16.747  1.00  0.00     0.145 C 
BRANCH  17  18
HETATM   18  C4  UNL     1      52.252  17.571  15.673  1.00  0.00     0.141 C 
BRANCH  18  19
HETATM   19  N2  UNL     1      53.134  17.464  14.564  1.00  0.00    -0.388 N 
BRANCH  19  20
HETATM   20  C5  UNL     1      52.799  16.405  13.702  1.00  0.00     0.084 C 
BRANCH  20  21
HETATM   21  C6  UNL     1      53.964  15.568  13.213  1.00  0.00     0.208 C 
BRANCH  21  22
HETATM   22  O1  UNL     1      54.877  15.402  14.283  1.00  0.00    -0.396 OA
ATOM     23  H1  UNL     1      55.758  15.388  13.927  1.00  0.00     0.209 HD
ENDBRANCH  21  22
ENDBRANCH  20  21
ENDBRANCH  19  20
BRANCH  19  24
HETATM   24  C7  UNL     1      53.622  18.674  14.015  1.00  0.00     0.148 C 
BRANCH  24  25
HETATM   25  C8  UNL     1      54.865  19.097  14.780  1.00  0.00     0.183 C 
BRANCH  25  26
HETATM   26  O2  UNL     1      55.776  18.044  14.881  1.00  0.00    -0.399 OA
ATOM     27  H2  UNL     1      56.013  17.883  15.787  1.00  0.00     0.209 HD
ENDBRANCH  25  26
ENDBRANCH  24  25
ENDBRANCH  19  24
ENDBRANCH  18  19
ENDBRANCH  17  18
ENDBRANCH  13  17
ENDBRANCH   1  12
BRANCH   5  28
HETATM   28  N4  UNL     1      57.843  19.595  21.599  1.00  0.00    -0.224 N 
ATOM     29  H4  UNL     1      58.124  19.105  22.448  1.00  0.00     0.177 HD
BRANCH  28  30
HETATM   30  C13 UNL     1      58.275  20.934  21.421  1.00  0.00     0.164 C 
BRANCH  30  31
HETATM   31  C14 UNL     1      57.698  21.869  22.473  1.00  0.00     0.184 C 
BRANCH  31  32
HETATM   32  O4  UNL     1      56.305  21.951  22.363  1.00  0.00    -0.399 OA
ATOM     33  H4  UNL     1      55.895  21.956  23.220  1.00  0.00     0.209 HD
ENDBRANCH  31  32
ENDBRANCH  30  31
ENDBRANCH  28  30
ENDBRANCH   5  28
TORSDOF 15
ENDMDL
MODEL 5
REMARK VINA RESULT: -5.640689466      0.539      1.343
REMARK  15 active torsions:
REMARK  status: ('A' for Active; 'I' for Inactive)
REMARK    1  A    between atoms: C2_2  and  N1_3 
REMARK    2  A    between atoms: N1_3  and  C3_4 
REMARK       I    between atoms: N1_3  and  C9_15 
REMARK    3  A    between atoms: C3_4  and  C4_5 
REMARK    4  A    between atoms: C4_5  and  N2_6 
REMARK    5  A    between atoms: N2_6  and  C5_7 
REMARK    6  A    between atoms: N2_6  and  C7_11 
REMARK    7  A    between atoms: C5_7  and  C6_8 
REMARK    8  A    between atoms: C6_8  and  O1_9 
REMARK    9  A    between atoms: C7_11  and  C8_12 
REMARK   10  A    between atoms: C8_12  and  O2_13 
REMARK   11  A    between atoms: C9_15  and  C10_17 
REMARK   12  A    between atoms: C12_21  and  N4_22 
REMARK   13  A    between atoms: N4_22  and  C13_24 
REMARK   14  A    between atoms: C13_24  and  C14_25 
REMARK   15  A    between atoms: C14_25  and  O4_26 
ROOT
HETATM    1  C10 UNL     1      55.220  17.149  18.362  1.00  0.00     0.092 A 
HETATM    2  C11 UNL     1      55.850  17.946  19.288  1.00  0.00     0.127 A 
HETATM    3  N3  UNL     1      56.322  17.413  20.412  1.00  0.00    -0.201 N 
ATOM      4  H3  UNL     1      56.786  18.019  21.089  1.00  0.00     0.183 HD
HETATM    5  C12 UNL     1      56.205  16.081  20.689  1.00  0.00     0.679 A 
HETATM    6  N5  UNL     1      55.598  15.283  19.808  1.00  0.00    -0.176 N 
ATOM      7  H5  UNL     1      55.502  14.285  19.998  1.00  0.00     0.186 HD
HETATM    8  C15 UNL     1      55.105  15.817  18.644  1.00  0.00     0.132 A 
HETATM    9  N6  UNL     1      54.507  15.042  17.813  1.00  0.00    -0.384 N 
ATOM     10  H61 UNL     1      54.421  14.047  18.023  1.00  0.00     0.157 HD
ATOM     11  H62 UNL     1      54.141  15.439  16.948  1.00  0.00     0.157 HD
ENDROOT
BRANCH   1  12
HETATM   12  C9  UNL     1      54.725  17.729  17.124  1.00  0.00     0.259 C 
HETATM   13  N1  UNL     1      53.465  18.363  17.115  1.00  0.00    -0.347 N 
HETATM   14  O3  UNL     1      55.424  17.664  16.056  1.00  0.00    -0.267 OA
BRANCH  13  15
HETATM   15  C2  UNL     1      52.581  18.495  18.230  1.00  0.00     0.121 C 
HETATM   16  C1  UNL     1      52.093  19.879  18.482  1.00  0.00     0.026 C 
ENDBRANCH  13  15
BRANCH  13  17
HETATM   17  C3  UNL     1      53.014  18.936  15.841  1.00  0.00     0.145 C 
BRANCH  17  18
HETATM   18  C4  UNL     1      51.855  18.115  15.339  1.00  0.00     0.141 C 
BRANCH  18  19
HETATM   19  N2  UNL     1      52.276  17.263  14.282  1.00  0.00    -0.388 N 
BRANCH  19  20
HETATM   20  C5  UNL     1      53.137  17.905  13.374  1.00  0.00     0.084 C 
BRANCH  20  21
HETATM   21  C6  UNL     1      52.457  18.776  12.337  1.00  0.00     0.208 C 
BRANCH  21  22
HETATM   22  O1  UNL     1      53.165  19.999  12.244  1.00  0.00    -0.396 OA
ATOM     23  H1  UNL     1      53.292  20.340  13.122  1.00  0.00     0.209 HD
ENDBRANCH  21  22
ENDBRANCH  20  21
ENDBRANCH  19  20
BRANCH  19  24
HETATM   24  C7  UNL     1      52.506  15.905  14.609  1.00  0.00     0.148 C 
BRANCH  24  25
HETATM   25  C8  UNL     1      53.766  15.433  13.903  1.00  0.00     0.183 C 
BRANCH  25  26
HETATM   26  O2  UNL     1      54.749  15.064  14.824  1.00  0.00    -0.399 OA
ATOM     27  H2  UNL     1      55.617  15.127  14.441  1.00  0.00     0.209 HD
ENDBRANCH  25  26
ENDBRANCH  24  25
ENDBRANCH  19  24
ENDBRANCH  18  19
ENDBRANCH  17  18
ENDBRANCH  13  17
ENDBRANCH   1  12
BRANCH   5  28
HETATM   28  N4  UNL     1      56.668  15.601  21.774  1.00  0.00    -0.224 N 
ATOM     29  H4  UNL     1      57.487  16.046  22.189  1.00  0.00     0.177 HD
BRANCH  28  30
HETATM   30  C13 UNL     1      56.105  14.480  22.434  1.00  0.00     0.164 C 
BRANCH  30  31
HETATM   31  C14 UNL     1      57.045  13.285  22.442  1.00  0.00     0.184 C 
BRANCH  31  32
HETATM   32  O4  UNL     1      56.816  12.472  23.558  1.00  0.00    -0.399 OA
ATOM     33  H4  UNL     1      57.573  11.929  23.746  1.00  0.00     0.209 HD
ENDBRANCH  31  32
ENDBRANCH  30  31
ENDBRANCH  28  30
ENDBRANCH   5  28
TORSDOF 15
ENDMDL
