MODEL 1
REMARK VINA RESULT: -7.446697013      0.000      0.000
REMARK  10 active torsions:
REMARK  status: ('A' for Active; 'I' for Inactive)
REMARK    1  A    between atoms: C2_2  and  C3_3 
REMARK    2  A    between atoms: C3_3  and  C4_4 
REMARK    3  A    between atoms: C4_4  and  C5_5 
REMARK    4  A    between atoms: C5_5  and  N1_6 
REMARK    5  A    between atoms: C5_5  and  C9_12 
REMARK    6  A    between atoms: N1_6  and  O1_8 
REMARK    7  A    between atoms: O1_8  and  C6_9 
REMARK       I    between atoms: C9_12  and  N2_14 
REMARK    8  A    between atoms: N2_14  and  C10_15 
REMARK    9  A    between atoms: C10_15  and  C11_16 
REMARK       I    between atoms: C11_16  and  N3_18 
REMARK   10  A    between atoms: N3_18  and  C12_20 
REMARK       I    between atoms: N5_35  and  C24_36 
ROOT
HETATM    1  C10 UNL     1      18.356  16.412  32.815  1.00  0.00     0.192 C 
HETATM    2  C21 UNL     1      18.789  15.440  31.644  1.00  0.00     0.059 C 
HETATM    3  C22 UNL     1      19.239  14.132  32.017  1.00  0.00     0.024 C 
HETATM    4  C23 UNL     1      18.596  13.529  33.200  1.00  0.00     0.125 C 
HETATM    5  N5  UNL     1      17.413  14.308  33.636  1.00  0.00    -0.352 N 
HETATM    6  C24 UNL     1      16.475  13.495  34.187  1.00  0.00     0.184 C 
HETATM    7  N6  UNL     1      15.530  12.796  33.799  1.00  0.00    -0.374 N 
ATOM      8  H61 UNL     1      14.825  12.185  34.213  1.00  0.00     0.158 HD
ATOM      9  H62 UNL     1      15.308  13.075  32.843  1.00  0.00     0.158 HD
HETATM   10  N7  UNL     1      16.800  13.087  35.588  1.00  0.00    -0.064 NA
HETATM   11  C25 UNL     1      17.267  15.759  33.471  1.00  0.00     0.181 C 
ENDROOT
BRANCH   1  12
HETATM   12  N2  UNL     1      18.541  17.602  32.202  1.00  0.00    -0.390 NA
HETATM   13  C9  UNL     1      18.291  18.810  31.662  1.00  0.00     0.312 C 
HETATM   14  O2  UNL     1      17.409  19.445  31.310  1.00  0.00    -0.255 OA
BRANCH  13  15
HETATM   15  C5  UNL     1      19.707  19.523  31.576  1.00  0.00     0.212 C 
BRANCH  15  16
HETATM   16  C4  UNL     1      19.374  20.958  32.055  1.00  0.00     0.042 C 
BRANCH  16  17
HETATM   17  C3  UNL     1      20.573  21.861  32.041  1.00  0.00     0.029 C 
BRANCH  17  18
HETATM   18  C2  UNL     1      20.243  23.099  31.299  1.00  0.00    -0.037 C 
HETATM   19  C1  UNL     1      20.523  23.304  30.102  1.00  0.00     0.007 C 
ENDBRANCH  17  18
ENDBRANCH  16  17
ENDBRANCH  15  16
BRANCH  15  20
HETATM   20  N1  UNL     1      20.459  19.578  30.491  1.00  0.00    -0.287 N 
ATOM     21  H1  UNL     1      21.317  20.124  30.416  1.00  0.00     0.188 HD
BRANCH  20  22
HETATM   22  O1  UNL     1      19.953  18.825  29.497  1.00  0.00    -0.280 OA
BRANCH  22  23
HETATM   23  C6  UNL     1      20.109  19.525  28.287  1.00  0.00     0.143 C 
HETATM   24  C7  UNL     1      21.478  20.105  28.324  1.00  0.00     0.042 C 
HETATM   25  C8  UNL     1      19.014  20.576  28.158  1.00  0.00     0.042 C 
ENDBRANCH  22  23
ENDBRANCH  20  22
ENDBRANCH  15  20
ENDBRANCH  13  15
ENDBRANCH   1  12
BRANCH   1  26
HETATM   26  C11 UNL     1      19.602  16.455  33.830  1.00  0.00     0.261 C 
HETATM   27  O3  UNL     1      19.498  16.406  34.978  1.00  0.00    -0.269 OA
HETATM   28  N3  UNL     1      20.797  16.571  33.141  1.00  0.00    -0.352 N 
ATOM     29  H3  UNL     1      20.752  16.433  32.132  1.00  0.00     0.163 HD
BRANCH  28  30
HETATM   30  C12 UNL     1      22.102  16.868  33.688  1.00  0.00     0.098 C 
HETATM   31  C13 UNL     1      22.872  15.606  33.783  1.00  0.00     0.032 C 
HETATM   32  C14 UNL     1      24.345  15.683  33.581  1.00  0.00     0.005 C 
HETATM   33  C15 UNL     1      24.924  17.020  33.967  1.00  0.00     0.006 C 
HETATM   34  C20 UNL     1      24.736  15.189  32.228  1.00  0.00     0.127 C 
HETATM   35  C16 UNL     1      24.956  18.040  32.879  1.00  0.00     0.001 C 
HETATM   36  C17 UNL     1      23.575  18.686  32.861  1.00  0.00     0.016 C 
HETATM   37  C18 UNL     1      22.617  17.679  32.407  1.00  0.00     0.100 C 
HETATM   38  C19 UNL     1      23.032  16.827  31.329  1.00  0.00     0.223 C 
HETATM   39  O4  UNL     1      22.729  17.285  30.165  1.00  0.00    -0.273 OA
HETATM   40  N4  UNL     1      23.691  15.554  31.297  1.00  0.00    -0.360 N 
ATOM     41  H4  UNL     1      23.411  14.877  30.588  1.00  0.00     0.162 HD
ENDBRANCH  28  30
ENDBRANCH   1  26
TORSDOF 10
ENDMDL
MODEL 2
REMARK VINA RESULT: -7.385418318      0.941      2.045
REMARK  10 active torsions:
REMARK  status: ('A' for Active; 'I' for Inactive)
REMARK    1  A    between atoms: C2_2  and  C3_3 
REMARK    2  A    between atoms: C3_3  and  C4_4 
REMARK    3  A    between atoms: C4_4  and  C5_5 
REMARK    4  A    between atoms: C5_5  and  N1_6 
REMARK    5  A    between atoms: C5_5  and  C9_12 
REMARK    6  A    between atoms: N1_6  and  O1_8 
REMARK    7  A    between atoms: O1_8  and  C6_9 
REMARK       I    between atoms: C9_12  and  N2_14 
REMARK    8  A    between atoms: N2_14  and  C10_15 
REMARK    9  A    between atoms: C10_15  and  C11_16 
REMARK       I    between atoms: C11_16  and  N3_18 
REMARK   10  A    between atoms: N3_18  and  C12_20 
REMARK       I    between atoms: N5_35  and  C24_36 
ROOT
HETATM    1  C10 UNL     1      18.418  16.533  32.574  1.00  0.00     0.192 C 
HETATM    2  C21 UNL     1      18.998  15.561  31.469  1.00  0.00     0.059 C 
HETATM    3  C22 UNL     1      19.528  14.308  31.917  1.00  0.00     0.024 C 
HETATM    4  C23 UNL     1      18.865  13.694  33.083  1.00  0.00     0.125 C 
HETATM    5  N5  UNL     1      17.598  14.387  33.419  1.00  0.00    -0.352 N 
HETATM    6  C24 UNL     1      16.696  13.518  33.945  1.00  0.00     0.184 C 
HETATM    7  N6  UNL     1      15.836  12.731  33.530  1.00  0.00    -0.374 N 
ATOM      8  H61 UNL     1      15.158  12.079  33.925  1.00  0.00     0.158 HD
ATOM      9  H62 UNL     1      15.651  12.959  32.553  1.00  0.00     0.158 HD
HETATM   10  N7  UNL     1      16.967  13.185  35.378  1.00  0.00    -0.064 NA
HETATM   11  C25 UNL     1      17.347  15.815  33.190  1.00  0.00     0.181 C 
ENDROOT
BRANCH   1  12
HETATM   12  N2  UNL     1      18.544  17.713  31.928  1.00  0.00    -0.390 NA
HETATM   13  C9  UNL     1      18.241  18.908  31.385  1.00  0.00     0.312 C 
HETATM   14  O2  UNL     1      17.328  19.526  31.086  1.00  0.00    -0.255 OA
BRANCH  13  15
HETATM   15  C5  UNL     1      19.639  19.634  31.184  1.00  0.00     0.212 C 
BRANCH  15  16
HETATM   16  C4  UNL     1      20.333  18.712  30.150  1.00  0.00     0.042 C 
BRANCH  16  17
HETATM   17  C3  UNL     1      20.187  19.214  28.743  1.00  0.00     0.029 C 
BRANCH  17  18
HETATM   18  C2  UNL     1      21.331  20.096  28.417  1.00  0.00    -0.037 C 
HETATM   19  C1  UNL     1      21.229  21.278  28.035  1.00  0.00     0.007 C 
ENDBRANCH  17  18
ENDBRANCH  16  17
ENDBRANCH  15  16
BRANCH  15  20
HETATM   20  N1  UNL     1      20.483  19.928  32.156  1.00  0.00    -0.287 N 
ATOM     21  H1  UNL     1      20.672  19.321  32.953  1.00  0.00     0.188 HD
BRANCH  20  22
HETATM   22  O1  UNL     1      21.062  21.128  31.965  1.00  0.00    -0.280 OA
BRANCH  22  23
HETATM   23  C6  UNL     1      20.065  22.118  32.034  1.00  0.00     0.143 C 
HETATM   24  C7  UNL     1      20.494  23.194  31.102  1.00  0.00     0.042 C 
HETATM   25  C8  UNL     1      19.912  22.592  33.473  1.00  0.00     0.042 C 
ENDBRANCH  22  23
ENDBRANCH  20  22
ENDBRANCH  15  20
ENDBRANCH  13  15
ENDBRANCH   1  12
BRANCH   1  26
HETATM   26  C11 UNL     1      19.592  16.712  33.658  1.00  0.00     0.261 C 
HETATM   27  O3  UNL     1      19.407  16.861  34.787  1.00  0.00    -0.269 OA
HETATM   28  N3  UNL     1      20.835  16.677  33.050  1.00  0.00    -0.352 N 
ATOM     29  H3  UNL     1      20.854  16.370  32.077  1.00  0.00     0.163 HD
BRANCH  28  30
HETATM   30  C12 UNL     1      22.111  17.025  33.636  1.00  0.00     0.098 C 
HETATM   31  C13 UNL     1      22.694  15.811  34.251  1.00  0.00     0.032 C 
HETATM   32  C14 UNL     1      24.177  15.677  34.235  1.00  0.00     0.005 C 
HETATM   33  C15 UNL     1      24.889  17.006  34.223  1.00  0.00     0.006 C 
HETATM   34  C20 UNL     1      24.626  14.708  33.191  1.00  0.00     0.127 C 
HETATM   35  C16 UNL     1      25.158  17.574  32.869  1.00  0.00     0.001 C 
HETATM   36  C17 UNL     1      23.881  18.297  32.451  1.00  0.00     0.016 C 
HETATM   37  C18 UNL     1      22.847  17.287  32.237  1.00  0.00     0.100 C 
HETATM   38  C19 UNL     1      23.245  16.078  31.575  1.00  0.00     0.223 C 
HETATM   39  O4  UNL     1      23.116  16.126  30.294  1.00  0.00    -0.273 OA
HETATM   40  N4  UNL     1      23.731  14.820  32.061  1.00  0.00    -0.360 N 
ATOM     41  H4  UNL     1      23.431  13.966  31.588  1.00  0.00     0.162 HD
ENDBRANCH  28  30
ENDBRANCH   1  26
TORSDOF 10
ENDMDL
MODEL 3
REMARK VINA RESULT: -7.344775531      1.720      2.656
REMARK  10 active torsions:
REMARK  status: ('A' for Active; 'I' for Inactive)
REMARK    1  A    between atoms: C2_2  and  C3_3 
REMARK    2  A    between atoms: C3_3  and  C4_4 
REMARK    3  A    between atoms: C4_4  and  C5_5 
REMARK    4  A    between atoms: C5_5  and  N1_6 
REMARK    5  A    between atoms: C5_5  and  C9_12 
REMARK    6  A    between atoms: N1_6  and  O1_8 
REMARK    7  A    between atoms: O1_8  and  C6_9 
REMARK       I    between atoms: C9_12  and  N2_14 
REMARK    8  A    between atoms: N2_14  and  C10_15 
REMARK    9  A    between atoms: C10_15  and  C11_16 
REMARK       I    between atoms: C11_16  and  N3_18 
REMARK   10  A    between atoms: N3_18  and  C12_20 
REMARK       I    between atoms: N5_35  and  C24_36 
ROOT
HETATM    1  C10 UNL     1      17.728  16.916  31.709  1.00  0.00     0.192 C 
HETATM    2  C21 UNL     1      17.848  15.767  30.628  1.00  0.00     0.059 C 
HETATM    3  C22 UNL     1      18.444  14.535  31.050  1.00  0.00     0.024 C 
HETATM    4  C23 UNL     1      18.196  14.131  32.447  1.00  0.00     0.125 C 
HETATM    5  N5  UNL     1      17.155  14.972  33.083  1.00  0.00    -0.352 N 
HETATM    6  C24 UNL     1      16.452  14.260  34.002  1.00  0.00     0.184 C 
HETATM    7  N6  UNL     1      15.468  13.510  34.019  1.00  0.00    -0.374 N 
ATOM      8  H61 UNL     1      14.940  12.976  34.709  1.00  0.00     0.158 HD
ATOM      9  H62 UNL     1      14.968  13.633  33.138  1.00  0.00     0.158 HD
HETATM   10  N7  UNL     1      17.185  14.081  35.293  1.00  0.00    -0.064 NA
HETATM   11  C25 UNL     1      16.904  16.379  32.747  1.00  0.00     0.181 C 
ENDROOT
BRANCH   1  12
HETATM   12  N2  UNL     1      17.675  17.991  30.894  1.00  0.00    -0.390 NA
HETATM   13  C9  UNL     1      17.193  18.974  30.110  1.00  0.00     0.312 C 
HETATM   14  O2  UNL     1      16.231  19.268  29.567  1.00  0.00    -0.255 OA
BRANCH  13  15
HETATM   15  C5  UNL     1      18.372  20.033  30.006  1.00  0.00     0.212 C 
BRANCH  15  16
HETATM   16  C4  UNL     1      19.187  19.488  28.806  1.00  0.00     0.042 C 
BRANCH  16  17
HETATM   17  C3  UNL     1      20.010  20.552  28.140  1.00  0.00     0.029 C 
BRANCH  17  18
HETATM   18  C2  UNL     1      19.123  21.653  27.700  1.00  0.00    -0.037 C 
HETATM   19  C1  UNL     1      19.505  22.674  27.098  1.00  0.00     0.007 C 
ENDBRANCH  17  18
ENDBRANCH  16  17
ENDBRANCH  15  16
BRANCH  15  20
HETATM   20  N1  UNL     1      19.189  20.351  30.993  1.00  0.00    -0.287 N 
ATOM     21  H1  UNL     1      19.954  19.758  31.317  1.00  0.00     0.188 HD
BRANCH  20  22
HETATM   22  O1  UNL     1      18.891  21.553  31.518  1.00  0.00    -0.280 OA
BRANCH  22  23
HETATM   23  C6  UNL     1      20.094  22.216  31.821  1.00  0.00     0.143 C 
HETATM   24  C7  UNL     1      19.963  22.677  33.229  1.00  0.00     0.042 C 
HETATM   25  C8  UNL     1      20.316  23.354  30.834  1.00  0.00     0.042 C 
ENDBRANCH  22  23
ENDBRANCH  20  22
ENDBRANCH  15  20
ENDBRANCH  13  15
ENDBRANCH   1  12
BRANCH   1  26
HETATM   26  C11 UNL     1      19.209  17.117  32.299  1.00  0.00     0.261 C 
HETATM   27  O3  UNL     1      19.436  17.343  33.408  1.00  0.00    -0.269 OA
HETATM   28  N3  UNL     1      20.160  16.998  31.299  1.00  0.00    -0.352 N 
ATOM     29  H3  UNL     1      19.831  16.631  30.405  1.00  0.00     0.163 HD
BRANCH  28  30
HETATM   30  C12 UNL     1      21.564  17.333  31.375  1.00  0.00     0.098 C 
HETATM   31  C13 UNL     1      22.283  16.209  32.017  1.00  0.00     0.032 C 
HETATM   32  C14 UNL     1      23.679  15.942  31.571  1.00  0.00     0.005 C 
HETATM   33  C15 UNL     1      24.382  17.175  31.063  1.00  0.00     0.006 C 
HETATM   34  C20 UNL     1      23.743  14.757  30.664  1.00  0.00     0.127 C 
HETATM   35  C16 UNL     1      24.216  17.451  29.607  1.00  0.00     0.001 C 
HETATM   36  C17 UNL     1      22.892  18.194  29.464  1.00  0.00     0.016 C 
HETATM   37  C18 UNL     1      21.818  17.259  29.795  1.00  0.00     0.100 C 
HETATM   38  C19 UNL     1      21.952  15.916  29.308  1.00  0.00     0.223 C 
HETATM   39  O4  UNL     1      21.419  15.734  28.149  1.00  0.00    -0.273 OA
HETATM   40  N4  UNL     1      22.535  14.734  29.869  1.00  0.00    -0.360 N 
ATOM     41  H4  UNL     1      22.078  13.837  29.701  1.00  0.00     0.162 HD
ENDBRANCH  28  30
ENDBRANCH   1  26
TORSDOF 10
ENDMDL
MODEL 4
REMARK VINA RESULT: -7.308504280      3.091      4.511
REMARK  10 active torsions:
REMARK  status: ('A' for Active; 'I' for Inactive)
REMARK    1  A    between atoms: C2_2  and  C3_3 
REMARK    2  A    between atoms: C3_3  and  C4_4 
REMARK    3  A    between atoms: C4_4  and  C5_5 
REMARK    4  A    between atoms: C5_5  and  N1_6 
REMARK    5  A    between atoms: C5_5  and  C9_12 
REMARK    6  A    between atoms: N1_6  and  O1_8 
REMARK    7  A    between atoms: O1_8  and  C6_9 
REMARK       I    between atoms: C9_12  and  N2_14 
REMARK    8  A    between atoms: N2_14  and  C10_15 
REMARK    9  A    between atoms: C10_15  and  C11_16 
REMARK       I    between atoms: C11_16  and  N3_18 
REMARK   10  A    between atoms: N3_18  and  C12_20 
REMARK       I    between atoms: N5_35  and  C24_36 
ROOT
HETATM    1  C10 UNL     1      18.104  17.336  28.314  1.00  0.00     0.192 C 
HETATM    2  C21 UNL     1      19.021  16.192  27.720  1.00  0.00     0.059 C 
HETATM    3  C22 UNL     1      18.601  14.840  27.942  1.00  0.00     0.024 C 
HETATM    4  C23 UNL     1      17.146  14.600  27.970  1.00  0.00     0.125 C 
HETATM    5  N5  UNL     1      16.388  15.787  27.508  1.00  0.00    -0.352 N 
HETATM    6  C24 UNL     1      15.238  15.416  26.887  1.00  0.00     0.184 C 
HETATM    7  N6  UNL     1      14.879  15.085  25.750  1.00  0.00    -0.374 N 
ATOM      8  H61 UNL     1      14.016  14.806  25.284  1.00  0.00     0.158 HD
ATOM      9  H62 UNL     1      15.617  15.357  25.100  1.00  0.00     0.158 HD
HETATM   10  N7  UNL     1      14.157  15.017  27.841  1.00  0.00    -0.064 NA
HETATM   11  C25 UNL     1      16.833  17.176  27.680  1.00  0.00     0.181 C 
ENDROOT
BRANCH   1  12
HETATM   12  N2  UNL     1      19.014  18.328  28.415  1.00  0.00    -0.390 NA
HETATM   13  C9  UNL     1      20.087  19.105  28.167  1.00  0.00     0.312 C 
HETATM   14  O2  UNL     1      21.062  19.085  27.573  1.00  0.00    -0.255 OA
BRANCH  13  15
HETATM   15  C5  UNL     1      19.794  20.466  28.931  1.00  0.00     0.212 C 
BRANCH  15  16
HETATM   16  C4  UNL     1      19.035  21.281  27.855  1.00  0.00     0.042 C 
BRANCH  16  17
HETATM   17  C3  UNL     1      19.756  22.541  27.474  1.00  0.00     0.029 C 
BRANCH  17  18
HETATM   18  C2  UNL     1      19.317  22.966  26.125  1.00  0.00    -0.037 C 
HETATM   19  C1  UNL     1      19.662  24.026  25.568  1.00  0.00     0.007 C 
ENDBRANCH  17  18
ENDBRANCH  16  17
ENDBRANCH  15  16
BRANCH  15  20
HETATM   20  N1  UNL     1      20.714  21.224  29.499  1.00  0.00    -0.287 N 
ATOM     21  H1  UNL     1      21.381  21.798  28.983  1.00  0.00     0.188 HD
BRANCH  20  22
HETATM   22  O1  UNL     1      20.663  21.147  30.842  1.00  0.00    -0.280 OA
BRANCH  22  23
HETATM   23  C6  UNL     1      19.913  22.237  31.320  1.00  0.00     0.143 C 
HETATM   24  C7  UNL     1      20.547  23.453  30.743  1.00  0.00     0.042 C 
HETATM   25  C8  UNL     1      19.907  22.226  32.843  1.00  0.00     0.042 C 
ENDBRANCH  22  23
ENDBRANCH  20  22
ENDBRANCH  15  20
ENDBRANCH  13  15
ENDBRANCH   1  12
BRANCH   1  26
HETATM   26  C11 UNL     1      17.932  16.991  29.875  1.00  0.00     0.261 C 
HETATM   27  O3  UNL     1      16.916  16.970  30.422  1.00  0.00    -0.269 OA
HETATM   28  N3  UNL     1      19.160  16.742  30.464  1.00  0.00    -0.352 N 
ATOM     29  H3  UNL     1      19.950  16.629  29.830  1.00  0.00     0.163 HD
BRANCH  28  30
HETATM   30  C12 UNL     1      19.451  16.624  31.876  1.00  0.00     0.098 C 
HETATM   31  C13 UNL     1      20.249  15.395  32.091  1.00  0.00     0.032 C 
HETATM   32  C14 UNL     1      21.259  15.415  33.186  1.00  0.00     0.005 C 
HETATM   33  C15 UNL     1      20.897  16.358  34.305  1.00  0.00     0.006 C 
HETATM   34  C20 UNL     1      22.643  15.572  32.647  1.00  0.00     0.127 C 
HETATM   35  C16 UNL     1      21.386  17.758  34.143  1.00  0.00     0.001 C 
HETATM   36  C17 UNL     1      20.359  18.467  33.266  1.00  0.00     0.016 C 
HETATM   37  C18 UNL     1      20.438  17.884  31.928  1.00  0.00     0.100 C 
HETATM   38  C19 UNL     1      21.749  17.595  31.421  1.00  0.00     0.223 C 
HETATM   39  O4  UNL     1      22.271  18.568  30.759  1.00  0.00    -0.273 OA
HETATM   40  N4  UNL     1      22.577  16.426  31.482  1.00  0.00    -0.360 N 
ATOM     41  H4  UNL     1      23.144  16.187  30.668  1.00  0.00     0.162 HD
ENDBRANCH  28  30
ENDBRANCH   1  26
TORSDOF 10
ENDMDL
MODEL 5
REMARK VINA RESULT: -7.295980168      1.624      2.619
REMARK  10 active torsions:
REMARK  status: ('A' for Active; 'I' for Inactive)
REMARK    1  A    between atoms: C2_2  and  C3_3 
REMARK    2  A    between atoms: C3_3  and  C4_4 
REMARK    3  A    between atoms: C4_4  and  C5_5 
REMARK    4  A    between atoms: C5_5  and  N1_6 
REMARK    5  A    between atoms: C5_5  and  C9_12 
REMARK    6  A    between atoms: N1_6  and  O1_8 
REMARK    7  A    between atoms: O1_8  and  C6_9 
REMARK       I    between atoms: C9_12  and  N2_14 
REMARK    8  A    between atoms: N2_14  and  C10_15 
REMARK    9  A    between atoms: C10_15  and  C11_16 
REMARK       I    between atoms: C11_16  and  N3_18 
REMARK   10  A    between atoms: N3_18  and  C12_20 
REMARK       I    between atoms: N5_35  and  C24_36 
ROOT
HETATM    1  C10 UNL     1      17.918  17.115  31.812  1.00  0.00     0.192 C 
HETATM    2  C21 UNL     1      18.281  16.008  30.742  1.00  0.00     0.059 C 
HETATM    3  C22 UNL     1      18.938  14.829  31.221  1.00  0.00     0.024 C 
HETATM    4  C23 UNL     1      18.563  14.372  32.572  1.00  0.00     0.125 C 
HETATM    5  N5  UNL     1      17.375  15.095  33.084  1.00  0.00    -0.352 N 
HETATM    6  C24 UNL     1      16.638  14.298  33.901  1.00  0.00     0.184 C 
HETATM    7  N6  UNL     1      15.737  13.457  33.788  1.00  0.00    -0.374 N 
ATOM      8  H61 UNL     1      15.184  12.859  34.402  1.00  0.00     0.158 HD
ATOM      9  H62 UNL     1      15.339  13.552  32.854  1.00  0.00     0.158 HD
HETATM   10  N7  UNL     1      17.222  14.160  35.271  1.00  0.00    -0.064 NA
HETATM   11  C25 UNL     1      17.030  16.478  32.734  1.00  0.00     0.181 C 
ENDROOT
BRANCH   1  12
HETATM   12  N2  UNL     1      17.860  18.199  31.008  1.00  0.00    -0.390 NA
HETATM   13  C9  UNL     1      17.386  19.144  30.175  1.00  0.00     0.312 C 
HETATM   14  O2  UNL     1      16.481  19.347  29.507  1.00  0.00    -0.255 OA
BRANCH  13  15
HETATM   15  C5  UNL     1      18.445  20.325  30.246  1.00  0.00     0.212 C 
BRANCH  15  16
HETATM   16  C4  UNL     1      19.563  19.810  29.305  1.00  0.00     0.042 C 
BRANCH  16  17
HETATM   17  C3  UNL     1      19.384  20.276  27.890  1.00  0.00     0.029 C 
BRANCH  17  18
HETATM   18  C2  UNL     1      19.041  21.716  27.889  1.00  0.00    -0.037 C 
HETATM   19  C1  UNL     1      19.495  22.553  27.085  1.00  0.00     0.007 C 
ENDBRANCH  17  18
ENDBRANCH  16  17
ENDBRANCH  15  16
BRANCH  15  20
HETATM   20  N1  UNL     1      18.979  20.793  31.359  1.00  0.00    -0.287 N 
ATOM     21  H1  UNL     1      18.454  20.970  32.215  1.00  0.00     0.188 HD
BRANCH  20  22
HETATM   22  O1  UNL     1      20.301  21.006  31.225  1.00  0.00    -0.280 OA
BRANCH  22  23
HETATM   23  C6  UNL     1      20.615  22.239  31.826  1.00  0.00     0.143 C 
HETATM   24  C7  UNL     1      19.842  22.281  33.096  1.00  0.00     0.042 C 
HETATM   25  C8  UNL     1      20.271  23.376  30.874  1.00  0.00     0.042 C 
ENDBRANCH  22  23
ENDBRANCH  20  22
ENDBRANCH  15  20
ENDBRANCH  13  15
ENDBRANCH   1  12
BRANCH   1  26
HETATM   26  C11 UNL     1      19.290  17.443  32.582  1.00  0.00     0.261 C 
HETATM   27  O3  UNL     1      19.376  17.546  33.729  1.00  0.00    -0.269 OA
HETATM   28  N3  UNL     1      20.335  17.599  31.687  1.00  0.00    -0.352 N 
ATOM     29  H3  UNL     1      20.151  17.314  30.724  1.00  0.00     0.163 HD
BRANCH  28  30
HETATM   30  C12 UNL     1      21.657  18.118  31.958  1.00  0.00     0.098 C 
HETATM   31  C13 UNL     1      21.721  18.527  33.380  1.00  0.00     0.032 C 
HETATM   32  C14 UNL     1      23.026  18.374  34.081  1.00  0.00     0.005 C 
HETATM   33  C15 UNL     1      24.209  18.471  33.151  1.00  0.00     0.006 C 
HETATM   34  C20 UNL     1      23.023  17.184  34.983  1.00  0.00     0.127 C 
HETATM   35  C16 UNL     1      24.650  17.182  32.543  1.00  0.00     0.001 C 
HETATM   36  C17 UNL     1      23.759  16.963  31.324  1.00  0.00     0.016 C 
HETATM   37  C18 UNL     1      22.402  16.708  31.803  1.00  0.00     0.100 C 
HETATM   38  C19 UNL     1      22.267  15.869  32.960  1.00  0.00     0.223 C 
HETATM   39  O4  UNL     1      22.137  14.620  32.676  1.00  0.00    -0.273 OA
HETATM   40  N4  UNL     1      22.220  16.153  34.364  1.00  0.00    -0.360 N 
ATOM     41  H4  UNL     1      21.593  15.603  34.951  1.00  0.00     0.162 HD
ENDBRANCH  28  30
ENDBRANCH   1  26
TORSDOF 10
ENDMDL
