MODEL 1
REMARK VINA RESULT: -7.947917941      0.000      0.000
REMARK  13 active torsions:
REMARK  status: ('A' for Active; 'I' for Inactive)
REMARK       I    between atoms: C1_4  and  N3_6 
REMARK    1  A    between atoms: N3_6  and  C2_8 
REMARK    2  A    between atoms: C2_8  and  C3_9 
REMARK    3  A    between atoms: C3_9  and  C4_10 
REMARK    4  A    between atoms: C4_10  and  C5_11 
REMARK       I    between atoms: C5_11  and  N4_13 
REMARK    5  A    between atoms: C7_18  and  N6_19 
REMARK    6  A    between atoms: N6_19  and  O2_21 
REMARK    7  A    between atoms: O2_21  and  C8_22 
REMARK    8  A    between atoms: C8_22  and  C9_23 
REMARK    9  A    between atoms: C9_23  and  O3_24 
REMARK   10  A    between atoms: O3_24  and  C10_25 
REMARK   11  A    between atoms: C10_25  and  C11_26 
REMARK   12  A    between atoms: C20_37  and  N8_38 
REMARK   13  A    between atoms: N8_38  and  C21_40 
ROOT
HETATM    1  C5  UNL     1      14.441  16.607  27.185  1.00  0.00     0.235 C 
HETATM    2  O1  UNL     1      13.846  17.647  26.874  1.00  0.00    -0.273 OA
HETATM    3  N4  UNL     1      15.086  16.495  28.434  1.00  0.00    -0.159 N 
ATOM      4  H4  UNL     1      14.890  15.670  29.000  1.00  0.00     0.187 HD
HETATM    5  C6  UNL     1      15.842  17.300  28.869  1.00  0.00     0.714 A 
HETATM    6  N5  UNL     1      16.058  16.387  30.172  1.00  0.00    -0.019 N 
ATOM      7  H5  UNL     1      15.551  15.504  30.240  1.00  0.00     0.203 HD
HETATM    8  C7  UNL     1      16.821  16.713  31.106  1.00  0.00     0.731 A 
HETATM    9  N7  UNL     1      17.585  17.857  31.199  1.00  0.00    -0.020 N 
ATOM     10  H7  UNL     1      18.201  18.063  31.987  1.00  0.00     0.203 HD
HETATM   11  C20 UNL     1      17.430  18.692  30.116  1.00  0.00     0.707 A 
HETATM   12  N9  UNL     1      16.611  18.224  29.217  1.00  0.00    -0.021 N 
ATOM     13  H9  UNL     1      16.586  18.914  28.466  1.00  0.00     0.203 HD
ENDROOT
BRANCH   8  14
HETATM   14  N6  UNL     1      16.577  16.168  32.295  1.00  0.00    -0.095 N 
ATOM     15  H6  UNL     1      16.445  15.162  32.197  1.00  0.00     0.213 HD
BRANCH  14  16
HETATM   16  O2  UNL     1      16.462  16.492  33.458  1.00  0.00    -0.264 OA
BRANCH  16  17
HETATM   17  C8  UNL     1      16.885  15.832  34.682  1.00  0.00     0.228 C 
BRANCH  17  18
HETATM   18  C9  UNL     1      18.349  15.943  34.493  1.00  0.00     0.196 C 
BRANCH  18  19
HETATM   19  O3  UNL     1      18.977  16.930  33.919  1.00  0.00    -0.388 OA
BRANCH  19  20
HETATM   20  C10 UNL     1      20.327  16.845  34.594  1.00  0.00     0.177 C 
BRANCH  20  21
HETATM   21  C11 UNL     1      21.210  17.397  33.569  1.00  0.00    -0.015 C 
HETATM   22  C12 UNL     1      20.941  18.846  33.250  1.00  0.00     0.017 C 
HETATM   23  C13 UNL     1      22.337  19.226  32.739  1.00  0.00    -0.013 C 
HETATM   24  C14 UNL     1      22.528  18.466  31.448  1.00  0.00     0.009 C 
HETATM   25  C18 UNL     1      23.198  18.647  33.875  1.00  0.00     0.010 C 
HETATM   26  C15 UNL     1      22.352  16.986  31.604  1.00  0.00    -0.013 C 
HETATM   27  C16 UNL     1      23.297  16.505  32.718  1.00  0.00     0.010 C 
HETATM   28  C19 UNL     1      21.014  16.647  32.225  1.00  0.00     0.017 C 
HETATM   29  C17 UNL     1      22.670  17.234  33.883  1.00  0.00    -0.003 C 
ENDBRANCH  20  21
ENDBRANCH  19  20
ENDBRANCH  18  19
ENDBRANCH  17  18
ENDBRANCH  16  17
ENDBRANCH  14  16
ENDBRANCH   8  14
BRANCH  11  30
HETATM   30  N8  UNL     1      18.077  19.769  30.070  1.00  0.00    -0.220 N 
ATOM     31  H8  UNL     1      17.541  20.636  30.087  1.00  0.00     0.178 HD
BRANCH  30  32
HETATM   32  C21 UNL     1      19.504  19.879  29.996  1.00  0.00     0.099 C 
HETATM   33  C22 UNL     1      19.873  21.245  30.561  1.00  0.00     0.026 C 
HETATM   34  C23 UNL     1      19.870  22.109  29.345  1.00  0.00     0.002 C 
HETATM   35  C24 UNL     1      20.523  21.242  28.282  1.00  0.00     0.002 C 
HETATM   36  C25 UNL     1      19.840  19.926  28.486  1.00  0.00     0.026 C 
ENDBRANCH  30  32
ENDBRANCH  11  30
BRANCH   1  37
HETATM   37  C4  UNL     1      14.516  15.516  26.206  1.00  0.00     0.105 C 
BRANCH  37  38
HETATM   38  C3  UNL     1      15.715  15.794  25.296  1.00  0.00     0.029 C 
BRANCH  38  39
HETATM   39  C2  UNL     1      15.311  16.054  23.864  1.00  0.00     0.122 C 
BRANCH  39  40
HETATM   40  N3  UNL     1      13.932  15.546  23.786  1.00  0.00    -0.365 N 
HETATM   41  C1  UNL     1      13.041  15.911  22.721  1.00  0.00     0.181 C 
HETATM   42  N1  UNL     1      13.265  15.497  21.562  1.00  0.00    -0.374 N 
HETATM   43  N2  UNL     1      11.896  16.653  23.091  1.00  0.00    -0.064 NA
ATOM     44  H12 UNL     1      12.633  15.757  20.805  1.00  0.00     0.158 HD
ATOM     45  H11 UNL     1      14.091  14.961  21.295  1.00  0.00     0.158 HD
ATOM     46  H3  UNL     1      13.598  14.913  24.514  1.00  0.00     0.162 HD
ENDBRANCH  39  40
ENDBRANCH  38  39
ENDBRANCH  37  38
ENDBRANCH   1  37
TORSDOF 13
ENDMDL
MODEL 2
REMARK VINA RESULT: -7.902291957      2.412      4.521
REMARK  13 active torsions:
REMARK  status: ('A' for Active; 'I' for Inactive)
REMARK       I    between atoms: C1_4  and  N3_6 
REMARK    1  A    between atoms: N3_6  and  C2_8 
REMARK    2  A    between atoms: C2_8  and  C3_9 
REMARK    3  A    between atoms: C3_9  and  C4_10 
REMARK    4  A    between atoms: C4_10  and  C5_11 
REMARK       I    between atoms: C5_11  and  N4_13 
REMARK    5  A    between atoms: C7_18  and  N6_19 
REMARK    6  A    between atoms: N6_19  and  O2_21 
REMARK    7  A    between atoms: O2_21  and  C8_22 
REMARK    8  A    between atoms: C8_22  and  C9_23 
REMARK    9  A    between atoms: C9_23  and  O3_24 
REMARK   10  A    between atoms: O3_24  and  C10_25 
REMARK   11  A    between atoms: C10_25  and  C11_26 
REMARK   12  A    between atoms: C20_37  and  N8_38 
REMARK   13  A    between atoms: N8_38  and  C21_40 
ROOT
HETATM    1  C5  UNL     1      18.346  16.896  26.309  1.00  0.00     0.235 C 
HETATM    2  O1  UNL     1      18.671  15.737  26.598  1.00  0.00    -0.273 OA
HETATM    3  N4  UNL     1      18.483  17.936  27.251  1.00  0.00    -0.159 N 
ATOM      4  H4  UNL     1      18.958  18.789  26.955  1.00  0.00     0.187 HD
HETATM    5  C6  UNL     1      18.081  17.883  28.367  1.00  0.00     0.714 A 
HETATM    6  N5  UNL     1      18.610  19.377  28.624  1.00  0.00    -0.019 N 
ATOM      7  H5  UNL     1      19.076  19.868  27.861  1.00  0.00     0.203 HD
HETATM    8  C7  UNL     1      18.476  19.963  29.719  1.00  0.00     0.731 A 
HETATM    9  N7  UNL     1      17.879  19.469  30.861  1.00  0.00    -0.020 N 
ATOM     10  H7  UNL     1      17.789  20.003  31.726  1.00  0.00     0.203 HD
HETATM   11  C20 UNL     1      17.417  18.182  30.709  1.00  0.00     0.707 A 
HETATM   12  N9  UNL     1      17.619  17.699  29.515  1.00  0.00    -0.021 N 
ATOM     13  H9  UNL     1      17.230  16.756  29.518  1.00  0.00     0.203 HD
ENDROOT
BRANCH   8  14
HETATM   14  N6  UNL     1      19.328  20.950  29.979  1.00  0.00    -0.095 N 
ATOM     15  H6  UNL     1      20.286  20.602  29.946  1.00  0.00     0.213 HD
BRANCH  14  16
HETATM   16  O2  UNL     1      19.325  22.133  30.242  1.00  0.00    -0.264 OA
BRANCH  16  17
HETATM   17  C8  UNL     1      20.221  22.936  31.056  1.00  0.00     0.228 C 
BRANCH  17  18
HETATM   18  C9  UNL     1      20.423  21.977  32.166  1.00  0.00     0.196 C 
BRANCH  18  19
HETATM   19  O3  UNL     1      21.233  20.957  32.162  1.00  0.00    -0.388 OA
BRANCH  19  20
HETATM   20  C10 UNL     1      20.818  20.253  33.434  1.00  0.00     0.177 C 
BRANCH  20  21
HETATM   21  C11 UNL     1      21.393  18.923  33.243  1.00  0.00    -0.015 C 
HETATM   22  C12 UNL     1      21.129  18.339  31.877  1.00  0.00     0.017 C 
HETATM   23  C13 UNL     1      22.333  17.391  31.804  1.00  0.00    -0.013 C 
HETATM   24  C14 UNL     1      22.091  16.328  32.849  1.00  0.00     0.009 C 
HETATM   25  C18 UNL     1      23.454  18.358  32.224  1.00  0.00     0.010 C 
HETATM   26  C15 UNL     1      21.879  16.889  34.222  1.00  0.00    -0.013 C 
HETATM   27  C16 UNL     1      23.079  17.790  34.563  1.00  0.00     0.010 C 
HETATM   28  C19 UNL     1      20.765  17.913  34.239  1.00  0.00     0.017 C 
HETATM   29  C17 UNL     1      22.867  18.861  33.519  1.00  0.00    -0.003 C 
ENDBRANCH  20  21
ENDBRANCH  19  20
ENDBRANCH  18  19
ENDBRANCH  17  18
ENDBRANCH  16  17
ENDBRANCH  14  16
ENDBRANCH   8  14
BRANCH  11  30
HETATM   30  N8  UNL     1      16.845  17.614  31.673  1.00  0.00    -0.220 N 
ATOM     31  H8  UNL     1      16.315  18.204  32.315  1.00  0.00     0.178 HD
BRANCH  30  32
HETATM   32  C21 UNL     1      16.874  16.207  31.945  1.00  0.00     0.099 C 
HETATM   33  C22 UNL     1      16.253  16.010  33.323  1.00  0.00     0.026 C 
HETATM   34  C23 UNL     1      17.439  16.080  34.224  1.00  0.00     0.002 C 
HETATM   35  C24 UNL     1      18.511  15.306  33.475  1.00  0.00     0.002 C 
HETATM   36  C25 UNL     1      18.372  15.842  32.084  1.00  0.00     0.026 C 
ENDBRANCH  30  32
ENDBRANCH  11  30
BRANCH   1  37
HETATM   37  C4  UNL     1      17.756  17.156  24.990  1.00  0.00     0.105 C 
BRANCH  37  38
HETATM   38  C3  UNL     1      16.979  15.904  24.577  1.00  0.00     0.029 C 
BRANCH  38  39
HETATM   39  C2  UNL     1      15.527  15.956  24.992  1.00  0.00     0.122 C 
BRANCH  39  40
HETATM   40  N3  UNL     1      15.444  15.004  26.111  1.00  0.00    -0.365 N 
HETATM   41  C1  UNL     1      14.688  15.285  27.300  1.00  0.00     0.181 C 
HETATM   42  N1  UNL     1      13.440  15.332  27.239  1.00  0.00    -0.374 N 
HETATM   43  N2  UNL     1      15.429  15.397  28.499  1.00  0.00    -0.064 NA
ATOM     44  H12 UNL     1      12.904  15.531  28.083  1.00  0.00     0.158 HD
ATOM     45  H11 UNL     1      12.905  15.250  26.374  1.00  0.00     0.158 HD
ATOM     46  H3  UNL     1      15.940  14.115  26.040  1.00  0.00     0.162 HD
ENDBRANCH  39  40
ENDBRANCH  38  39
ENDBRANCH  37  38
ENDBRANCH   1  37
TORSDOF 13
ENDMDL
MODEL 3
REMARK VINA RESULT: -7.886586863      3.996      7.182
REMARK  13 active torsions:
REMARK  status: ('A' for Active; 'I' for Inactive)
REMARK       I    between atoms: C1_4  and  N3_6 
REMARK    1  A    between atoms: N3_6  and  C2_8 
REMARK    2  A    between atoms: C2_8  and  C3_9 
REMARK    3  A    between atoms: C3_9  and  C4_10 
REMARK    4  A    between atoms: C4_10  and  C5_11 
REMARK       I    between atoms: C5_11  and  N4_13 
REMARK    5  A    between atoms: C7_18  and  N6_19 
REMARK    6  A    between atoms: N6_19  and  O2_21 
REMARK    7  A    between atoms: O2_21  and  C8_22 
REMARK    8  A    between atoms: C8_22  and  C9_23 
REMARK    9  A    between atoms: C9_23  and  O3_24 
REMARK   10  A    between atoms: O3_24  and  C10_25 
REMARK   11  A    between atoms: C10_25  and  C11_26 
REMARK   12  A    between atoms: C20_37  and  N8_38 
REMARK   13  A    between atoms: N8_38  and  C21_40 
ROOT
HETATM    1  C5  UNL     1      19.167  15.698  32.727  1.00  0.00     0.235 C 
HETATM    2  O1  UNL     1      19.618  14.947  31.852  1.00  0.00    -0.273 OA
HETATM    3  N4  UNL     1      19.674  17.004  32.883  1.00  0.00    -0.159 N 
ATOM      4  H4  UNL     1      19.005  17.773  32.929  1.00  0.00     0.187 HD
HETATM    5  C6  UNL     1      20.828  17.267  32.964  1.00  0.00     0.714 A 
HETATM    6  N5  UNL     1      20.459  18.820  33.137  1.00  0.00    -0.019 N 
ATOM      7  H5  UNL     1      19.476  19.092  33.126  1.00  0.00     0.203 HD
HETATM    8  C7  UNL     1      21.325  19.708  33.285  1.00  0.00     0.731 A 
HETATM    9  N7  UNL     1      22.693  19.540  33.326  1.00  0.00    -0.020 N 
ATOM     10  H7  UNL     1      23.352  20.308  33.461  1.00  0.00     0.203 HD
HETATM   11  C20 UNL     1      23.075  18.229  33.165  1.00  0.00     0.707 A 
HETATM   12  N9  UNL     1      22.069  17.411  33.028  1.00  0.00    -0.021 N 
ATOM     13  H9  UNL     1      22.470  16.478  32.930  1.00  0.00     0.203 HD
ENDROOT
BRANCH   8  14
HETATM   14  N6  UNL     1      20.975  20.946  32.948  1.00  0.00    -0.095 N 
ATOM     15  H6  UNL     1      20.552  21.419  33.747  1.00  0.00     0.213 HD
BRANCH  14  16
HETATM   16  O2  UNL     1      21.001  21.689  31.991  1.00  0.00    -0.264 OA
BRANCH  16  17
HETATM   17  C8  UNL     1      20.253  22.900  31.698  1.00  0.00     0.228 C 
BRANCH  17  18
HETATM   18  C9  UNL     1      20.295  22.829  30.220  1.00  0.00     0.196 C 
BRANCH  18  19
HETATM   19  O3  UNL     1      20.908  21.923  29.511  1.00  0.00    -0.388 OA
BRANCH  19  20
HETATM   20  C10 UNL     1      19.736  21.118  28.996  1.00  0.00     0.177 C 
BRANCH  20  21
HETATM   21  C11 UNL     1      20.391  19.893  28.541  1.00  0.00    -0.015 C 
HETATM   22  C12 UNL     1      21.728  20.128  27.881  1.00  0.00     0.017 C 
HETATM   23  C13 UNL     1      22.357  18.756  28.157  1.00  0.00    -0.013 C 
HETATM   24  C14 UNL     1      21.570  17.765  27.334  1.00  0.00     0.009 C 
HETATM   25  C18 UNL     1      22.048  18.623  29.659  1.00  0.00     0.010 C 
HETATM   26  C15 UNL     1      20.100  17.795  27.622  1.00  0.00    -0.013 C 
HETATM   27  C16 UNL     1      19.903  17.595  29.134  1.00  0.00     0.010 C 
HETATM   28  C19 UNL     1      19.530  19.187  27.461  1.00  0.00     0.017 C 
HETATM   29  C17 UNL     1      20.560  18.865  29.622  1.00  0.00    -0.003 C 
ENDBRANCH  20  21
ENDBRANCH  19  20
ENDBRANCH  18  19
ENDBRANCH  17  18
ENDBRANCH  16  17
ENDBRANCH  14  16
ENDBRANCH   8  14
BRANCH  11  30
HETATM   30  N8  UNL     1      24.297  17.935  33.190  1.00  0.00    -0.220 N 
ATOM     31  H8  UNL     1      24.933  18.614  33.607  1.00  0.00     0.178 HD
BRANCH  30  32
HETATM   32  C21 UNL     1      24.871  16.724  32.679  1.00  0.00     0.099 C 
HETATM   33  C22 UNL     1      26.242  16.577  33.329  1.00  0.00     0.026 C 
HETATM   34  C23 UNL     1      27.137  17.262  32.352  1.00  0.00     0.002 C 
HETATM   35  C24 UNL     1      26.603  16.822  30.999  1.00  0.00     0.002 C 
HETATM   36  C25 UNL     1      25.126  16.985  31.176  1.00  0.00     0.026 C 
ENDBRANCH  30  32
ENDBRANCH  11  30
BRANCH   1  37
HETATM   37  C4  UNL     1      18.140  15.181  33.640  1.00  0.00     0.105 C 
BRANCH  37  38
HETATM   38  C3  UNL     1      16.940  16.129  33.569  1.00  0.00     0.029 C 
BRANCH  38  39
HETATM   39  C2  UNL     1      16.569  16.493  32.150  1.00  0.00     0.122 C 
BRANCH  39  40
HETATM   40  N3  UNL     1      16.408  17.955  32.190  1.00  0.00    -0.365 N 
HETATM   41  C1  UNL     1      17.009  18.818  31.211  1.00  0.00     0.181 C 
HETATM   42  N1  UNL     1      16.590  18.797  30.032  1.00  0.00    -0.374 N 
HETATM   43  N2  UNL     1      17.991  19.715  31.689  1.00  0.00    -0.064 NA
ATOM     44  H12 UNL     1      17.018  19.409  29.338  1.00  0.00     0.158 HD
ATOM     45  H11 UNL     1      15.881  18.150  29.688  1.00  0.00     0.158 HD
ATOM     46  H3  UNL     1      15.851  18.370  32.937  1.00  0.00     0.162 HD
ENDBRANCH  39  40
ENDBRANCH  38  39
ENDBRANCH  37  38
ENDBRANCH   1  37
TORSDOF 13
ENDMDL
MODEL 4
REMARK VINA RESULT: -7.807368131      3.963      7.626
REMARK  13 active torsions:
REMARK  status: ('A' for Active; 'I' for Inactive)
REMARK       I    between atoms: C1_4  and  N3_6 
REMARK    1  A    between atoms: N3_6  and  C2_8 
REMARK    2  A    between atoms: C2_8  and  C3_9 
REMARK    3  A    between atoms: C3_9  and  C4_10 
REMARK    4  A    between atoms: C4_10  and  C5_11 
REMARK       I    between atoms: C5_11  and  N4_13 
REMARK    5  A    between atoms: C7_18  and  N6_19 
REMARK    6  A    between atoms: N6_19  and  O2_21 
REMARK    7  A    between atoms: O2_21  and  C8_22 
REMARK    8  A    between atoms: C8_22  and  C9_23 
REMARK    9  A    between atoms: C9_23  and  O3_24 
REMARK   10  A    between atoms: O3_24  and  C10_25 
REMARK   11  A    between atoms: C10_25  and  C11_26 
REMARK   12  A    between atoms: C20_37  and  N8_38 
REMARK   13  A    between atoms: N8_38  and  C21_40 
ROOT
HETATM    1  C5  UNL     1      18.811  15.855  33.968  1.00  0.00     0.235 C 
HETATM    2  O1  UNL     1      19.288  14.750  33.678  1.00  0.00    -0.273 OA
HETATM    3  N4  UNL     1      19.506  17.041  33.655  1.00  0.00    -0.159 N 
ATOM      4  H4  UNL     1      18.996  17.780  33.170  1.00  0.00     0.187 HD
HETATM    5  C6  UNL     1      20.647  17.236  33.919  1.00  0.00     0.714 A 
HETATM    6  N5  UNL     1      20.542  18.703  33.274  1.00  0.00    -0.019 N 
ATOM      7  H5  UNL     1      19.650  18.999  32.877  1.00  0.00     0.203 HD
HETATM    8  C7  UNL     1      21.506  19.496  33.238  1.00  0.00     0.731 A 
HETATM    9  N7  UNL     1      22.782  19.280  33.718  1.00  0.00    -0.020 N 
ATOM     10  H7  UNL     1      23.528  19.975  33.668  1.00  0.00     0.203 HD
HETATM   11  C20 UNL     1      22.941  18.030  34.269  1.00  0.00     0.707 A 
HETATM   12  N9  UNL     1      21.852  17.313  34.245  1.00  0.00    -0.021 N 
ATOM     13  H9  UNL     1      22.086  16.423  34.686  1.00  0.00     0.203 HD
ENDROOT
BRANCH   8  14
HETATM   14  N6  UNL     1      21.469  20.441  32.303  1.00  0.00    -0.095 N 
ATOM     15  H6  UNL     1      21.696  20.041  31.393  1.00  0.00     0.213 HD
BRANCH  14  16
HETATM   16  O2  UNL     1      21.249  21.628  32.193  1.00  0.00    -0.264 OA
BRANCH  16  17
HETATM   17  C8  UNL     1      20.026  22.352  31.891  1.00  0.00     0.228 C 
BRANCH  17  18
HETATM   18  C9  UNL     1      20.259  22.578  30.446  1.00  0.00     0.196 C 
BRANCH  18  19
HETATM   19  O3  UNL     1      20.816  21.740  29.618  1.00  0.00    -0.388 OA
BRANCH  19  20
HETATM   20  C10 UNL     1      19.625  20.905  29.205  1.00  0.00     0.177 C 
BRANCH  20  21
HETATM   21  C11 UNL     1      20.270  19.741  28.602  1.00  0.00    -0.015 C 
HETATM   22  C12 UNL     1      21.597  20.049  27.953  1.00  0.00     0.017 C 
HETATM   23  C13 UNL     1      22.226  18.655  28.059  1.00  0.00    -0.013 C 
HETATM   24  C14 UNL     1      21.424  17.765  27.139  1.00  0.00     0.009 C 
HETATM   25  C18 UNL     1      21.940  18.349  29.540  1.00  0.00     0.010 C 
HETATM   26  C15 UNL     1      19.959  17.763  27.452  1.00  0.00    -0.013 C 
HETATM   27  C16 UNL     1      19.784  17.391  28.934  1.00  0.00     0.010 C 
HETATM   28  C19 UNL     1      19.390  19.165  27.461  1.00  0.00     0.017 C 
HETATM   29  C17 UNL     1      20.452  18.595  29.555  1.00  0.00    -0.003 C 
ENDBRANCH  20  21
ENDBRANCH  19  20
ENDBRANCH  18  19
ENDBRANCH  17  18
ENDBRANCH  16  17
ENDBRANCH  14  16
ENDBRANCH   8  14
BRANCH  11  30
HETATM   30  N8  UNL     1      24.055  17.706  34.751  1.00  0.00    -0.220 N 
ATOM     31  H8  UNL     1      24.701  18.460  34.984  1.00  0.00     0.178 HD
BRANCH  30  32
HETATM   32  C21 UNL     1      24.495  16.364  35.000  1.00  0.00     0.099 C 
HETATM   33  C22 UNL     1      24.623  16.214  36.511  1.00  0.00     0.026 C 
HETATM   34  C23 UNL     1      26.045  16.589  36.753  1.00  0.00     0.002 C 
HETATM   35  C24 UNL     1      26.794  15.937  35.603  1.00  0.00     0.002 C 
HETATM   36  C25 UNL     1      25.931  16.284  34.430  1.00  0.00     0.026 C 
ENDBRANCH  30  32
ENDBRANCH  11  30
BRANCH   1  37
HETATM   37  C4  UNL     1      17.540  15.906  34.700  1.00  0.00     0.105 C 
BRANCH  37  38
HETATM   38  C3  UNL     1      16.422  15.579  33.707  1.00  0.00     0.029 C 
BRANCH  38  39
HETATM   39  C2  UNL     1      16.726  16.061  32.308  1.00  0.00     0.122 C 
BRANCH  39  40
HETATM   40  N3  UNL     1      16.475  17.510  32.370  1.00  0.00    -0.365 N 
HETATM   41  C1  UNL     1      16.995  18.419  31.387  1.00  0.00     0.181 C 
HETATM   42  N1  UNL     1      16.548  18.385  30.220  1.00  0.00    -0.374 N 
HETATM   43  N2  UNL     1      17.930  19.372  31.852  1.00  0.00    -0.064 NA
ATOM     44  H12 UNL     1      16.917  19.031  29.522  1.00  0.00     0.158 HD
ATOM     45  H11 UNL     1      15.872  17.698  29.885  1.00  0.00     0.158 HD
ATOM     46  H3  UNL     1      15.912  17.880  33.136  1.00  0.00     0.162 HD
ENDBRANCH  39  40
ENDBRANCH  38  39
ENDBRANCH  37  38
ENDBRANCH   1  37
TORSDOF 13
ENDMDL
MODEL 5
REMARK VINA RESULT: -7.621100147      4.386      8.080
REMARK  13 active torsions:
REMARK  status: ('A' for Active; 'I' for Inactive)
REMARK       I    between atoms: C1_4  and  N3_6 
REMARK    1  A    between atoms: N3_6  and  C2_8 
REMARK    2  A    between atoms: C2_8  and  C3_9 
REMARK    3  A    between atoms: C3_9  and  C4_10 
REMARK    4  A    between atoms: C4_10  and  C5_11 
REMARK       I    between atoms: C5_11  and  N4_13 
REMARK    5  A    between atoms: C7_18  and  N6_19 
REMARK    6  A    between atoms: N6_19  and  O2_21 
REMARK    7  A    between atoms: O2_21  and  C8_22 
REMARK    8  A    between atoms: C8_22  and  C9_23 
REMARK    9  A    between atoms: C9_23  and  O3_24 
REMARK   10  A    between atoms: O3_24  and  C10_25 
REMARK   11  A    between atoms: C10_25  and  C11_26 
REMARK   12  A    between atoms: C20_37  and  N8_38 
REMARK   13  A    between atoms: N8_38  and  C21_40 
ROOT
HETATM    1  C5  UNL     1      18.832  15.834  34.136  1.00  0.00     0.235 C 
HETATM    2  O1  UNL     1      19.294  14.726  33.833  1.00  0.00    -0.273 OA
HETATM    3  N4  UNL     1      19.506  17.017  33.768  1.00  0.00    -0.159 N 
ATOM      4  H4  UNL     1      18.967  17.749  33.304  1.00  0.00     0.187 HD
HETATM    5  C6  UNL     1      20.659  17.217  33.964  1.00  0.00     0.714 A 
HETATM    6  N5  UNL     1      20.515  18.675  33.308  1.00  0.00    -0.019 N 
ATOM      7  H5  UNL     1      19.601  18.965  32.959  1.00  0.00     0.203 HD
HETATM    8  C7  UNL     1      21.474  19.469  33.206  1.00  0.00     0.731 A 
HETATM    9  N7  UNL     1      22.775  19.262  33.615  1.00  0.00    -0.020 N 
ATOM     10  H7  UNL     1      23.515  19.956  33.515  1.00  0.00     0.203 HD
HETATM   11  C20 UNL     1      22.968  18.019  34.173  1.00  0.00     0.707 A 
HETATM   12  N9  UNL     1      21.881  17.300  34.220  1.00  0.00    -0.021 N 
ATOM     13  H9  UNL     1      22.142  16.416  34.659  1.00  0.00     0.203 HD
ENDROOT
BRANCH   8  14
HETATM   14  N6  UNL     1      21.381  20.402  32.263  1.00  0.00    -0.095 N 
ATOM     15  H6  UNL     1      21.293  19.964  31.346  1.00  0.00     0.213 HD
BRANCH  14  16
HETATM   16  O2  UNL     1      21.367  21.609  32.151  1.00  0.00    -0.264 OA
BRANCH  16  17
HETATM   17  C8  UNL     1      20.340  22.515  31.666  1.00  0.00     0.228 C 
BRANCH  17  18
HETATM   18  C9  UNL     1      19.867  21.710  30.517  1.00  0.00     0.196 C 
BRANCH  18  19
HETATM   19  O3  UNL     1      19.003  20.736  30.565  1.00  0.00    -0.388 OA
BRANCH  19  20
HETATM   20  C10 UNL     1      19.123  20.173  29.167  1.00  0.00     0.177 C 
BRANCH  20  21
HETATM   21  C11 UNL     1      18.514  18.854  29.321  1.00  0.00    -0.015 C 
HETATM   22  C12 UNL     1      19.347  17.890  30.130  1.00  0.00     0.017 C 
HETATM   23  C13 UNL     1      18.216  16.981  30.627  1.00  0.00    -0.013 C 
HETATM   24  C14 UNL     1      17.688  16.268  29.405  1.00  0.00     0.009 C 
HETATM   25  C18 UNL     1      17.229  18.044  31.138  1.00  0.00     0.010 C 
HETATM   26  C15 UNL     1      17.243  17.204  28.323  1.00  0.00    -0.013 C 
HETATM   27  C16 UNL     1      16.220  18.182  28.925  1.00  0.00     0.010 C 
HETATM   28  C19 UNL     1      18.341  18.172  27.938  1.00  0.00     0.017 C 
HETATM   29  C17 UNL     1      17.128  18.897  29.898  1.00  0.00    -0.003 C 
ENDBRANCH  20  21
ENDBRANCH  19  20
ENDBRANCH  18  19
ENDBRANCH  17  18
ENDBRANCH  16  17
ENDBRANCH  14  16
ENDBRANCH   8  14
BRANCH  11  30
HETATM   30  N8  UNL     1      24.109  17.702  34.595  1.00  0.00    -0.220 N 
ATOM     31  H8  UNL     1      24.782  18.456  34.731  1.00  0.00     0.178 HD
BRANCH  30  32
HETATM   32  C21 UNL     1      24.542  16.370  34.900  1.00  0.00     0.099 C 
HETATM   33  C22 UNL     1      24.573  16.252  36.418  1.00  0.00     0.026 C 
HETATM   34  C23 UNL     1      25.974  16.646  36.744  1.00  0.00     0.002 C 
HETATM   35  C24 UNL     1      26.801  15.978  35.659  1.00  0.00     0.002 C 
HETATM   36  C25 UNL     1      26.013  16.293  34.425  1.00  0.00     0.026 C 
ENDBRANCH  30  32
ENDBRANCH  11  30
BRANCH   1  37
HETATM   37  C4  UNL     1      17.604  15.893  34.938  1.00  0.00     0.105 C 
BRANCH  37  38
HETATM   38  C3  UNL     1      16.421  15.701  33.987  1.00  0.00     0.029 C 
BRANCH  38  39
HETATM   39  C2  UNL     1      15.774  14.343  34.128  1.00  0.00     0.122 C 
BRANCH  39  40
HETATM   40  N3  UNL     1      16.496  13.503  33.159  1.00  0.00    -0.365 N 
HETATM   41  C1  UNL     1      16.437  12.069  33.196  1.00  0.00     0.181 C 
HETATM   42  N1  UNL     1      15.366  11.489  32.910  1.00  0.00    -0.374 N 
HETATM   43  N2  UNL     1      17.652  11.401  33.469  1.00  0.00    -0.064 NA
ATOM     44  H12 UNL     1      15.324  10.471  32.937  1.00  0.00     0.158 HD
ATOM     45  H11 UNL     1      14.489  11.971  32.713  1.00  0.00     0.158 HD
ATOM     46  H3  UNL     1      17.056  13.955  32.436  1.00  0.00     0.162 HD
ENDBRANCH  39  40
ENDBRANCH  38  39
ENDBRANCH  37  38
ENDBRANCH   1  37
TORSDOF 13
ENDMDL
