MODEL 1
REMARK VINA RESULT: -8.062666262      0.000      0.000
REMARK  7 active torsions:
REMARK  status: ('A' for Active; 'I' for Inactive)
REMARK    1  A    between atoms: C3_3  and  N1_4 
REMARK    2  A    between atoms: N1_4  and  N2_6 
REMARK    3  A    between atoms: N2_6  and  C4_8 
REMARK    4  A    between atoms: N3_9  and  N4_10 
REMARK    5  A    between atoms: C5_13  and  N5_14 
REMARK    6  A    between atoms: N6_16  and  C6_18 
REMARK    7  A    between atoms: N11_31  and  N12_32 
REMARK       I    between atoms: N12_32  and  C10_34 
ROOT
HETATM    1  C1  UNL     1      24.520  37.715  11.275  1.00  0.00     0.103 C 
HETATM    2  C2  UNL     1      24.929  37.107  12.369  1.00  0.00    -0.142 C 
HETATM    3  C3  UNL     1      25.308  36.562  13.504  1.00  0.00     0.157 C 
ENDROOT
BRANCH   3   4
HETATM    4  N1  UNL     1      25.321  37.415  14.617  1.00  0.00    -0.290 N 
ATOM      5  H1  UNL     1      25.888  37.152  15.424  1.00  0.00     0.187 HD
BRANCH   4   6
HETATM    6  N2  UNL     1      24.599  38.603  14.675  1.00  0.00    -0.128 N 
ATOM      7  H2  UNL     1      24.179  38.949  13.812  1.00  0.00     0.205 HD
BRANCH   6   8
HETATM    8  C4  UNL     1      24.428  39.295  15.750  1.00  0.00     0.742 A 
HETATM    9  N3  UNL     1      25.229  40.354  16.086  1.00  0.00    -0.068 N 
HETATM   10  C5  UNL     1      24.784  40.839  17.241  1.00  0.00     0.204 A 
HETATM   11  C9  UNL     1      23.704  40.068  17.606  1.00  0.00     0.204 A 
HETATM   12  N10 UNL     1      22.948  40.276  18.799  1.00  0.00    -0.076 NA
HETATM   13  N11 UNL     1      23.476  39.089  16.665  1.00  0.00    -0.062 N 
BRANCH   9  14
HETATM   14  N4  UNL     1      26.308  40.805  15.322  1.00  0.00    -0.322 N 
ATOM     15  H42 UNL     1      27.002  40.248  14.824  1.00  0.00     0.178 HD
ATOM     16  H41 UNL     1      26.535  41.787  15.164  1.00  0.00     0.178 HD
ENDBRANCH   9  14
BRANCH  10  17
HETATM   17  N5  UNL     1      25.310  41.949  17.979  1.00  0.00    -0.266 N 
HETATM   18  N6  UNL     1      25.616  41.856  19.204  1.00  0.00    -0.130 N 
ATOM     19  H6  UNL     1      25.505  40.986  19.724  1.00  0.00     0.205 HD
ATOM     20  H5  UNL     1      25.441  42.842  17.503  1.00  0.00     0.189 HD
BRANCH  18  21
HETATM   21  C6  UNL     1      26.130  43.045  19.817  1.00  0.00     0.705 A 
HETATM   22  N7  UNL     1      25.393  44.178  19.831  1.00  0.00    -0.139 N 
HETATM   23  C7  UNL     1      25.886  45.295  20.413  1.00  0.00     0.342 A 
ATOM     24  H7  UNL     1      24.466  44.191  19.405  1.00  0.00     0.189 HD
HETATM   25  O1  UNL     1      25.203  46.352  20.428  1.00  0.00    -0.246 OA
HETATM   26  N8  UNL     1      27.090  45.333  20.985  1.00  0.00    -0.260 N 
HETATM   27  C8  UNL     1      27.828  44.195  20.969  1.00  0.00     0.342 A 
ATOM     28  H8  UNL     1      27.442  46.186  21.419  1.00  0.00     0.175 HD
HETATM   29  O2  UNL     1      28.954  44.232  21.504  1.00  0.00    -0.246 OA
HETATM   30  N9  UNL     1      27.331  43.092  20.391  1.00  0.00    -0.139 N 
ATOM     31  H9  UNL     1      27.901  42.247  20.390  1.00  0.00     0.189 HD
ENDBRANCH  18  21
ENDBRANCH  10  17
BRANCH  13  32
HETATM   32  N12 UNL     1      22.449  38.174  16.786  1.00  0.00    -0.248 N 
HETATM   33  C10 UNL     1      22.478  36.777  16.724  1.00  0.00     0.233 C 
HETATM   34  C11 UNL     1      21.177  36.004  16.893  1.00  0.00     0.119 C 
HETATM   35  O3  UNL     1      23.466  36.076  16.543  1.00  0.00    -0.272 OA
ATOM     36  H12 UNL     1      21.526  38.579  16.945  1.00  0.00     0.191 HD
ENDBRANCH  13  32
ENDBRANCH   6   8
ENDBRANCH   4   6
ENDBRANCH   3   4
TORSDOF 7
ENDMDL
MODEL 2
REMARK VINA RESULT: -8.034087522      0.040      1.526
REMARK  7 active torsions:
REMARK  status: ('A' for Active; 'I' for Inactive)
REMARK    1  A    between atoms: C3_3  and  N1_4 
REMARK    2  A    between atoms: N1_4  and  N2_6 
REMARK    3  A    between atoms: N2_6  and  C4_8 
REMARK    4  A    between atoms: N3_9  and  N4_10 
REMARK    5  A    between atoms: C5_13  and  N5_14 
REMARK    6  A    between atoms: N6_16  and  C6_18 
REMARK    7  A    between atoms: N11_31  and  N12_32 
REMARK       I    between atoms: N12_32  and  C10_34 
ROOT
HETATM    1  C1  UNL     1      24.530  37.702  11.281  1.00  0.00     0.103 C 
HETATM    2  C2  UNL     1      24.935  37.099  12.380  1.00  0.00    -0.142 C 
HETATM    3  C3  UNL     1      25.308  36.559  13.519  1.00  0.00     0.157 C 
ENDROOT
BRANCH   3   4
HETATM    4  N1  UNL     1      25.312  37.416  14.629  1.00  0.00    -0.290 N 
ATOM      5  H1  UNL     1      25.892  37.169  15.431  1.00  0.00     0.187 HD
BRANCH   4   6
HETATM    6  N2  UNL     1      24.564  38.587  14.689  1.00  0.00    -0.128 N 
ATOM      7  H2  UNL     1      24.127  38.920  13.830  1.00  0.00     0.205 HD
BRANCH   6   8
HETATM    8  C4  UNL     1      24.388  39.280  15.764  1.00  0.00     0.742 A 
HETATM    9  N3  UNL     1      25.181  40.345  16.097  1.00  0.00    -0.068 N 
HETATM   10  C5  UNL     1      24.732  40.828  17.252  1.00  0.00     0.204 A 
HETATM   11  C9  UNL     1      23.658  40.050  17.618  1.00  0.00     0.204 A 
HETATM   12  N10 UNL     1      22.900  40.255  18.810  1.00  0.00    -0.076 NA
HETATM   13  N11 UNL     1      23.436  39.069  16.679  1.00  0.00    -0.062 N 
BRANCH   9  14
HETATM   14  N4  UNL     1      26.256  40.802  15.333  1.00  0.00    -0.322 N 
ATOM     15  H42 UNL     1      26.415  40.678  14.333  1.00  0.00     0.178 HD
ATOM     16  H41 UNL     1      27.041  41.339  15.702  1.00  0.00     0.178 HD
ENDBRANCH   9  14
BRANCH  10  17
HETATM   17  N5  UNL     1      25.251  41.943  17.989  1.00  0.00    -0.266 N 
HETATM   18  N6  UNL     1      25.605  41.842  19.200  1.00  0.00    -0.130 N 
ATOM     19  H6  UNL     1      25.540  40.960  19.709  1.00  0.00     0.205 HD
ATOM     20  H5  UNL     1      25.336  42.847  17.523  1.00  0.00     0.189 HD
BRANCH  18  21
HETATM   21  C6  UNL     1      26.104  43.036  19.813  1.00  0.00     0.705 A 
HETATM   22  N7  UNL     1      27.325  43.047  20.393  1.00  0.00    -0.139 N 
HETATM   23  C7  UNL     1      27.787  44.179  20.969  1.00  0.00     0.342 A 
ATOM     24  H7  UNL     1      27.897  42.202  20.396  1.00  0.00     0.189 HD
HETATM   25  O1  UNL     1      28.924  44.193  21.509  1.00  0.00    -0.246 OA
HETATM   26  N8  UNL     1      27.082  45.310  20.992  1.00  0.00    -0.260 N 
HETATM   27  C8  UNL     1      25.857  45.298  20.410  1.00  0.00     0.342 A 
ATOM     28  H8  UNL     1      27.450  46.154  21.431  1.00  0.00     0.175 HD
HETATM   29  O2  UNL     1      25.198  46.356  20.434  1.00  0.00    -0.246 OA
HETATM   30  N9  UNL     1      25.407  44.171  19.841  1.00  0.00    -0.139 N 
ATOM     31  H9  UNL     1      24.484  44.182  19.409  1.00  0.00     0.189 HD
ENDBRANCH  18  21
ENDBRANCH  10  17
BRANCH  13  32
HETATM   32  N12 UNL     1      22.416  38.146  16.801  1.00  0.00    -0.248 N 
HETATM   33  C10 UNL     1      22.455  36.750  16.743  1.00  0.00     0.233 C 
HETATM   34  C11 UNL     1      21.160  35.968  16.913  1.00  0.00     0.119 C 
HETATM   35  O3  UNL     1      23.448  36.056  16.565  1.00  0.00    -0.272 OA
ATOM     36  H12 UNL     1      21.490  38.545  16.958  1.00  0.00     0.191 HD
ENDBRANCH  13  32
ENDBRANCH   6   8
ENDBRANCH   4   6
ENDBRANCH   3   4
TORSDOF 7
ENDMDL
MODEL 3
REMARK VINA RESULT: -7.818230170      5.828     11.503
REMARK  7 active torsions:
REMARK  status: ('A' for Active; 'I' for Inactive)
REMARK    1  A    between atoms: C3_3  and  N1_4 
REMARK    2  A    between atoms: N1_4  and  N2_6 
REMARK    3  A    between atoms: N2_6  and  C4_8 
REMARK    4  A    between atoms: N3_9  and  N4_10 
REMARK    5  A    between atoms: C5_13  and  N5_14 
REMARK    6  A    between atoms: N6_16  and  C6_18 
REMARK    7  A    between atoms: N11_31  and  N12_32 
REMARK       I    between atoms: N12_32  and  C10_34 
ROOT
HETATM    1  C1  UNL     1      35.074  41.633  20.841  1.00  0.00     0.103 C 
HETATM    2  C2  UNL     1      35.170  42.133  22.056  1.00  0.00    -0.142 C 
HETATM    3  C3  UNL     1      35.246  42.704  23.237  1.00  0.00     0.157 C 
ENDROOT
BRANCH   3   4
HETATM    4  N1  UNL     1      35.286  44.106  23.237  1.00  0.00    -0.290 N 
ATOM      5  H1  UNL     1      36.127  44.568  22.888  1.00  0.00     0.187 HD
BRANCH   4   6
HETATM    6  N2  UNL     1      34.235  44.898  23.689  1.00  0.00    -0.128 N 
ATOM      7  H2  UNL     1      34.258  45.213  24.659  1.00  0.00     0.205 HD
BRANCH   6   8
HETATM    8  C4  UNL     1      33.234  45.257  22.960  1.00  0.00     0.742 A 
HETATM    9  N3  UNL     1      32.038  44.588  22.960  1.00  0.00    -0.068 N 
HETATM   10  C5  UNL     1      31.234  45.213  22.107  1.00  0.00     0.204 A 
HETATM   11  C9  UNL     1      31.946  46.270  21.588  1.00  0.00     0.204 A 
HETATM   12  N10 UNL     1      31.421  47.187  20.628  1.00  0.00    -0.076 NA
HETATM   13  N11 UNL     1      33.213  46.301  22.125  1.00  0.00    -0.062 N 
BRANCH   9  14
HETATM   14  N4  UNL     1      31.763  43.458  23.732  1.00  0.00    -0.322 N 
ATOM     15  H42 UNL     1      32.381  42.977  24.386  1.00  0.00     0.178 HD
ATOM     16  H41 UNL     1      30.873  42.961  23.733  1.00  0.00     0.178 HD
ENDBRANCH   9  14
BRANCH  10  17
HETATM   17  N5  UNL     1      29.880  44.872  21.777  1.00  0.00    -0.266 N 
HETATM   18  N6  UNL     1      29.414  45.028  20.611  1.00  0.00    -0.130 N 
ATOM     19  H6  UNL     1      29.979  45.404  19.849  1.00  0.00     0.205 HD
ATOM     20  H5  UNL     1      29.276  44.491  22.505  1.00  0.00     0.189 HD
BRANCH  18  21
HETATM   21  C6  UNL     1      28.046  44.646  20.423  1.00  0.00     0.705 A 
HETATM   22  N7  UNL     1      27.738  43.399  20.000  1.00  0.00    -0.139 N 
HETATM   23  C7  UNL     1      26.444  43.048  19.826  1.00  0.00     0.342 A 
ATOM     24  H7  UNL     1      28.480  42.725  19.812  1.00  0.00     0.189 HD
HETATM   25  O1  UNL     1      26.153  41.888  19.432  1.00  0.00    -0.246 OA
HETATM   26  N8  UNL     1      25.436  43.889  20.057  1.00  0.00    -0.260 N 
HETATM   27  C8  UNL     1      25.747  45.139  20.481  1.00  0.00     0.342 A 
ATOM     28  H8  UNL     1      24.467  43.603  19.921  1.00  0.00     0.175 HD
HETATM   29  O2  UNL     1      24.803  45.925  20.696  1.00  0.00    -0.246 OA
HETATM   30  N9  UNL     1      27.032  45.479  20.651  1.00  0.00    -0.139 N 
ATOM     31  H9  UNL     1      27.245  46.423  20.971  1.00  0.00     0.189 HD
ENDBRANCH  18  21
ENDBRANCH  10  17
BRANCH  13  32
HETATM   32  N12 UNL     1      34.140  47.263  21.775  1.00  0.00    -0.248 N 
HETATM   33  C10 UNL     1      34.636  48.343  22.512  1.00  0.00     0.233 C 
HETATM   34  C11 UNL     1      35.669  49.261  21.872  1.00  0.00     0.119 C 
HETATM   35  O3  UNL     1      34.325  48.648  23.657  1.00  0.00    -0.272 OA
ATOM     36  H12 UNL     1      34.522  47.173  20.834  1.00  0.00     0.191 HD
ENDBRANCH  13  32
ENDBRANCH   6   8
ENDBRANCH   4   6
ENDBRANCH   3   4
TORSDOF 7
ENDMDL
MODEL 4
REMARK VINA RESULT: -7.762345475      5.780     11.389
REMARK  7 active torsions:
REMARK  status: ('A' for Active; 'I' for Inactive)
REMARK    1  A    between atoms: C3_3  and  N1_4 
REMARK    2  A    between atoms: N1_4  and  N2_6 
REMARK    3  A    between atoms: N2_6  and  C4_8 
REMARK    4  A    between atoms: N3_9  and  N4_10 
REMARK    5  A    between atoms: C5_13  and  N5_14 
REMARK    6  A    between atoms: N6_16  and  C6_18 
REMARK    7  A    between atoms: N11_31  and  N12_32 
REMARK       I    between atoms: N12_32  and  C10_34 
ROOT
HETATM    1  C1  UNL     1      35.086  41.761  20.715  1.00  0.00     0.103 C 
HETATM    2  C2  UNL     1      35.124  42.214  21.951  1.00  0.00    -0.142 C 
HETATM    3  C3  UNL     1      35.146  42.740  23.155  1.00  0.00     0.157 C 
ENDROOT
BRANCH   3   4
HETATM    4  N1  UNL     1      35.246  44.137  23.211  1.00  0.00    -0.290 N 
ATOM      5  H1  UNL     1      36.129  44.572  22.941  1.00  0.00     0.187 HD
BRANCH   4   6
HETATM    6  N2  UNL     1      34.200  44.960  23.615  1.00  0.00    -0.128 N 
ATOM      7  H2  UNL     1      34.220  45.325  24.566  1.00  0.00     0.205 HD
BRANCH   6   8
HETATM    8  C4  UNL     1      33.205  45.289  22.861  1.00  0.00     0.742 A 
HETATM    9  N3  UNL     1      32.002  44.636  22.895  1.00  0.00    -0.068 N 
HETATM   10  C5  UNL     1      31.208  45.221  22.004  1.00  0.00     0.204 A 
HETATM   11  C9  UNL     1      31.936  46.236  21.427  1.00  0.00     0.204 A 
HETATM   12  N10 UNL     1      31.425  47.103  20.414  1.00  0.00    -0.076 NA
HETATM   13  N11 UNL     1      33.201  46.283  21.967  1.00  0.00    -0.062 N 
BRANCH   9  14
HETATM   14  N4  UNL     1      31.709  43.556  23.730  1.00  0.00    -0.322 N 
ATOM     15  H42 UNL     1      30.804  43.286  24.115  1.00  0.00     0.178 HD
ATOM     16  H41 UNL     1      32.395  42.880  24.064  1.00  0.00     0.178 HD
ENDBRANCH   9  14
BRANCH  10  17
HETATM   17  N5  UNL     1      29.852  44.878  21.689  1.00  0.00    -0.266 N 
HETATM   18  N6  UNL     1      29.397  44.950  20.509  1.00  0.00    -0.130 N 
ATOM     19  H6  UNL     1      29.975  45.255  19.726  1.00  0.00     0.205 HD
ATOM     20  H5  UNL     1      29.234  44.566  22.438  1.00  0.00     0.189 HD
BRANCH  18  21
HETATM   21  C6  UNL     1      28.025  44.578  20.339  1.00  0.00     0.705 A 
HETATM   22  N7  UNL     1      27.041  45.477  20.565  1.00  0.00    -0.139 N 
HETATM   23  C7  UNL     1      25.748  45.117  20.401  1.00  0.00     0.342 A 
ATOM     24  H7  UNL     1      27.273  46.426  20.859  1.00  0.00     0.189 HD
HETATM   25  O1  UNL     1      24.830  45.951  20.611  1.00  0.00    -0.246 OA
HETATM   26  N8  UNL     1      25.390  43.891  20.018  1.00  0.00    -0.260 N 
HETATM   27  C8  UNL     1      26.377  42.990  19.792  1.00  0.00     0.342 A 
ATOM     28  H8  UNL     1      24.408  43.641  19.899  1.00  0.00     0.175 HD
HETATM   29  O2  UNL     1      26.041  41.844  19.435  1.00  0.00    -0.246 OA
HETATM   30  N9  UNL     1      27.657  43.356  19.957  1.00  0.00    -0.139 N 
ATOM     31  H9  UNL     1      28.384  42.664  19.781  1.00  0.00     0.189 HD
ENDBRANCH  18  21
ENDBRANCH  10  17
BRANCH  13  32
HETATM   32  N12 UNL     1      34.141  47.211  21.567  1.00  0.00    -0.248 N 
HETATM   33  C10 UNL     1      34.675  48.305  22.256  1.00  0.00     0.233 C 
HETATM   34  C11 UNL     1      35.714  49.177  21.564  1.00  0.00     0.119 C 
HETATM   35  O3  UNL     1      34.393  48.657  23.395  1.00  0.00    -0.272 OA
ATOM     36  H12 UNL     1      34.503  47.080  20.622  1.00  0.00     0.191 HD
ENDBRANCH  13  32
ENDBRANCH   6   8
ENDBRANCH   4   6
ENDBRANCH   3   4
TORSDOF 7
ENDMDL
MODEL 5
REMARK VINA RESULT: -7.752868275      1.381      3.199
REMARK  7 active torsions:
REMARK  status: ('A' for Active; 'I' for Inactive)
REMARK    1  A    between atoms: C3_3  and  N1_4 
REMARK    2  A    between atoms: N1_4  and  N2_6 
REMARK    3  A    between atoms: N2_6  and  C4_8 
REMARK    4  A    between atoms: N3_9  and  N4_10 
REMARK    5  A    between atoms: C5_13  and  N5_14 
REMARK    6  A    between atoms: N6_16  and  C6_18 
REMARK    7  A    between atoms: N11_31  and  N12_32 
REMARK       I    between atoms: N12_32  and  C10_34 
ROOT
HETATM    1  C1  UNL     1      23.050  34.523  16.891  1.00  0.00     0.103 C 
HETATM    2  C2  UNL     1      22.434  35.685  16.938  1.00  0.00    -0.142 C 
HETATM    3  C3  UNL     1      21.890  36.880  17.007  1.00  0.00     0.157 C 
ENDROOT
BRANCH   3   4
HETATM    4  N1  UNL     1      22.639  37.855  17.682  1.00  0.00    -0.290 N 
ATOM      5  H1  UNL     1      23.270  37.554  18.425  1.00  0.00     0.187 HD
BRANCH   4   6
HETATM    6  N2  UNL     1      22.563  39.212  17.386  1.00  0.00    -0.128 N 
ATOM      7  H2  UNL     1      21.638  39.623  17.264  1.00  0.00     0.205 HD
BRANCH   6   8
HETATM    8  C4  UNL     1      23.589  39.983  17.256  1.00  0.00     0.742 A 
HETATM    9  N3  UNL     1      23.949  40.904  18.204  1.00  0.00    -0.068 N 
HETATM   10  C5  UNL     1      25.039  41.524  17.761  1.00  0.00     0.204 A 
HETATM   11  C9  UNL     1      25.342  40.972  16.538  1.00  0.00     0.204 A 
HETATM   12  N10 UNL     1      26.454  41.376  15.739  1.00  0.00    -0.076 NA
HETATM   13  N11 UNL     1      24.426  39.997  16.214  1.00  0.00    -0.062 N 
BRANCH   9  14
HETATM   14  N4  UNL     1      23.264  41.119  19.401  1.00  0.00    -0.322 N 
ATOM     15  H42 UNL     1      22.561  41.831  19.604  1.00  0.00     0.178 HD
ATOM     16  H41 UNL     1      23.389  40.565  20.247  1.00  0.00     0.178 HD
ENDBRANCH   9  14
BRANCH  10  17
HETATM   17  N5  UNL     1      25.774  42.566  18.416  1.00  0.00    -0.266 N 
HETATM   18  N6  UNL     1      26.464  42.350  19.456  1.00  0.00    -0.130 N 
ATOM     19  H6  UNL     1      26.531  41.423  19.876  1.00  0.00     0.205 HD
ATOM     20  H5  UNL     1      25.740  43.511  18.033  1.00  0.00     0.189 HD
BRANCH  18  21
HETATM   21  C6  UNL     1      27.146  43.483  20.006  1.00  0.00     0.705 A 
HETATM   22  N7  UNL     1      27.065  44.689  19.400  1.00  0.00    -0.139 N 
HETATM   23  C7  UNL     1      27.712  45.752  19.927  1.00  0.00     0.342 A 
ATOM     24  H7  UNL     1      26.517  44.796  18.546  1.00  0.00     0.189 HD
HETATM   25  O1  UNL     1      27.639  46.877  19.365  1.00  0.00    -0.246 OA
HETATM   26  N8  UNL     1      28.441  45.668  21.040  1.00  0.00    -0.260 N 
HETATM   27  C8  UNL     1      28.522  44.458  21.647  1.00  0.00     0.342 A 
ATOM     28  H8  UNL     1      28.920  46.483  21.421  1.00  0.00     0.175 HD
HETATM   29  O2  UNL     1      29.205  44.379  22.687  1.00  0.00    -0.246 OA
HETATM   30  N9  UNL     1      27.877  43.408  21.117  1.00  0.00    -0.139 N 
ATOM     31  H9  UNL     1      27.949  42.507  21.589  1.00  0.00     0.189 HD
ENDBRANCH  18  21
ENDBRANCH  10  17
BRANCH  13  32
HETATM   32  N12 UNL     1      24.496  39.280  15.035  1.00  0.00    -0.248 N 
HETATM   33  C10 UNL     1      24.842  37.944  14.815  1.00  0.00     0.233 C 
HETATM   34  C11 UNL     1      24.836  37.405  13.391  1.00  0.00     0.119 C 
HETATM   35  O3  UNL     1      25.162  37.124  15.667  1.00  0.00    -0.272 OA
ATOM     36  H12 UNL     1      24.258  39.808  14.195  1.00  0.00     0.191 HD
ENDBRANCH  13  32
ENDBRANCH   6   8
ENDBRANCH   4   6
ENDBRANCH   3   4
TORSDOF 7
ENDMDL
