MODEL 1
REMARK VINA RESULT: -8.945197205      0.000      0.000
REMARK  17 active torsions:
REMARK  status: ('A' for Active; 'I' for Inactive)
REMARK    1  A    between atoms: C5_6  and  C6_7 
REMARK    2  A    between atoms: C7_8  and  C8_9 
REMARK    3  A    between atoms: C8_9  and  N2_10 
REMARK       I    between atoms: N2_10  and  C9_12 
REMARK       I    between atoms: C9_12  and  N3_14 
REMARK    4  A    between atoms: N3_14  and  C10_16 
REMARK    5  A    between atoms: C10_16  and  C11_17 
REMARK    6  A    between atoms: C12_18  and  C13_19 
REMARK    7  A    between atoms: C13_19  and  C14_20 
REMARK    8  A    between atoms: C14_20  and  C15_21 
REMARK    9  A    between atoms: C16_22  and  C17_23 
REMARK   10  A    between atoms: C21_27  and  C22_28 
REMARK   11  A    between atoms: C25_35  and  C26_36 
REMARK   12  A    between atoms: N5_39  and  C29_40 
REMARK   13  A    between atoms: C29_40  and  C30_41 
REMARK   14  A    between atoms: C31_42  and  C32_43 
REMARK   15  A    between atoms: C32_43  and  N6_44 
REMARK   16  A    between atoms: C35_47  and  S1_48 
REMARK   17  A    between atoms: S1_48  and  N7_49 
ROOT
HETATM    1  C17 UNL     1      11.585  62.782  27.540  1.00  0.00    -0.023 A 
HETATM    2  C18 UNL     1      12.725  62.309  26.867  1.00  0.00     0.026 A 
HETATM    3  C19 UNL     1      13.429  63.081  25.991  1.00  0.00    -0.006 A 
HETATM    4  C20 UNL     1      14.534  62.784  25.209  1.00  0.00     0.050 A 
HETATM    5  C21 UNL     1      14.813  63.910  24.469  1.00  0.00     0.111 A 
HETATM    6  N4  UNL     1      13.899  64.865  24.803  1.00  0.00    -0.350 N 
ATOM      7  H4  UNL     1      13.864  65.806  24.413  1.00  0.00     0.166 HD
HETATM    8  C23 UNL     1      13.045  64.373  25.733  1.00  0.00     0.044 A 
HETATM    9  C24 UNL     1      11.954  64.870  26.365  1.00  0.00     0.045 A 
HETATM   10  C25 UNL     1      11.200  64.097  27.276  1.00  0.00     0.004 A 
ENDROOT
BRANCH   1  11
HETATM   11  C16 UNL     1      10.793  61.971  28.420  1.00  0.00     0.008 C 
HETATM   12  C15 UNL     1      10.987  61.444  29.565  1.00  0.00    -0.026 C 
BRANCH  12  13
HETATM   13  C14 UNL     1      12.104  61.448  30.480  1.00  0.00     0.031 C 
BRANCH  13  14
HETATM   14  C13 UNL     1      12.147  62.784  31.227  1.00  0.00     0.030 C 
BRANCH  14  15
HETATM   15  C12 UNL     1      13.338  63.566  30.686  1.00  0.00    -0.029 C 
HETATM   16  C11 UNL     1      13.118  64.712  30.102  1.00  0.00    -0.011 C 
BRANCH  16  17
HETATM   17  C10 UNL     1      14.053  65.677  29.500  1.00  0.00     0.151 C 
BRANCH  17  18
HETATM   18  N3  UNL     1      15.322  65.070  29.243  1.00  0.00    -0.340 N 
HETATM   19  C9  UNL     1      16.099  65.253  28.101  1.00  0.00     0.317 C 
HETATM   20  N2  UNL     1      17.322  64.551  27.930  1.00  0.00    -0.333 N 
HETATM   21  O1  UNL     1      15.765  66.023  27.178  1.00  0.00    -0.247 OA
ATOM     22  H2  UNL     1      17.624  63.926  28.678  1.00  0.00     0.165 HD
ATOM     23  H3  UNL     1      15.693  64.447  29.961  1.00  0.00     0.164 HD
BRANCH  20  24
HETATM   24  C8  UNL     1      18.170  64.669  26.752  1.00  0.00     0.219 C 
BRANCH  24  25
HETATM   25  C7  UNL     1      18.337  63.368  26.089  1.00  0.00    -0.081 C 
HETATM   26  C6  UNL     1      18.455  62.291  25.547  1.00  0.00    -0.064 C 
BRANCH  26  27
HETATM   27  C5  UNL     1      18.583  60.991  24.920  1.00  0.00     0.033 A 
HETATM   28  C4  UNL     1      18.090  60.709  23.672  1.00  0.00     0.023 A 
HETATM   29  C3  UNL     1      18.225  59.456  23.086  1.00  0.00     0.019 A 
HETATM   30  C2  UNL     1      18.882  58.500  23.823  1.00  0.00     0.090 A 
HETATM   31  N1  UNL     1      19.362  58.779  25.042  1.00  0.00    -0.369 N 
HETATM   32  C1  UNL     1      20.033  57.686  25.726  1.00  0.00     0.154 C 
HETATM   33  C38 UNL     1      19.235  59.987  25.614  1.00  0.00     0.110 A 
ENDBRANCH  26  27
ENDBRANCH  24  25
ENDBRANCH  20  24
ENDBRANCH  17  18
ENDBRANCH  16  17
ENDBRANCH  14  15
ENDBRANCH  13  14
ENDBRANCH  12  13
ENDBRANCH   1  11
BRANCH  10  34
HETATM   34  C26 UNL     1      10.072  64.787  27.907  1.00  0.00     0.060 A 
HETATM   35  C27 UNL     1       9.342  64.623  29.031  1.00  0.00     0.050 A 
HETATM   36  C28 UNL     1       8.304  65.551  28.991  1.00  0.00     0.113 A 
HETATM   37  N5  UNL     1       8.395  66.265  27.871  1.00  0.00    -0.292 N 
HETATM   38  N8  UNL     1       9.428  65.822  27.235  1.00  0.00    -0.297 N 
ATOM     39  H8  UNL     1       9.739  66.190  26.336  1.00  0.00     0.187 HD
BRANCH  37  40
HETATM   40  C29 UNL     1       7.519  67.352  27.384  1.00  0.00     0.241 C 
BRANCH  40  41
HETATM   41  C30 UNL     1       7.583  67.446  25.921  1.00  0.00    -0.083 C 
HETATM   42  C31 UNL     1       7.610  67.523  24.719  1.00  0.00    -0.085 C 
BRANCH  42  43
HETATM   43  C32 UNL     1       7.593  67.631  23.272  1.00  0.00     0.221 C 
BRANCH  43  44
HETATM   44  N6  UNL     1       8.920  67.444  22.682  1.00  0.00    -0.355 N 
HETATM   45  C33 UNL     1       9.733  66.484  23.144  1.00  0.00     0.093 A 
HETATM   46  C34 UNL     1      11.029  66.328  22.618  1.00  0.00     0.042 A 
HETATM   47  C35 UNL     1      11.491  67.150  21.626  1.00  0.00     0.082 A 
HETATM   48  C36 UNL     1      10.629  68.146  21.155  1.00  0.00     0.042 A 
HETATM   49  C37 UNL     1       9.349  68.260  21.711  1.00  0.00     0.093 A 
BRANCH  47  50
HETATM   50  S1  UNL     1      13.119  67.012  20.965  1.00  0.00     0.256 S 
HETATM   51  O4  UNL     1      13.884  65.959  21.729  1.00  0.00    -0.201 OA
HETATM   52  O5  UNL     1      13.865  68.311  21.152  1.00  0.00    -0.201 OA
BRANCH  50  53
HETATM   53  N7  UNL     1      13.038  66.589  19.308  1.00  0.00    -0.324 N 
ATOM     54  H72 UNL     1      13.769  66.081  18.809  1.00  0.00     0.169 HD
ATOM     55  H71 UNL     1      12.160  66.919  18.909  1.00  0.00     0.169 HD
ENDBRANCH  50  53
ENDBRANCH  47  50
ENDBRANCH  43  44
ENDBRANCH  42  43
ENDBRANCH  40  41
ENDBRANCH  37  40
ENDBRANCH  10  34
BRANCH   5  56
HETATM   56  C22 UNL     1      15.853  63.984  23.473  1.00  0.00     0.226 C 
HETATM   57  O2  UNL     1      16.744  64.827  23.449  1.00  0.00    -0.643 OA
HETATM   58  O3  UNL     1      15.809  62.991  22.467  1.00  0.00    -0.643 OA
ENDBRANCH   5  56
TORSDOF 17
ENDMDL
MODEL 2
REMARK VINA RESULT: -8.746538605      1.301      1.746
REMARK  17 active torsions:
REMARK  status: ('A' for Active; 'I' for Inactive)
REMARK    1  A    between atoms: C5_6  and  C6_7 
REMARK    2  A    between atoms: C7_8  and  C8_9 
REMARK    3  A    between atoms: C8_9  and  N2_10 
REMARK       I    between atoms: N2_10  and  C9_12 
REMARK       I    between atoms: C9_12  and  N3_14 
REMARK    4  A    between atoms: N3_14  and  C10_16 
REMARK    5  A    between atoms: C10_16  and  C11_17 
REMARK    6  A    between atoms: C12_18  and  C13_19 
REMARK    7  A    between atoms: C13_19  and  C14_20 
REMARK    8  A    between atoms: C14_20  and  C15_21 
REMARK    9  A    between atoms: C16_22  and  C17_23 
REMARK   10  A    between atoms: C21_27  and  C22_28 
REMARK   11  A    between atoms: C25_35  and  C26_36 
REMARK   12  A    between atoms: N5_39  and  C29_40 
REMARK   13  A    between atoms: C29_40  and  C30_41 
REMARK   14  A    between atoms: C31_42  and  C32_43 
REMARK   15  A    between atoms: C32_43  and  N6_44 
REMARK   16  A    between atoms: C35_47  and  S1_48 
REMARK   17  A    between atoms: S1_48  and  N7_49 
ROOT
HETATM    1  C17 UNL     1      12.751  63.029  26.561  1.00  0.00    -0.023 A 
HETATM    2  C18 UNL     1      13.818  62.532  25.791  1.00  0.00     0.026 A 
HETATM    3  C19 UNL     1      14.396  63.256  24.789  1.00  0.00    -0.006 A 
HETATM    4  C20 UNL     1      15.410  62.927  23.905  1.00  0.00     0.050 A 
HETATM    5  C21 UNL     1      15.571  64.004  23.064  1.00  0.00     0.111 A 
HETATM    6  N4  UNL     1      14.677  64.962  23.439  1.00  0.00    -0.350 N 
ATOM      7  H4  UNL     1      14.571  65.873  22.994  1.00  0.00     0.166 HD
HETATM    8  C23 UNL     1      13.949  64.519  24.493  1.00  0.00     0.044 A 
HETATM    9  C24 UNL     1      12.925  65.038  25.214  1.00  0.00     0.045 A 
HETATM   10  C25 UNL     1      12.303  64.315  26.256  1.00  0.00     0.004 A 
ENDROOT
BRANCH   1  11
HETATM   11  C16 UNL     1      12.089  62.265  27.579  1.00  0.00     0.008 C 
HETATM   12  C15 UNL     1      12.401  61.885  28.755  1.00  0.00    -0.026 C 
BRANCH  12  13
HETATM   13  C14 UNL     1      13.573  62.074  29.577  1.00  0.00     0.031 C 
BRANCH  13  14
HETATM   14  C13 UNL     1      13.595  63.507  30.114  1.00  0.00     0.030 C 
BRANCH  14  15
HETATM   15  C12 UNL     1      14.656  64.268  29.327  1.00  0.00    -0.029 C 
HETATM   16  C11 UNL     1      14.379  65.473  28.910  1.00  0.00    -0.011 C 
BRANCH  16  17
HETATM   17  C10 UNL     1      15.192  66.434  28.148  1.00  0.00     0.151 C 
BRANCH  17  18
HETATM   18  N3  UNL     1      16.542  65.981  28.023  1.00  0.00    -0.340 N 
HETATM   19  C9  UNL     1      17.231  65.785  26.828  1.00  0.00     0.317 C 
HETATM   20  N2  UNL     1      18.556  65.274  26.825  1.00  0.00    -0.333 N 
HETATM   21  O1  UNL     1      16.727  66.035  25.714  1.00  0.00    -0.247 OA
ATOM     22  H2  UNL     1      18.995  65.076  27.724  1.00  0.00     0.165 HD
ATOM     23  H3  UNL     1      17.047  65.782  28.887  1.00  0.00     0.164 HD
BRANCH  20  24
HETATM   24  C8  UNL     1      19.327  65.017  25.615  1.00  0.00     0.219 C 
BRANCH  24  25
HETATM   25  C7  UNL     1      19.229  63.605  25.218  1.00  0.00    -0.081 C 
HETATM   26  C6  UNL     1      19.128  62.444  24.891  1.00  0.00    -0.064 C 
BRANCH  26  27
HETATM   27  C5  UNL     1      18.987  61.050  24.519  1.00  0.00     0.033 A 
HETATM   28  C4  UNL     1      18.334  60.639  23.386  1.00  0.00     0.023 A 
HETATM   29  C3  UNL     1      18.212  59.297  23.044  1.00  0.00     0.019 A 
HETATM   30  C2  UNL     1      18.781  58.389  23.905  1.00  0.00     0.090 A 
HETATM   31  N1  UNL     1      19.418  58.794  25.011  1.00  0.00    -0.369 N 
HETATM   32  C1  UNL     1      19.975  57.742  25.845  1.00  0.00     0.154 C 
HETATM   33  C38 UNL     1      19.540  60.088  25.347  1.00  0.00     0.110 A 
ENDBRANCH  26  27
ENDBRANCH  24  25
ENDBRANCH  20  24
ENDBRANCH  17  18
ENDBRANCH  16  17
ENDBRANCH  14  15
ENDBRANCH  13  14
ENDBRANCH  12  13
ENDBRANCH   1  11
BRANCH  10  34
HETATM   34  C26 UNL     1      11.237  65.025  26.968  1.00  0.00     0.060 A 
HETATM   35  C27 UNL     1      10.699  64.977  28.206  1.00  0.00     0.050 A 
HETATM   36  C28 UNL     1       9.603  65.837  28.216  1.00  0.00     0.113 A 
HETATM   37  N5  UNL     1       9.473  66.397  27.016  1.00  0.00    -0.292 N 
HETATM   38  N8  UNL     1      10.426  65.925  26.283  1.00  0.00    -0.297 N 
ATOM     39  H8  UNL     1      10.570  66.185  25.307  1.00  0.00     0.187 HD
BRANCH  37  40
HETATM   40  C29 UNL     1       8.457  67.362  26.542  1.00  0.00     0.241 C 
BRANCH  40  41
HETATM   41  C30 UNL     1       8.452  67.424  25.076  1.00  0.00    -0.083 C 
HETATM   42  C31 UNL     1       8.429  67.493  23.874  1.00  0.00    -0.085 C 
BRANCH  42  43
HETATM   43  C32 UNL     1       8.377  67.621  22.429  1.00  0.00     0.221 C 
BRANCH  43  44
HETATM   44  N6  UNL     1       9.707  67.592  21.817  1.00  0.00    -0.355 N 
HETATM   45  C33 UNL     1      10.033  68.488  20.874  1.00  0.00     0.093 A 
HETATM   46  C34 UNL     1      11.291  68.437  20.244  1.00  0.00     0.042 A 
HETATM   47  C35 UNL     1      12.208  67.476  20.575  1.00  0.00     0.082 A 
HETATM   48  C36 UNL     1      11.850  66.551  21.561  1.00  0.00     0.042 A 
HETATM   49  C37 UNL     1      10.587  66.644  22.159  1.00  0.00     0.093 A 
BRANCH  47  50
HETATM   50  S1  UNL     1      13.779  67.355  19.786  1.00  0.00     0.256 S 
HETATM   51  O4  UNL     1      13.982  68.550  18.886  1.00  0.00    -0.201 OA
HETATM   52  O5  UNL     1      13.820  66.135  18.900  1.00  0.00    -0.201 OA
BRANCH  50  53
HETATM   53  N7  UNL     1      15.018  67.296  20.966  1.00  0.00    -0.324 N 
ATOM     54  H72 UNL     1      15.026  66.653  21.758  1.00  0.00     0.169 HD
ATOM     55  H71 UNL     1      15.732  67.992  20.753  1.00  0.00     0.169 HD
ENDBRANCH  50  53
ENDBRANCH  47  50
ENDBRANCH  43  44
ENDBRANCH  42  43
ENDBRANCH  40  41
ENDBRANCH  37  40
ENDBRANCH  10  34
BRANCH   5  56
HETATM   56  C22 UNL     1      16.487  64.029  21.951  1.00  0.00     0.226 C 
HETATM   57  O2  UNL     1      17.680  63.752  22.015  1.00  0.00    -0.643 OA
HETATM   58  O3  UNL     1      15.927  64.403  20.707  1.00  0.00    -0.643 OA
ENDBRANCH   5  56
TORSDOF 17
ENDMDL
MODEL 3
REMARK VINA RESULT: -8.634545568      3.824      9.661
REMARK  17 active torsions:
REMARK  status: ('A' for Active; 'I' for Inactive)
REMARK    1  A    between atoms: C5_6  and  C6_7 
REMARK    2  A    between atoms: C7_8  and  C8_9 
REMARK    3  A    between atoms: C8_9  and  N2_10 
REMARK       I    between atoms: N2_10  and  C9_12 
REMARK       I    between atoms: C9_12  and  N3_14 
REMARK    4  A    between atoms: N3_14  and  C10_16 
REMARK    5  A    between atoms: C10_16  and  C11_17 
REMARK    6  A    between atoms: C12_18  and  C13_19 
REMARK    7  A    between atoms: C13_19  and  C14_20 
REMARK    8  A    between atoms: C14_20  and  C15_21 
REMARK    9  A    between atoms: C16_22  and  C17_23 
REMARK   10  A    between atoms: C21_27  and  C22_28 
REMARK   11  A    between atoms: C25_35  and  C26_36 
REMARK   12  A    between atoms: N5_39  and  C29_40 
REMARK   13  A    between atoms: C29_40  and  C30_41 
REMARK   14  A    between atoms: C31_42  and  C32_43 
REMARK   15  A    between atoms: C32_43  and  N6_44 
REMARK   16  A    between atoms: C35_47  and  S1_48 
REMARK   17  A    between atoms: S1_48  and  N7_49 
ROOT
HETATM    1  C17 UNL     1      12.552  62.474  27.670  1.00  0.00    -0.023 A 
HETATM    2  C18 UNL     1      11.568  61.470  27.693  1.00  0.00     0.026 A 
HETATM    3  C19 UNL     1      10.853  61.173  28.816  1.00  0.00    -0.006 A 
HETATM    4  C20 UNL     1       9.890  60.204  29.046  1.00  0.00     0.050 A 
HETATM    5  C21 UNL     1       9.528  60.307  30.369  1.00  0.00     0.111 A 
HETATM    6  N4  UNL     1      10.255  61.320  30.922  1.00  0.00    -0.350 N 
ATOM      7  H4  UNL     1      10.193  61.625  31.893  1.00  0.00     0.166 HD
HETATM    8  C23 UNL     1      11.071  61.860  29.985  1.00  0.00     0.044 A 
HETATM    9  C24 UNL     1      12.007  62.840  30.004  1.00  0.00     0.045 A 
HETATM   10  C25 UNL     1      12.768  63.170  28.859  1.00  0.00     0.004 A 
ENDROOT
BRANCH   1  11
HETATM   11  C16 UNL     1      13.358  62.764  26.518  1.00  0.00     0.008 C 
HETATM   12  C15 UNL     1      13.407  63.724  25.681  1.00  0.00    -0.026 C 
BRANCH  12  13
HETATM   13  C14 UNL     1      12.661  64.953  25.540  1.00  0.00     0.031 C 
BRANCH  13  14
HETATM   14  C13 UNL     1      12.795  65.468  24.104  1.00  0.00     0.030 C 
BRANCH  14  15
HETATM   15  C12 UNL     1      11.467  66.120  23.733  1.00  0.00    -0.029 C 
HETATM   16  C11 UNL     1      10.666  66.493  24.693  1.00  0.00    -0.011 C 
BRANCH  16  17
HETATM   17  C10 UNL     1       9.347  67.143  24.641  1.00  0.00     0.151 C 
BRANCH  17  18
HETATM   18  N3  UNL     1       9.437  68.444  24.054  1.00  0.00    -0.340 N 
HETATM   19  C9  UNL     1       9.202  68.755  22.717  1.00  0.00     0.317 C 
HETATM   20  N2  UNL     1       9.379  70.079  22.234  1.00  0.00    -0.333 N 
HETATM   21  O1  UNL     1       8.840  67.901  21.883  1.00  0.00    -0.247 OA
ATOM     22  H2  UNL     1       9.661  70.798  22.900  1.00  0.00     0.165 HD
ATOM     23  H3  UNL     1       9.696  69.215  24.671  1.00  0.00     0.164 HD
BRANCH  20  24
HETATM   24  C8  UNL     1       9.182  70.472  20.845  1.00  0.00     0.219 C 
BRANCH  24  25
HETATM   25  C7  UNL     1      10.339  70.097  20.021  1.00  0.00    -0.081 C 
HETATM   26  C6  UNL     1      11.303  69.781  19.359  1.00  0.00    -0.064 C 
BRANCH  26  27
HETATM   27  C5  UNL     1      12.473  69.413  18.585  1.00  0.00     0.033 A 
HETATM   28  C4  UNL     1      12.479  68.385  17.679  1.00  0.00     0.023 A 
HETATM   29  C3  UNL     1      13.610  68.049  16.944  1.00  0.00     0.019 A 
HETATM   30  C2  UNL     1      14.737  68.803  17.172  1.00  0.00     0.090 A 
HETATM   31  N1  UNL     1      14.727  69.806  18.059  1.00  0.00    -0.369 N 
HETATM   32  C1  UNL     1      15.979  70.527  18.216  1.00  0.00     0.154 C 
HETATM   33  C38 UNL     1      13.638  70.136  18.771  1.00  0.00     0.110 A 
ENDBRANCH  26  27
ENDBRANCH  24  25
ENDBRANCH  20  24
ENDBRANCH  17  18
ENDBRANCH  16  17
ENDBRANCH  14  15
ENDBRANCH  13  14
ENDBRANCH  12  13
ENDBRANCH   1  11
BRANCH  10  34
HETATM   34  C26 UNL     1      13.712  64.278  29.028  1.00  0.00     0.060 A 
HETATM   35  C27 UNL     1      13.626  65.624  29.086  1.00  0.00     0.050 A 
HETATM   36  C28 UNL     1      14.926  66.122  29.127  1.00  0.00     0.113 A 
HETATM   37  N5  UNL     1      15.786  65.107  29.094  1.00  0.00    -0.292 N 
HETATM   38  N8  UNL     1      15.080  64.027  29.038  1.00  0.00    -0.297 N 
ATOM     39  H8  UNL     1      15.483  63.090  29.003  1.00  0.00     0.187 HD
BRANCH  37  40
HETATM   40  C29 UNL     1      17.265  65.137  29.105  1.00  0.00     0.241 C 
BRANCH  40  41
HETATM   41  C30 UNL     1      17.795  64.810  27.777  1.00  0.00    -0.083 C 
HETATM   42  C31 UNL     1      18.232  64.567  26.681  1.00  0.00    -0.085 C 
BRANCH  42  43
HETATM   43  C32 UNL     1      18.775  64.323  25.357  1.00  0.00     0.221 C 
BRANCH  43  44
HETATM   44  N6  UNL     1      18.825  62.897  25.028  1.00  0.00    -0.355 N 
HETATM   45  C33 UNL     1      19.361  62.025  25.893  1.00  0.00     0.093 A 
HETATM   46  C34 UNL     1      19.459  60.660  25.565  1.00  0.00     0.042 A 
HETATM   47  C35 UNL     1      19.013  60.190  24.359  1.00  0.00     0.082 A 
HETATM   48  C36 UNL     1      18.455  61.114  23.469  1.00  0.00     0.042 A 
HETATM   49  C37 UNL     1      18.380  62.462  23.843  1.00  0.00     0.093 A 
BRANCH  47  50
HETATM   50  S1  UNL     1      19.149  58.495  23.894  1.00  0.00     0.256 S 
HETATM   51  O4  UNL     1      19.987  58.383  22.644  1.00  0.00    -0.201 OA
HETATM   52  O5  UNL     1      17.787  57.942  23.553  1.00  0.00    -0.201 OA
BRANCH  50  53
HETATM   53  N7  UNL     1      19.871  57.602  25.163  1.00  0.00    -0.324 N 
ATOM     54  H72 UNL     1      19.372  56.938  25.755  1.00  0.00     0.169 HD
ATOM     55  H71 UNL     1      20.862  57.835  25.230  1.00  0.00     0.169 HD
ENDBRANCH  50  53
ENDBRANCH  47  50
ENDBRANCH  43  44
ENDBRANCH  42  43
ENDBRANCH  40  41
ENDBRANCH  37  40
ENDBRANCH  10  34
BRANCH   5  56
HETATM   56  C22 UNL     1       8.597  59.421  31.022  1.00  0.00     0.226 C 
HETATM   57  O2  UNL     1       8.322  58.287  30.645  1.00  0.00    -0.643 OA
HETATM   58  O3  UNL     1       7.977  59.935  32.185  1.00  0.00    -0.643 OA
ENDBRANCH   5  56
TORSDOF 17
ENDMDL
MODEL 4
REMARK VINA RESULT: -8.543349103      3.558      9.629
REMARK  17 active torsions:
REMARK  status: ('A' for Active; 'I' for Inactive)
REMARK    1  A    between atoms: C5_6  and  C6_7 
REMARK    2  A    between atoms: C7_8  and  C8_9 
REMARK    3  A    between atoms: C8_9  and  N2_10 
REMARK       I    between atoms: N2_10  and  C9_12 
REMARK       I    between atoms: C9_12  and  N3_14 
REMARK    4  A    between atoms: N3_14  and  C10_16 
REMARK    5  A    between atoms: C10_16  and  C11_17 
REMARK    6  A    between atoms: C12_18  and  C13_19 
REMARK    7  A    between atoms: C13_19  and  C14_20 
REMARK    8  A    between atoms: C14_20  and  C15_21 
REMARK    9  A    between atoms: C16_22  and  C17_23 
REMARK   10  A    between atoms: C21_27  and  C22_28 
REMARK   11  A    between atoms: C25_35  and  C26_36 
REMARK   12  A    between atoms: N5_39  and  C29_40 
REMARK   13  A    between atoms: C29_40  and  C30_41 
REMARK   14  A    between atoms: C31_42  and  C32_43 
REMARK   15  A    between atoms: C32_43  and  N6_44 
REMARK   16  A    between atoms: C35_47  and  S1_48 
REMARK   17  A    between atoms: S1_48  and  N7_49 
ROOT
HETATM    1  C17 UNL     1      12.728  62.687  27.498  1.00  0.00    -0.023 A 
HETATM    2  C18 UNL     1      11.759  61.668  27.461  1.00  0.00     0.026 A 
HETATM    3  C19 UNL     1      11.100  61.244  28.577  1.00  0.00    -0.006 A 
HETATM    4  C20 UNL     1      10.162  60.240  28.747  1.00  0.00     0.050 A 
HETATM    5  C21 UNL     1       9.860  60.199  30.088  1.00  0.00     0.111 A 
HETATM    6  N4  UNL     1      10.597  61.161  30.711  1.00  0.00    -0.350 N 
ATOM      7  H4  UNL     1      10.577  61.363  31.710  1.00  0.00     0.166 HD
HETATM    8  C23 UNL     1      11.363  61.810  29.800  1.00  0.00     0.044 A 
HETATM    9  C24 UNL     1      12.286  62.799  29.880  1.00  0.00     0.045 A 
HETATM   10  C25 UNL     1      12.989  63.260  28.743  1.00  0.00     0.004 A 
ENDROOT
BRANCH   1  11
HETATM   11  C16 UNL     1      13.476  63.108  26.349  1.00  0.00     0.008 C 
HETATM   12  C15 UNL     1      13.406  64.102  25.553  1.00  0.00    -0.026 C 
BRANCH  12  13
HETATM   13  C14 UNL     1      12.531  65.248  25.476  1.00  0.00     0.031 C 
BRANCH  13  14
HETATM   14  C13 UNL     1      12.346  65.651  24.010  1.00  0.00     0.030 C 
BRANCH  14  15
HETATM   15  C12 UNL     1      11.203  66.659  23.959  1.00  0.00    -0.029 C 
HETATM   16  C11 UNL     1      10.062  66.281  23.450  1.00  0.00    -0.011 C 
BRANCH  16  17
HETATM   17  C10 UNL     1       8.800  67.018  23.277  1.00  0.00     0.151 C 
BRANCH  17  18
HETATM   18  N3  UNL     1       7.899  66.756  24.356  1.00  0.00    -0.340 N 
HETATM   19  C9  UNL     1       7.832  67.461  25.556  1.00  0.00     0.317 C 
HETATM   20  N2  UNL     1       6.931  67.071  26.582  1.00  0.00    -0.333 N 
HETATM   21  O1  UNL     1       8.555  68.449  25.794  1.00  0.00    -0.247 OA
ATOM     22  H2  UNL     1       6.320  66.274  26.406  1.00  0.00     0.165 HD
ATOM     23  H3  UNL     1       7.244  65.982  24.237  1.00  0.00     0.164 HD
BRANCH  20  24
HETATM   24  C8  UNL     1       6.828  67.741  27.872  1.00  0.00     0.219 C 
BRANCH  24  25
HETATM   25  C7  UNL     1       7.489  66.961  28.927  1.00  0.00    -0.081 C 
HETATM   26  C6  UNL     1       8.051  66.316  29.784  1.00  0.00    -0.064 C 
BRANCH  26  27
HETATM   27  C5  UNL     1       8.733  65.527  30.792  1.00  0.00     0.033 A 
HETATM   28  C4  UNL     1       8.163  64.441  31.404  1.00  0.00     0.023 A 
HETATM   29  C3  UNL     1       8.834  63.694  32.366  1.00  0.00     0.019 A 
HETATM   30  C2  UNL     1      10.109  64.101  32.681  1.00  0.00     0.090 A 
HETATM   31  N1  UNL     1      10.662  65.163  32.081  1.00  0.00    -0.369 N 
HETATM   32  C1  UNL     1      12.012  65.498  32.501  1.00  0.00     0.154 C 
HETATM   33  C38 UNL     1      10.020  65.888  31.151  1.00  0.00     0.110 A 
ENDBRANCH  26  27
ENDBRANCH  24  25
ENDBRANCH  20  24
ENDBRANCH  17  18
ENDBRANCH  16  17
ENDBRANCH  14  15
ENDBRANCH  13  14
ENDBRANCH  12  13
ENDBRANCH   1  11
BRANCH  10  34
HETATM   34  C26 UNL     1      13.926  64.360  28.985  1.00  0.00     0.060 A 
HETATM   35  C27 UNL     1      13.825  65.694  29.173  1.00  0.00     0.050 A 
HETATM   36  C28 UNL     1      15.121  66.204  29.217  1.00  0.00     0.113 A 
HETATM   37  N5  UNL     1      15.991  65.210  29.058  1.00  0.00    -0.292 N 
HETATM   38  N8  UNL     1      15.296  64.130  28.923  1.00  0.00    -0.297 N 
ATOM     39  H8  UNL     1      15.708  63.207  28.785  1.00  0.00     0.187 HD
BRANCH  37  40
HETATM   40  C29 UNL     1      17.469  65.261  29.021  1.00  0.00     0.241 C 
BRANCH  40  41
HETATM   41  C30 UNL     1      17.962  64.907  27.685  1.00  0.00    -0.083 C 
HETATM   42  C31 UNL     1      18.363  64.643  26.581  1.00  0.00    -0.085 C 
BRANCH  42  43
HETATM   43  C32 UNL     1      18.858  64.373  25.243  1.00  0.00     0.221 C 
BRANCH  43  44
HETATM   44  N6  UNL     1      18.881  62.942  24.934  1.00  0.00    -0.355 N 
HETATM   45  C33 UNL     1      19.344  62.066  25.836  1.00  0.00     0.093 A 
HETATM   46  C34 UNL     1      19.417  60.694  25.529  1.00  0.00     0.042 A 
HETATM   47  C35 UNL     1      19.020  60.222  24.307  1.00  0.00     0.082 A 
HETATM   48  C36 UNL     1      18.537  61.151  23.379  1.00  0.00     0.042 A 
HETATM   49  C37 UNL     1      18.484  62.505  23.732  1.00  0.00     0.093 A 
BRANCH  47  50
HETATM   50  S1  UNL     1      19.127  58.518  23.870  1.00  0.00     0.256 S 
HETATM   51  O4  UNL     1      19.952  58.373  22.613  1.00  0.00    -0.201 OA
HETATM   52  O5  UNL     1      17.754  57.978  23.551  1.00  0.00    -0.201 OA
BRANCH  50  53
HETATM   53  N7  UNL     1      19.849  57.636  25.146  1.00  0.00    -0.324 N 
ATOM     54  H72 UNL     1      19.341  57.273  25.953  1.00  0.00     0.169 HD
ATOM     55  H71 UNL     1      20.849  57.533  24.974  1.00  0.00     0.169 HD
ENDBRANCH  50  53
ENDBRANCH  47  50
ENDBRANCH  43  44
ENDBRANCH  42  43
ENDBRANCH  40  41
ENDBRANCH  37  40
ENDBRANCH  10  34
BRANCH   5  56
HETATM   56  C22 UNL     1       8.971  59.234  30.687  1.00  0.00     0.226 C 
HETATM   57  O2  UNL     1       8.977  58.030  30.449  1.00  0.00    -0.643 OA
HETATM   58  O3  UNL     1       8.038  59.753  31.615  1.00  0.00    -0.643 OA
ENDBRANCH   5  56
TORSDOF 17
ENDMDL
MODEL 5
REMARK VINA RESULT: -8.391275595      1.728      2.877
REMARK  17 active torsions:
REMARK  status: ('A' for Active; 'I' for Inactive)
REMARK    1  A    between atoms: C5_6  and  C6_7 
REMARK    2  A    between atoms: C7_8  and  C8_9 
REMARK    3  A    between atoms: C8_9  and  N2_10 
REMARK       I    between atoms: N2_10  and  C9_12 
REMARK       I    between atoms: C9_12  and  N3_14 
REMARK    4  A    between atoms: N3_14  and  C10_16 
REMARK    5  A    between atoms: C10_16  and  C11_17 
REMARK    6  A    between atoms: C12_18  and  C13_19 
REMARK    7  A    between atoms: C13_19  and  C14_20 
REMARK    8  A    between atoms: C14_20  and  C15_21 
REMARK    9  A    between atoms: C16_22  and  C17_23 
REMARK   10  A    between atoms: C21_27  and  C22_28 
REMARK   11  A    between atoms: C25_35  and  C26_36 
REMARK   12  A    between atoms: N5_39  and  C29_40 
REMARK   13  A    between atoms: C29_40  and  C30_41 
REMARK   14  A    between atoms: C31_42  and  C32_43 
REMARK   15  A    between atoms: C32_43  and  N6_44 
REMARK   16  A    between atoms: C35_47  and  S1_48 
REMARK   17  A    between atoms: S1_48  and  N7_49 
ROOT
HETATM    1  C17 UNL     1      14.181  62.233  29.075  1.00  0.00    -0.023 A 
HETATM    2  C18 UNL     1      15.262  62.415  28.194  1.00  0.00     0.026 A 
HETATM    3  C19 UNL     1      15.087  62.697  26.871  1.00  0.00    -0.006 A 
HETATM    4  C20 UNL     1      16.010  62.864  25.851  1.00  0.00     0.050 A 
HETATM    5  C21 UNL     1      15.294  63.083  24.697  1.00  0.00     0.111 A 
HETATM    6  N4  UNL     1      13.969  63.053  25.016  1.00  0.00    -0.350 N 
ATOM      7  H4  UNL     1      13.203  63.188  24.358  1.00  0.00     0.166 HD
HETATM    8  C23 UNL     1      13.825  62.817  26.343  1.00  0.00     0.044 A 
HETATM    9  C24 UNL     1      12.755  62.654  27.159  1.00  0.00     0.045 A 
HETATM   10  C25 UNL     1      12.901  62.358  28.533  1.00  0.00     0.004 A 
ENDROOT
BRANCH   1  11
HETATM   11  C16 UNL     1      14.339  61.877  30.456  1.00  0.00     0.008 C 
HETATM   12  C15 UNL     1      14.390  62.535  31.547  1.00  0.00    -0.026 C 
BRANCH  12  13
HETATM   13  C14 UNL     1      14.300  63.942  31.860  1.00  0.00     0.031 C 
BRANCH  13  14
HETATM   14  C13 UNL     1      15.688  64.471  32.233  1.00  0.00     0.030 C 
BRANCH  14  15
HETATM   15  C12 UNL     1      16.387  64.859  30.935  1.00  0.00    -0.029 C 
HETATM   16  C11 UNL     1      15.792  65.699  30.134  1.00  0.00    -0.011 C 
BRANCH  16  17
HETATM   17  C10 UNL     1      16.218  66.255  28.839  1.00  0.00     0.151 C 
BRANCH  17  18
HETATM   18  N3  UNL     1      17.567  65.885  28.539  1.00  0.00    -0.340 N 
HETATM   19  C9  UNL     1      18.084  65.641  27.269  1.00  0.00     0.317 C 
HETATM   20  N2  UNL     1      19.430  65.223  27.098  1.00  0.00    -0.333 N 
HETATM   21  O1  UNL     1      17.403  65.766  26.232  1.00  0.00    -0.247 OA
ATOM     22  H2  UNL     1      20.012  65.127  27.931  1.00  0.00     0.165 HD
ATOM     23  H3  UNL     1      18.208  65.791  29.327  1.00  0.00     0.164 HD
BRANCH  20  24
HETATM   24  C8  UNL     1      20.031  64.921  25.805  1.00  0.00     0.219 C 
BRANCH  24  25
HETATM   25  C7  UNL     1      19.742  63.539  25.398  1.00  0.00    -0.081 C 
HETATM   26  C6  UNL     1      19.510  62.405  25.042  1.00  0.00    -0.064 C 
BRANCH  26  27
HETATM   27  C5  UNL     1      19.219  61.057  24.595  1.00  0.00     0.033 A 
HETATM   28  C4  UNL     1      18.522  60.782  23.448  1.00  0.00     0.023 A 
HETATM   29  C3  UNL     1      18.254  59.482  23.034  1.00  0.00     0.019 A 
HETATM   30  C2  UNL     1      18.726  58.473  23.838  1.00  0.00     0.090 A 
HETATM   31  N1  UNL     1      19.407  58.744  24.959  1.00  0.00    -0.369 N 
HETATM   32  C1  UNL     1      19.851  57.594  25.728  1.00  0.00     0.154 C 
HETATM   33  C38 UNL     1      19.669  59.997  25.364  1.00  0.00     0.110 A 
ENDBRANCH  26  27
ENDBRANCH  24  25
ENDBRANCH  20  24
ENDBRANCH  17  18
ENDBRANCH  16  17
ENDBRANCH  14  15
ENDBRANCH  13  14
ENDBRANCH  12  13
ENDBRANCH   1  11
BRANCH  10  34
HETATM   34  C26 UNL     1      11.652  62.249  29.291  1.00  0.00     0.060 A 
HETATM   35  C27 UNL     1      10.850  61.241  29.696  1.00  0.00     0.050 A 
HETATM   36  C28 UNL     1       9.721  61.817  30.275  1.00  0.00     0.113 A 
HETATM   37  N5  UNL     1       9.828  63.142  30.225  1.00  0.00    -0.292 N 
HETATM   38  N8  UNL     1      10.956  63.399  29.651  1.00  0.00    -0.297 N 
ATOM     39  H8  UNL     1      11.301  64.344  29.480  1.00  0.00     0.187 HD
BRANCH  37  40
HETATM   40  C29 UNL     1       8.880  64.173  30.700  1.00  0.00     0.241 C 
BRANCH  40  41
HETATM   41  C30 UNL     1       8.648  65.177  29.656  1.00  0.00    -0.083 C 
HETATM   42  C31 UNL     1       8.457  65.981  28.780  1.00  0.00    -0.085 C 
BRANCH  42  43
HETATM   43  C32 UNL     1       8.209  66.913  27.695  1.00  0.00     0.221 C 
BRANCH  43  44
HETATM   44  N6  UNL     1       9.082  66.674  26.543  1.00  0.00    -0.355 N 
HETATM   45  C33 UNL     1      10.305  66.154  26.722  1.00  0.00     0.093 A 
HETATM   46  C34 UNL     1      11.170  65.968  25.628  1.00  0.00     0.042 A 
HETATM   47  C35 UNL     1      10.789  66.313  24.360  1.00  0.00     0.082 A 
HETATM   48  C36 UNL     1       9.509  66.853  24.192  1.00  0.00     0.042 A 
HETATM   49  C37 UNL     1       8.685  67.018  25.312  1.00  0.00     0.093 A 
BRANCH  47  50
HETATM   50  S1  UNL     1      11.854  66.129  22.968  1.00  0.00     0.256 S 
HETATM   51  O4  UNL     1      12.772  64.952  23.190  1.00  0.00    -0.201 OA
HETATM   52  O5  UNL     1      12.737  67.345  22.829  1.00  0.00    -0.201 OA
BRANCH  50  53
HETATM   53  N7  UNL     1      10.923  65.885  21.552  1.00  0.00    -0.324 N 
ATOM     54  H72 UNL     1      10.055  65.351  21.521  1.00  0.00     0.169 HD
ATOM     55  H71 UNL     1      11.368  66.351  20.761  1.00  0.00     0.169 HD
ENDBRANCH  50  53
ENDBRANCH  47  50
ENDBRANCH  43  44
ENDBRANCH  42  43
ENDBRANCH  40  41
ENDBRANCH  37  40
ENDBRANCH  10  34
BRANCH   5  56
HETATM   56  C22 UNL     1      15.891  63.232  23.393  1.00  0.00     0.226 C 
HETATM   57  O2  UNL     1      15.660  62.512  22.428  1.00  0.00    -0.643 OA
HETATM   58  O3  UNL     1      16.805  64.303  23.257  1.00  0.00    -0.643 OA
ENDBRANCH   5  56
TORSDOF 17
ENDMDL
