MODEL 1
REMARK VINA RESULT: -6.309091217      0.000      0.000
REMARK  4 active torsions:
REMARK  status: ('A' for Active; 'I' for Inactive)
REMARK    1  A    between atoms: N1_1  and  C1_5 
REMARK    2  A    between atoms: C1_5  and  C2_6 
REMARK    3  A    between atoms: C2_6  and  C3_7 
REMARK    4  A    between atoms: C3_7  and  N2_8 
ROOT
HETATM    1  N2  UNL     1      16.480   6.071 -10.055  1.00  0.00    -0.360 N 
ATOM      2  H2  UNL     1      15.886   5.680  -9.325  1.00  0.00     0.162 HD
HETATM    3  C4  UNL     1      16.228   5.864 -11.308  1.00  0.00     0.205 C 
HETATM    4  N3  UNL     1      15.148   5.103 -11.867  1.00  0.00    -0.256 N 
ATOM      5  H3  UNL     1      14.376   4.687 -11.346  1.00  0.00     0.187 HD
HETATM    6  N4  UNL     1      15.339   5.029 -13.248  1.00  0.00    -0.006 NA
HETATM    7  N5  UNL     1      16.201   6.068 -13.599  1.00  0.00    -0.006 NA
HETATM    8  N6  UNL     1      16.948   6.333 -12.444  1.00  0.00    -0.256 N 
ATOM      9  H6  UNL     1      17.861   6.788 -12.421  1.00  0.00     0.187 HD
ENDROOT
BRANCH   1  10
HETATM   10  C3  UNL     1      17.637   6.880  -9.728  1.00  0.00     0.124 C 
BRANCH  10  11
HETATM   11  C2  UNL     1      17.934   6.870  -8.254  1.00  0.00     0.047 C 
BRANCH  11  12
HETATM   12  C1  UNL     1      17.749   8.206  -7.598  1.00  0.00     0.231 C 
BRANCH  12  13
HETATM   13  N1  UNL     1      16.512   8.771  -8.135  1.00  0.00    -0.079 N 
ATOM     14  H13 UNL     1      16.660   9.350  -8.962  1.00  0.00     0.274 HD
ATOM     15  H12 UNL     1      15.908   8.075  -8.571  1.00  0.00     0.274 HD
ATOM     16  H11 UNL     1      16.062   9.272  -7.368  1.00  0.00     0.274 HD
ENDBRANCH  12  13
ENDBRANCH  11  12
ENDBRANCH  10  11
ENDBRANCH   1  10
TORSDOF 4
ENDMDL
MODEL 2
REMARK VINA RESULT: -5.929141933      0.805      1.352
REMARK  4 active torsions:
REMARK  status: ('A' for Active; 'I' for Inactive)
REMARK    1  A    between atoms: N1_1  and  C1_5 
REMARK    2  A    between atoms: C1_5  and  C2_6 
REMARK    3  A    between atoms: C2_6  and  C3_7 
REMARK    4  A    between atoms: C3_7  and  N2_8 
ROOT
HETATM    1  N2  UNL     1      17.883   6.263 -10.541  1.00  0.00    -0.360 N 
ATOM      2  H2  UNL     1      18.843   6.520 -10.769  1.00  0.00     0.162 HD
HETATM    3  C4  UNL     1      17.022   5.991 -11.469  1.00  0.00     0.205 C 
HETATM    4  N3  UNL     1      17.236   6.000 -12.888  1.00  0.00    -0.256 N 
ATOM      5  H3  UNL     1      18.131   6.142 -13.358  1.00  0.00     0.187 HD
HETATM    6  N4  UNL     1      16.007   5.782 -13.514  1.00  0.00    -0.006 NA
HETATM    7  N5  UNL     1      15.165   5.196 -12.568  1.00  0.00    -0.006 NA
HETATM    8  N6  UNL     1      15.656   5.617 -11.326  1.00  0.00    -0.256 N 
ATOM      9  H6  UNL     1      15.120   5.650 -10.458  1.00  0.00     0.187 HD
ENDROOT
BRANCH   1  10
HETATM   10  C3  UNL     1      17.433   6.187  -9.166  1.00  0.00     0.124 C 
BRANCH  10  11
HETATM   11  C2  UNL     1      18.183   7.137  -8.274  1.00  0.00     0.047 C 
BRANCH  11  12
HETATM   12  C1  UNL     1      17.348   8.283  -7.785  1.00  0.00     0.231 C 
BRANCH  12  13
HETATM   13  N1  UNL     1      16.424   8.622  -8.866  1.00  0.00    -0.079 N 
ATOM     14  H13 UNL     1      16.880   8.701  -9.775  1.00  0.00     0.274 HD
ATOM     15  H12 UNL     1      15.789   7.861  -9.107  1.00  0.00     0.274 HD
ATOM     16  H11 UNL     1      15.941   9.475  -8.582  1.00  0.00     0.274 HD
ENDBRANCH  12  13
ENDBRANCH  11  12
ENDBRANCH  10  11
ENDBRANCH   1  10
TORSDOF 4
ENDMDL
MODEL 3
REMARK VINA RESULT: -5.901052887      1.861      4.822
REMARK  4 active torsions:
REMARK  status: ('A' for Active; 'I' for Inactive)
REMARK    1  A    between atoms: N1_1  and  C1_5 
REMARK    2  A    between atoms: C1_5  and  C2_6 
REMARK    3  A    between atoms: C2_6  and  C3_7 
REMARK    4  A    between atoms: C3_7  and  N2_8 
ROOT
HETATM    1  N2  UNL     1      16.175   6.610 -10.909  1.00  0.00    -0.360 N 
ATOM      2  H2  UNL     1      15.582   7.384 -11.207  1.00  0.00     0.162 HD
HETATM    3  C4  UNL     1      16.914   6.701  -9.850  1.00  0.00     0.205 C 
HETATM    4  N3  UNL     1      17.033   7.821  -8.961  1.00  0.00    -0.256 N 
ATOM      5  H3  UNL     1      16.479   8.677  -8.999  1.00  0.00     0.187 HD
HETATM    6  N4  UNL     1      18.039   7.536  -8.036  1.00  0.00    -0.006 NA
HETATM    7  N5  UNL     1      18.211   6.151  -8.032  1.00  0.00    -0.006 NA
HETATM    8  N6  UNL     1      17.791   5.723  -9.297  1.00  0.00    -0.256 N 
ATOM      9  H6  UNL     1      18.068   4.852  -9.750  1.00  0.00     0.187 HD
ENDROOT
BRANCH   1  10
HETATM   10  C3  UNL     1      16.220   5.369 -11.655  1.00  0.00     0.124 C 
BRANCH  10  11
HETATM   11  C2  UNL     1      16.247   5.605 -13.140  1.00  0.00     0.047 C 
BRANCH  11  12
HETATM   12  C1  UNL     1      17.308   6.573 -13.571  1.00  0.00     0.231 C 
BRANCH  12  13
HETATM   13  N1  UNL     1      16.836   7.192 -14.808  1.00  0.00    -0.079 N 
ATOM     14  H13 UNL     1      17.272   6.804 -15.644  1.00  0.00     0.274 HD
ATOM     15  H12 UNL     1      15.873   6.946 -15.039  1.00  0.00     0.274 HD
ATOM     16  H11 UNL     1      16.981   8.197 -14.708  1.00  0.00     0.274 HD
ENDBRANCH  12  13
ENDBRANCH  11  12
ENDBRANCH  10  11
ENDBRANCH   1  10
TORSDOF 4
ENDMDL
MODEL 4
REMARK VINA RESULT: -5.893816990      1.478      2.115
REMARK  4 active torsions:
REMARK  status: ('A' for Active; 'I' for Inactive)
REMARK    1  A    between atoms: N1_1  and  C1_5 
REMARK    2  A    between atoms: C1_5  and  C2_6 
REMARK    3  A    between atoms: C2_6  and  C3_7 
REMARK    4  A    between atoms: C3_7  and  N2_8 
ROOT
HETATM    1  N2  UNL     1      18.126   6.105 -11.329  1.00  0.00    -0.360 N 
ATOM      2  H2  UNL     1      19.103   5.912 -11.108  1.00  0.00     0.162 HD
HETATM    3  C4  UNL     1      17.761   6.427 -12.528  1.00  0.00     0.205 C 
HETATM    4  N3  UNL     1      18.594   6.565 -13.688  1.00  0.00    -0.256 N 
ATOM      5  H3  UNL     1      19.588   6.342 -13.740  1.00  0.00     0.187 HD
HETATM    6  N4  UNL     1      17.808   7.057 -14.731  1.00  0.00    -0.006 NA
HETATM    7  N5  UNL     1      16.478   6.792 -14.402  1.00  0.00    -0.006 NA
HETATM    8  N6  UNL     1      16.451   6.724 -13.003  1.00  0.00    -0.256 N 
ATOM      9  H6  UNL     1      15.626   6.863 -12.420  1.00  0.00     0.187 HD
ENDROOT
BRANCH   1  10
HETATM   10  C3  UNL     1      17.097   6.027 -10.311  1.00  0.00     0.124 C 
BRANCH  10  11
HETATM   11  C2  UNL     1      17.671   6.099  -8.923  1.00  0.00     0.047 C 
BRANCH  11  12
HETATM   12  C1  UNL     1      17.705   7.489  -8.362  1.00  0.00     0.231 C 
BRANCH  12  13
HETATM   13  N1  UNL     1      16.579   8.210  -8.954  1.00  0.00    -0.079 N 
ATOM     14  H13 UNL     1      16.867   8.947  -9.598  1.00  0.00     0.274 HD
ATOM     15  H12 UNL     1      16.052   7.652  -9.625  1.00  0.00     0.274 HD
ATOM     16  H11 UNL     1      16.010   8.552  -8.179  1.00  0.00     0.274 HD
ENDBRANCH  12  13
ENDBRANCH  11  12
ENDBRANCH  10  11
ENDBRANCH   1  10
TORSDOF 4
ENDMDL
MODEL 5
REMARK VINA RESULT: -5.786683853      1.810      4.818
REMARK  4 active torsions:
REMARK  status: ('A' for Active; 'I' for Inactive)
REMARK    1  A    between atoms: N1_1  and  C1_5 
REMARK    2  A    between atoms: C1_5  and  C2_6 
REMARK    3  A    between atoms: C2_6  and  C3_7 
REMARK    4  A    between atoms: C3_7  and  N2_8 
ROOT
HETATM    1  N2  UNL     1      17.346   5.931 -10.189  1.00  0.00    -0.360 N 
ATOM      2  H2  UNL     1      18.072   5.216 -10.171  1.00  0.00     0.162 HD
HETATM    3  C4  UNL     1      17.320   6.884  -9.314  1.00  0.00     0.205 C 
HETATM    4  N3  UNL     1      18.237   7.101  -8.232  1.00  0.00    -0.256 N 
ATOM      5  H3  UNL     1      19.093   6.573  -8.057  1.00  0.00     0.187 HD
HETATM    6  N4  UNL     1      17.755   8.159  -7.460  1.00  0.00    -0.006 NA
HETATM    7  N5  UNL     1      16.864   8.876  -8.258  1.00  0.00    -0.006 NA
HETATM    8  N6  UNL     1      16.386   7.954  -9.198  1.00  0.00    -0.256 N 
ATOM      9  H6  UNL     1      15.511   8.035  -9.715  1.00  0.00     0.187 HD
ENDROOT
BRANCH   1  10
HETATM   10  C3  UNL     1      16.305   5.918 -11.197  1.00  0.00     0.124 C 
BRANCH  10  11
HETATM   11  C2  UNL     1      16.839   5.553 -12.555  1.00  0.00     0.047 C 
BRANCH  11  12
HETATM   12  C1  UNL     1      17.931   6.464 -13.031  1.00  0.00     0.231 C 
BRANCH  12  13
HETATM   13  N1  UNL     1      17.406   7.179 -14.193  1.00  0.00    -0.079 N 
ATOM     14  H13 UNL     1      16.425   6.974 -14.382  1.00  0.00     0.274 HD
ATOM     15  H12 UNL     1      17.300   8.181 -14.035  1.00  0.00     0.274 HD
ATOM     16  H11 UNL     1      18.021   6.958 -14.977  1.00  0.00     0.274 HD
ENDBRANCH  12  13
ENDBRANCH  11  12
ENDBRANCH  10  11
ENDBRANCH   1  10
TORSDOF 4
ENDMDL
