MODEL 1
REMARK VINA RESULT: -5.269329394      0.000      0.000
REMARK  4 active torsions:
REMARK  status: ('A' for Active; 'I' for Inactive)
REMARK    1  A    between atoms: N1_1  and  N2_4 
REMARK    2  A    between atoms: N2_4  and  N3_5 
REMARK    3  A    between atoms: N3_5  and  C1_7 
REMARK    4  A    between atoms: N5_12  and  C4_13 
ROOT
HETATM    1  C1  UNL     1       9.788 -17.064 -43.195  1.00  0.00     0.695 C 
HETATM    2  N4  UNL     1       9.088 -17.998 -43.794  1.00  0.00    -0.223 N 
ATOM      3  H4  UNL     1       8.978 -18.080 -44.804  1.00  0.00     0.177 HD
HETATM    4  C2  UNL     1       8.500 -18.885 -42.837  1.00  0.00     0.159 C 
HETATM    5  C3  UNL     1       8.565 -18.097 -41.544  1.00  0.00     0.170 C 
HETATM    6  N5  UNL     1       9.723 -17.254 -41.783  1.00  0.00    -0.157 N 
ENDROOT
BRANCH   1   7
HETATM    7  N3  UNL     1      10.516 -16.009 -43.803  1.00  0.00    -0.116 N 
ATOM      8  H3  UNL     1      10.286 -15.040 -43.579  1.00  0.00     0.203 HD
BRANCH   7   9
HETATM    9  N2  UNL     1      11.541 -16.287 -44.701  1.00  0.00    -0.015 NA
BRANCH   9  10
HETATM   10  N1  UNL     1      12.594 -16.997 -44.105  1.00  0.00    -0.328 N 
ATOM     11  H12 UNL     1      13.048 -16.697 -43.241  1.00  0.00     0.174 HD
ATOM     12  H11 UNL     1      12.843 -17.835 -44.631  1.00  0.00     0.174 HD
ENDBRANCH   9  10
ENDBRANCH   7   9
ENDBRANCH   1   7
BRANCH   6  13
HETATM   13  C4  UNL     1      10.632 -16.707 -40.851  1.00  0.00     0.370 C 
HETATM   14  O1  UNL     1      11.860 -16.965 -40.891  1.00  0.00    -0.283 OA
ENDBRANCH   6  13
TORSDOF 4
ENDMDL
MODEL 2
REMARK VINA RESULT: -5.204199851      2.039      2.373
REMARK  4 active torsions:
REMARK  status: ('A' for Active; 'I' for Inactive)
REMARK    1  A    between atoms: N1_1  and  N2_4 
REMARK    2  A    between atoms: N2_4  and  N3_5 
REMARK    3  A    between atoms: N3_5  and  C1_7 
REMARK    4  A    between atoms: N5_12  and  C4_13 
ROOT
HETATM    1  C1  UNL     1       9.215 -18.449 -42.607  1.00  0.00     0.695 C 
HETATM    2  N4  UNL     1       9.421 -19.578 -43.240  1.00  0.00    -0.223 N 
ATOM      3  H4  UNL     1      10.203 -19.754 -43.870  1.00  0.00     0.177 HD
HETATM    4  C2  UNL     1       8.399 -20.531 -42.928  1.00  0.00     0.159 C 
HETATM    5  C3  UNL     1       7.284 -19.674 -42.364  1.00  0.00     0.170 C 
HETATM    6  N5  UNL     1       8.032 -18.557 -41.816  1.00  0.00    -0.157 N 
ENDROOT
BRANCH   1   7
HETATM    7  N3  UNL     1      10.007 -17.274 -42.659  1.00  0.00    -0.116 N 
ATOM      8  H3  UNL     1       9.563 -16.370 -42.824  1.00  0.00     0.203 HD
BRANCH   7   9
HETATM    9  N2  UNL     1      11.386 -17.346 -42.487  1.00  0.00    -0.015 NA
BRANCH   9  10
HETATM   10  N1  UNL     1      12.084 -17.101 -43.680  1.00  0.00    -0.328 N 
ATOM     11  H12 UNL     1      12.196 -17.803 -44.412  1.00  0.00     0.174 HD
ATOM     12  H11 UNL     1      12.457 -16.153 -43.722  1.00  0.00     0.174 HD
ENDBRANCH   9  10
ENDBRANCH   7   9
ENDBRANCH   1   7
BRANCH   6  13
HETATM   13  C4  UNL     1       7.707 -17.717 -40.729  1.00  0.00     0.370 C 
HETATM   14  O1  UNL     1       7.475 -16.493 -40.882  1.00  0.00    -0.283 OA
ENDBRANCH   6  13
TORSDOF 4
ENDMDL
MODEL 3
REMARK VINA RESULT: -5.081817028      1.711      1.758
REMARK  4 active torsions:
REMARK  status: ('A' for Active; 'I' for Inactive)
REMARK    1  A    between atoms: N1_1  and  N2_4 
REMARK    2  A    between atoms: N2_4  and  N3_5 
REMARK    3  A    between atoms: N3_5  and  C1_7 
REMARK    4  A    between atoms: N5_12  and  C4_13 
ROOT
HETATM    1  C1  UNL     1      10.142 -17.698 -43.110  1.00  0.00     0.695 C 
HETATM    2  N4  UNL     1      10.356 -18.905 -43.577  1.00  0.00    -0.223 N 
ATOM      3  H4  UNL     1      11.100 -19.149 -44.230  1.00  0.00     0.177 HD
HETATM    4  C2  UNL     1       9.404 -19.833 -43.045  1.00  0.00     0.159 C 
HETATM    5  C3  UNL     1       8.292 -18.939 -42.536  1.00  0.00     0.170 C 
HETATM    6  N5  UNL     1       9.023 -17.724 -42.224  1.00  0.00    -0.157 N 
ENDROOT
BRANCH   1   7
HETATM    7  N3  UNL     1      10.872 -16.519 -43.402  1.00  0.00    -0.116 N 
ATOM      8  H3  UNL     1      10.944 -15.781 -42.701  1.00  0.00     0.203 HD
BRANCH   7   9
HETATM    9  N2  UNL     1      11.490 -16.361 -44.638  1.00  0.00    -0.015 NA
BRANCH   9  10
HETATM   10  N1  UNL     1      12.834 -16.768 -44.617  1.00  0.00    -0.328 N 
ATOM     11  H12 UNL     1      13.228 -17.343 -43.872  1.00  0.00     0.174 HD
ATOM     12  H11 UNL     1      13.355 -16.424 -45.424  1.00  0.00     0.174 HD
ENDBRANCH   9  10
ENDBRANCH   7   9
ENDBRANCH   1   7
BRANCH   6  13
HETATM   13  C4  UNL     1       8.736 -16.737 -41.257  1.00  0.00     0.370 C 
HETATM   14  O1  UNL     1       7.558 -16.453 -40.927  1.00  0.00    -0.283 OA
ENDBRANCH   6  13
TORSDOF 4
ENDMDL
MODEL 4
REMARK VINA RESULT: -4.940604723      1.698      2.207
REMARK  4 active torsions:
REMARK  status: ('A' for Active; 'I' for Inactive)
REMARK    1  A    between atoms: N1_1  and  N2_4 
REMARK    2  A    between atoms: N2_4  and  N3_5 
REMARK    3  A    between atoms: N3_5  and  C1_7 
REMARK    4  A    between atoms: N5_12  and  C4_13 
ROOT
HETATM    1  C1  UNL     1       9.547 -17.791 -44.914  1.00  0.00     0.695 C 
HETATM    2  N4  UNL     1       9.437 -18.504 -46.010  1.00  0.00    -0.223 N 
ATOM      3  H4  UNL     1       9.831 -18.242 -46.913  1.00  0.00     0.177 HD
HETATM    4  C2  UNL     1       8.686 -19.699 -45.766  1.00  0.00     0.159 C 
HETATM    5  C3  UNL     1       7.963 -19.398 -44.469  1.00  0.00     0.170 C 
HETATM    6  N5  UNL     1       8.875 -18.457 -43.846  1.00  0.00    -0.157 N 
ENDROOT
BRANCH   1   7
HETATM    7  N3  UNL     1      10.215 -16.551 -44.757  1.00  0.00    -0.116 N 
ATOM      8  H3  UNL     1       9.697 -15.733 -44.432  1.00  0.00     0.203 HD
BRANCH   7   9
HETATM    9  N2  UNL     1      11.573 -16.441 -45.042  1.00  0.00    -0.015 NA
BRANCH   9  10
HETATM   10  N1  UNL     1      12.374 -17.011 -44.040  1.00  0.00    -0.328 N 
ATOM     11  H12 UNL     1      12.022 -17.243 -43.112  1.00  0.00     0.174 HD
ATOM     12  H11 UNL     1      13.334 -17.160 -44.352  1.00  0.00     0.174 HD
ENDBRANCH   9  10
ENDBRANCH   7   9
ENDBRANCH   1   7
BRANCH   6  13
HETATM   13  C4  UNL     1       9.096 -18.208 -42.474  1.00  0.00     0.370 C 
HETATM   14  O1  UNL     1      10.228 -17.894 -42.029  1.00  0.00    -0.283 OA
ENDBRANCH   6  13
TORSDOF 4
ENDMDL
MODEL 5
REMARK VINA RESULT: -4.915020698      2.255      3.819
REMARK  4 active torsions:
REMARK  status: ('A' for Active; 'I' for Inactive)
REMARK    1  A    between atoms: N1_1  and  N2_4 
REMARK    2  A    between atoms: N2_4  and  N3_5 
REMARK    3  A    between atoms: N3_5  and  C1_7 
REMARK    4  A    between atoms: N5_12  and  C4_13 
ROOT
HETATM    1  C1  UNL     1       9.558 -16.730 -42.183  1.00  0.00     0.695 C 
HETATM    2  N4  UNL     1      10.746 -16.331 -42.569  1.00  0.00    -0.223 N 
ATOM      3  H4  UNL     1      11.156 -15.426 -42.339  1.00  0.00     0.177 HD
HETATM    4  C2  UNL     1      11.391 -17.339 -43.356  1.00  0.00     0.159 C 
HETATM    5  C3  UNL     1      10.246 -18.236 -43.779  1.00  0.00     0.170 C 
HETATM    6  N5  UNL     1       9.313 -18.043 -42.684  1.00  0.00    -0.157 N 
ENDROOT
BRANCH   1   7
HETATM    7  N3  UNL     1       8.623 -16.015 -41.393  1.00  0.00    -0.116 N 
ATOM      8  H3  UNL     1       7.804 -15.595 -41.833  1.00  0.00     0.203 HD
BRANCH   7   9
HETATM    9  N2  UNL     1       8.816 -15.882 -40.021  1.00  0.00    -0.015 NA
BRANCH   9  10
HETATM   10  N1  UNL     1       8.271 -16.956 -39.300  1.00  0.00    -0.328 N 
ATOM     11  H12 UNL     1       7.269 -17.142 -39.254  1.00  0.00     0.174 HD
ATOM     12  H11 UNL     1       8.989 -17.516 -38.840  1.00  0.00     0.174 HD
ENDBRANCH   9  10
ENDBRANCH   7   9
ENDBRANCH   1   7
BRANCH   6  13
HETATM   13  C4  UNL     1       8.342 -18.933 -42.176  1.00  0.00     0.370 C 
HETATM   14  O1  UNL     1       7.234 -18.531 -41.744  1.00  0.00    -0.283 OA
ENDBRANCH   6  13
TORSDOF 4
ENDMDL
