MODEL 1
REMARK VINA RESULT: -6.884873128      0.000      0.000
REMARK  5 active torsions:
REMARK  status: ('A' for Active; 'I' for Inactive)
REMARK    1  A    between atoms: N3_9  and  C5_10 
REMARK    2  A    between atoms: C5_10  and  C6_11 
REMARK       I    between atoms: C6_11  and  N4_13 
REMARK    3  A    between atoms: C13_25  and  C14_26 
REMARK    4  A    between atoms: C14_26  and  C15_27 
REMARK    5  A    between atoms: C15_27  and  N6_28 
ROOT
HETATM    1  C1  UNL     1       0.799   8.570  13.186  1.00  0.00     0.044 C 
HETATM    2  C2  UNL     1      -0.287   7.905  13.456  1.00  0.00     0.034 A 
HETATM    3  N1  UNL     1      -0.331   6.639  12.884  1.00  0.00    -0.342 N 
ATOM      4  H1  UNL     1       0.447   6.311  12.312  1.00  0.00     0.167 HD
HETATM    5  C3  UNL     1      -1.372   5.866  13.080  1.00  0.00     0.122 A 
HETATM    6  N2  UNL     1      -1.376   4.638  12.504  1.00  0.00    -0.338 N 
ATOM      7  H2  UNL     1      -0.575   4.352  11.940  1.00  0.00     0.168 HD
HETATM    8  C4  UNL     1      -2.404   3.789  12.656  1.00  0.00     0.188 A 
HETATM    9  N3  UNL     1      -3.452   4.172  13.398  1.00  0.00    -0.301 N 
HETATM   10  C10 UNL     1      -3.490   5.379  13.986  1.00  0.00     0.263 A 
HETATM   11  O2  UNL     1      -4.461   5.754  14.683  1.00  0.00    -0.267 OA
HETATM   12  C11 UNL     1      -2.443   6.262  13.840  1.00  0.00     0.077 A 
HETATM   13  C12 UNL     1      -2.404   7.500  14.400  1.00  0.00     0.034 A 
HETATM   14  C13 UNL     1      -1.287   8.390  14.220  1.00  0.00    -0.008 A 
ENDROOT
BRANCH   9  15
HETATM   15  C5  UNL     1      -4.558   3.234  13.551  1.00  0.00     0.236 C 
BRANCH  15  16
HETATM   16  C6  UNL     1      -4.154   2.143  14.450  1.00  0.00     0.241 C 
HETATM   17  O1  UNL     1      -3.936   2.399  15.665  1.00  0.00    -0.271 OA
HETATM   18  N4  UNL     1      -3.999   0.833  14.027  1.00  0.00    -0.306 N 
HETATM   19  C7  UNL     1      -4.134   0.399  12.822  1.00  0.00     0.150 A 
ATOM     20  H4  UNL     1      -3.753   0.145  14.739  1.00  0.00     0.171 HD
HETATM   21  N5  UNL     1      -3.985  -0.868  12.408  1.00  0.00    -0.346 N 
HETATM   22  S1  UNL     1      -4.533   1.213  11.373  1.00  0.00    -0.064 SA
HETATM   23  C8  UNL     1      -4.160  -1.134  11.153  1.00  0.00     0.097 A 
ATOM     24  H5  UNL     1      -3.738  -1.607  13.068  1.00  0.00     0.167 HD
HETATM   25  C9  UNL     1      -4.488  -0.116  10.304  1.00  0.00     0.070 A 
ENDBRANCH  15  16
ENDBRANCH   9  15
BRANCH  14  26
HETATM   26  C14 UNL     1      -1.392   9.529  14.810  1.00  0.00     0.030 C 
BRANCH  26  27
HETATM   27  C15 UNL     1      -1.430  10.885  14.389  1.00  0.00     0.081 C 
BRANCH  27  28
HETATM   28  N6  UNL     1      -1.850  11.162  13.144  1.00  0.00    -0.408 N 
ATOM     29  H62 UNL     1      -1.411  10.698  12.348  1.00  0.00     0.155 HD
ATOM     30  H61 UNL     1      -2.604  11.837  13.019  1.00  0.00     0.155 HD
ENDBRANCH  27  28
ENDBRANCH  26  27
ENDBRANCH  14  26
TORSDOF 5
ENDMDL
MODEL 2
REMARK VINA RESULT: -6.766138373      1.610      2.874
REMARK  5 active torsions:
REMARK  status: ('A' for Active; 'I' for Inactive)
REMARK    1  A    between atoms: N3_9  and  C5_10 
REMARK    2  A    between atoms: C5_10  and  C6_11 
REMARK       I    between atoms: C6_11  and  N4_13 
REMARK    3  A    between atoms: C13_25  and  C14_26 
REMARK    4  A    between atoms: C14_26  and  C15_27 
REMARK    5  A    between atoms: C15_27  and  N6_28 
ROOT
HETATM    1  C1  UNL     1      -0.061   8.808  13.594  1.00  0.00     0.044 C 
HETATM    2  C2  UNL     1      -0.616   7.645  13.406  1.00  0.00     0.034 A 
HETATM    3  N1  UNL     1      -1.887   7.531  13.955  1.00  0.00    -0.342 N 
ATOM      4  H1  UNL     1      -2.301   8.321  14.450  1.00  0.00     0.167 HD
HETATM    5  C3  UNL     1      -2.557   6.410  13.835  1.00  0.00     0.122 A 
HETATM    6  N2  UNL     1      -3.794   6.340  14.385  1.00  0.00    -0.338 N 
ATOM      7  H2  UNL     1      -4.167   7.155  14.872  1.00  0.00     0.168 HD
HETATM    8  C4  UNL     1      -4.542   5.228  14.306  1.00  0.00     0.188 A 
HETATM    9  N3  UNL     1      -4.044   4.162  13.666  1.00  0.00    -0.301 N 
HETATM   10  C10 UNL     1      -2.823   4.187  13.107  1.00  0.00     0.263 A 
HETATM   11  O2  UNL     1      -2.341   3.200  12.504  1.00  0.00    -0.267 OA
HETATM   12  C11 UNL     1      -2.043   5.320  13.179  1.00  0.00     0.077 A 
HETATM   13  C12 UNL     1      -0.800   5.427  12.641  1.00  0.00     0.034 A 
HETATM   14  C13 UNL     1      -0.021   6.634  12.742  1.00  0.00    -0.008 A 
ENDROOT
BRANCH   9  15
HETATM   15  C5  UNL     1      -4.872   2.964  13.592  1.00  0.00     0.236 C 
BRANCH  15  16
HETATM   16  C6  UNL     1      -4.290   1.914  14.441  1.00  0.00     0.241 C 
HETATM   17  O1  UNL     1      -4.068   2.164  15.657  1.00  0.00    -0.271 OA
HETATM   18  N4  UNL     1      -3.970   0.650  13.972  1.00  0.00    -0.306 N 
HETATM   19  C7  UNL     1      -4.087   0.237  12.757  1.00  0.00     0.150 A 
ATOM     20  H4  UNL     1      -3.608  -0.017  14.652  1.00  0.00     0.171 HD
HETATM   21  N5  UNL     1      -3.778  -0.985  12.297  1.00  0.00    -0.346 N 
HETATM   22  S1  UNL     1      -4.644   1.028  11.349  1.00  0.00    -0.064 SA
HETATM   23  C8  UNL     1      -3.959  -1.237  11.040  1.00  0.00     0.097 A 
ATOM     24  H5  UNL     1      -3.409  -1.701  12.924  1.00  0.00     0.167 HD
HETATM   25  C9  UNL     1      -4.454  -0.251  10.235  1.00  0.00     0.070 A 
ENDBRANCH  15  16
ENDBRANCH   9  15
BRANCH  14  26
HETATM   26  C14 UNL     1       1.140   6.586  12.185  1.00  0.00     0.030 C 
BRANCH  26  27
HETATM   27  C15 UNL     1       1.906   5.584  11.534  1.00  0.00     0.081 C 
BRANCH  27  28
HETATM   28  N6  UNL     1       2.849   4.935  12.236  1.00  0.00    -0.408 N 
ATOM     29  H62 UNL     1       2.609   4.077  12.732  1.00  0.00     0.155 HD
ATOM     30  H61 UNL     1       3.794   5.318  12.260  1.00  0.00     0.155 HD
ENDBRANCH  27  28
ENDBRANCH  26  27
ENDBRANCH  14  26
TORSDOF 5
ENDMDL
MODEL 3
REMARK VINA RESULT: -6.701756950      3.670      5.319
REMARK  5 active torsions:
REMARK  status: ('A' for Active; 'I' for Inactive)
REMARK    1  A    between atoms: N3_9  and  C5_10 
REMARK    2  A    between atoms: C5_10  and  C6_11 
REMARK       I    between atoms: C6_11  and  N4_13 
REMARK    3  A    between atoms: C13_25  and  C14_26 
REMARK    4  A    between atoms: C14_26  and  C15_27 
REMARK    5  A    between atoms: C15_27  and  N6_28 
ROOT
HETATM    1  C1  UNL     1       2.086   5.334  11.078  1.00  0.00     0.044 C 
HETATM    2  C2  UNL     1       0.952   4.695  11.065  1.00  0.00     0.034 A 
HETATM    3  N1  UNL     1       0.225   4.810  12.244  1.00  0.00    -0.342 N 
ATOM      4  H1  UNL     1       0.596   5.359  13.019  1.00  0.00     0.167 HD
HETATM    5  C3  UNL     1      -0.937   4.215  12.360  1.00  0.00     0.122 A 
HETATM    6  N2  UNL     1      -1.614   4.352  13.527  1.00  0.00    -0.338 N 
ATOM      7  H2  UNL     1      -1.204   4.911  14.275  1.00  0.00     0.168 HD
HETATM    8  C4  UNL     1      -2.809   3.773  13.724  1.00  0.00     0.188 A 
HETATM    9  N3  UNL     1      -3.340   3.040  12.737  1.00  0.00    -0.301 N 
HETATM   10  C10 UNL     1      -2.704   2.877  11.565  1.00  0.00     0.263 A 
HETATM   11  O2  UNL     1      -3.186   2.195  10.630  1.00  0.00    -0.267 OA
HETATM   12  C11 UNL     1      -1.478   3.464  11.346  1.00  0.00     0.077 A 
HETATM   13  C12 UNL     1      -0.770   3.349  10.192  1.00  0.00     0.034 A 
HETATM   14  C13 UNL     1       0.510   3.982  10.009  1.00  0.00    -0.008 A 
ENDROOT
BRANCH   9  15
HETATM   15  C5  UNL     1      -4.639   2.419  12.971  1.00  0.00     0.236 C 
BRANCH  15  16
HETATM   16  C6  UNL     1      -5.616   3.454  13.340  1.00  0.00     0.241 C 
HETATM   17  O1  UNL     1      -5.901   4.352  12.503  1.00  0.00    -0.271 OA
HETATM   18  N4  UNL     1      -6.248   3.494  14.572  1.00  0.00    -0.306 N 
HETATM   19  C7  UNL     1      -6.047   2.690  15.558  1.00  0.00     0.150 A 
ATOM     20  H4  UNL     1      -6.938   4.232  14.713  1.00  0.00     0.171 HD
HETATM   21  N5  UNL     1      -6.655   2.725  16.754  1.00  0.00    -0.346 N 
HETATM   22  S1  UNL     1      -4.997   1.351  15.720  1.00  0.00    -0.064 SA
HETATM   23  C8  UNL     1      -6.334   1.835  17.637  1.00  0.00     0.097 A 
ATOM     24  H5  UNL     1      -7.355   3.437  16.962  1.00  0.00     0.167 HD
HETATM   25  C9  UNL     1      -5.391   0.899  17.318  1.00  0.00     0.070 A 
ENDBRANCH  15  16
ENDBRANCH   9  15
BRANCH  14  26
HETATM   26  C14 UNL     1       1.062   3.782   8.863  1.00  0.00     0.030 C 
BRANCH  26  27
HETATM   27  C15 UNL     1       0.817   4.220   7.535  1.00  0.00     0.081 C 
BRANCH  27  28
HETATM   28  N6  UNL     1       0.361   3.332   6.636  1.00  0.00    -0.408 N 
ATOM     29  H62 UNL     1       0.520   2.336   6.786  1.00  0.00     0.155 HD
ATOM     30  H61 UNL     1      -0.138   3.676   5.816  1.00  0.00     0.155 HD
ENDBRANCH  27  28
ENDBRANCH  26  27
ENDBRANCH  14  26
TORSDOF 5
ENDMDL
MODEL 4
REMARK VINA RESULT: -6.693750993      3.914      7.634
REMARK  5 active torsions:
REMARK  status: ('A' for Active; 'I' for Inactive)
REMARK    1  A    between atoms: N3_9  and  C5_10 
REMARK    2  A    between atoms: C5_10  and  C6_11 
REMARK       I    between atoms: C6_11  and  N4_13 
REMARK    3  A    between atoms: C13_25  and  C14_26 
REMARK    4  A    between atoms: C14_26  and  C15_27 
REMARK    5  A    between atoms: C15_27  and  N6_28 
ROOT
HETATM    1  C1  UNL     1      -4.249   0.017  14.999  1.00  0.00     0.044 C 
HETATM    2  C2  UNL     1      -4.134   0.788  13.957  1.00  0.00     0.034 A 
HETATM    3  N1  UNL     1      -4.168   2.146  14.252  1.00  0.00    -0.342 N 
ATOM      4  H1  UNL     1      -4.277   2.454  15.218  1.00  0.00     0.167 HD
HETATM    5  C3  UNL     1      -4.061   3.030  13.290  1.00  0.00     0.122 A 
HETATM    6  N2  UNL     1      -4.099   4.345  13.621  1.00  0.00    -0.338 N 
ATOM      7  H2  UNL     1      -4.209   4.607  14.600  1.00  0.00     0.168 HD
HETATM    8  C4  UNL     1      -3.997   5.311  12.694  1.00  0.00     0.188 A 
HETATM    9  N3  UNL     1      -3.853   4.958  11.410  1.00  0.00    -0.301 N 
HETATM   10  C10 UNL     1      -3.810   3.668  11.037  1.00  0.00     0.263 A 
HETATM   11  O2  UNL     1      -3.676   3.320   9.841  1.00  0.00    -0.267 OA
HETATM   12  C11 UNL     1      -3.914   2.665  11.975  1.00  0.00     0.077 A 
HETATM   13  C12 UNL     1      -3.880   1.339  11.683  1.00  0.00     0.034 A 
HETATM   14  C13 UNL     1      -3.993   0.325  12.698  1.00  0.00    -0.008 A 
ENDROOT
BRANCH   9  15
HETATM   15  C5  UNL     1      -3.743   6.023  10.419  1.00  0.00     0.236 C 
BRANCH  15  16
HETATM   16  C6  UNL     1      -4.893   5.961   9.505  1.00  0.00     0.241 C 
HETATM   17  O1  UNL     1      -6.059   5.969   9.986  1.00  0.00    -0.271 OA
HETATM   18  N4  UNL     1      -4.763   5.893   8.127  1.00  0.00    -0.306 N 
HETATM   19  C7  UNL     1      -3.658   5.830   7.469  1.00  0.00     0.150 A 
ATOM     20  H4  UNL     1      -5.625   5.892   7.582  1.00  0.00     0.171 HD
HETATM   21  N5  UNL     1      -3.526   5.763   6.135  1.00  0.00    -0.346 N 
HETATM   22  S1  UNL     1      -2.033   5.808   7.999  1.00  0.00    -0.064 SA
HETATM   23  C8  UNL     1      -2.334   5.706   5.633  1.00  0.00     0.097 A 
ATOM     24  H5  UNL     1      -4.347   5.757   5.530  1.00  0.00     0.167 HD
HETATM   25  C9  UNL     1      -1.262   5.714   6.480  1.00  0.00     0.070 A 
ENDBRANCH  15  16
ENDBRANCH   9  15
BRANCH  14  26
HETATM   26  C14 UNL     1      -3.945  -0.889  12.270  1.00  0.00     0.030 C 
BRANCH  26  27
HETATM   27  C15 UNL     1      -3.289  -1.557  11.202  1.00  0.00     0.081 C 
BRANCH  27  28
HETATM   28  N6  UNL     1      -2.878  -2.822  11.388  1.00  0.00    -0.408 N 
ATOM     29  H62 UNL     1      -3.480  -3.481  11.881  1.00  0.00     0.155 HD
ATOM     30  H61 UNL     1      -1.964  -3.098  11.030  1.00  0.00     0.155 HD
ENDBRANCH  27  28
ENDBRANCH  26  27
ENDBRANCH  14  26
TORSDOF 5
ENDMDL
MODEL 5
REMARK VINA RESULT: -6.541032274      3.898      4.844
REMARK  5 active torsions:
REMARK  status: ('A' for Active; 'I' for Inactive)
REMARK    1  A    between atoms: N3_9  and  C5_10 
REMARK    2  A    between atoms: C5_10  and  C6_11 
REMARK       I    between atoms: C6_11  and  N4_13 
REMARK    3  A    between atoms: C13_25  and  C14_26 
REMARK    4  A    between atoms: C14_26  and  C15_27 
REMARK    5  A    between atoms: C15_27  and  N6_28 
ROOT
HETATM    1  C1  UNL     1      -6.367   9.698  10.129  1.00  0.00     0.044 C 
HETATM    2  C2  UNL     1      -5.985   8.481  10.389  1.00  0.00     0.034 A 
HETATM    3  N1  UNL     1      -5.018   8.392  11.383  1.00  0.00    -0.342 N 
ATOM      4  H1  UNL     1      -4.674   9.239  11.835  1.00  0.00     0.167 HD
HETATM    5  C3  UNL     1      -4.549   7.222  11.742  1.00  0.00     0.122 A 
HETATM    6  N2  UNL     1      -3.606   7.180  12.716  1.00  0.00    -0.338 N 
ATOM      7  H2  UNL     1      -3.292   8.052  13.140  1.00  0.00     0.168 HD
HETATM    8  C4  UNL     1      -3.076   6.021  13.137  1.00  0.00     0.188 A 
HETATM    9  N3  UNL     1      -3.495   4.879  12.576  1.00  0.00    -0.301 N 
HETATM   10  C10 UNL     1      -4.426   4.874  11.608  1.00  0.00     0.263 A 
HETATM   11  O2  UNL     1      -4.829   3.816  11.070  1.00  0.00    -0.267 OA
HETATM   12  C11 UNL     1      -4.980   6.054  11.164  1.00  0.00     0.077 A 
HETATM   13  C12 UNL     1      -5.925   6.137  10.190  1.00  0.00     0.034 A 
HETATM   14  C13 UNL     1      -6.475   7.394   9.758  1.00  0.00    -0.008 A 
ENDROOT
BRANCH   9  15
HETATM   15  C5  UNL     1      -2.906   3.631  13.048  1.00  0.00     0.236 C 
BRANCH  15  16
HETATM   16  C6  UNL     1      -3.890   2.904  13.862  1.00  0.00     0.241 C 
HETATM   17  O1  UNL     1      -4.421   3.486  14.847  1.00  0.00    -0.271 OA
HETATM   18  N4  UNL     1      -4.271   1.597  13.602  1.00  0.00    -0.306 N 
HETATM   19  C7  UNL     1      -3.804   0.838  12.672  1.00  0.00     0.150 A 
ATOM     20  H4  UNL     1      -4.990   1.197  14.205  1.00  0.00     0.171 HD
HETATM   21  N5  UNL     1      -4.168  -0.428  12.417  1.00  0.00    -0.346 N 
HETATM   22  S1  UNL     1      -2.615   1.125  11.478  1.00  0.00    -0.064 SA
HETATM   23  C8  UNL     1      -3.595  -1.051  11.437  1.00  0.00     0.097 A 
ATOM     24  H5  UNL     1      -4.881  -0.889  12.982  1.00  0.00     0.167 HD
HETATM   25  C9  UNL     1      -2.644  -0.397  10.707  1.00  0.00     0.070 A 
ENDBRANCH  15  16
ENDBRANCH   9  15
BRANCH  14  26
HETATM   26  C14 UNL     1      -7.362   7.315   8.827  1.00  0.00     0.030 C 
BRANCH  26  27
HETATM   27  C15 UNL     1      -7.639   6.405   7.773  1.00  0.00     0.081 C 
BRANCH  27  28
HETATM   28  N6  UNL     1      -6.757   6.296   6.766  1.00  0.00    -0.408 N 
ATOM     29  H62 UNL     1      -5.804   5.988   6.960  1.00  0.00     0.155 HD
ATOM     30  H61 UNL     1      -7.061   6.527   5.820  1.00  0.00     0.155 HD
ENDBRANCH  27  28
ENDBRANCH  26  27
ENDBRANCH  14  26
TORSDOF 5
ENDMDL
