MODEL 1
REMARK VINA RESULT: -7.451060803      0.000      0.000
REMARK  10 active torsions:
REMARK  status: ('A' for Active; 'I' for Inactive)
REMARK    1  A    between atoms: C2_2  and  C3_3 
REMARK    2  A    between atoms: C3_3  and  N1_4 
REMARK    3  A    between atoms: C5_6  and  C6_7 
REMARK    4  A    between atoms: C6_7  and  C7_8 
REMARK    5  A    between atoms: C7_8  and  C8_9 
REMARK    6  A    between atoms: C8_9  and  N2_10 
REMARK    7  A    between atoms: N2_10  and  O1_12 
REMARK    8  A    between atoms: N3_14  and  O2_15 
REMARK    9  A    between atoms: C10_17  and  C11_18 
REMARK   10  A    between atoms: C11_18  and  S1_19 
ROOT
HETATM    1  N1  UNL     1      28.599  20.766  11.811  1.00  0.00    -0.359 N 
HETATM    2  C4  UNL     1      29.278  20.941  10.658  1.00  0.00     0.118 A 
HETATM    3  C5  UNL     1      30.210  21.910  10.478  1.00  0.00     0.056 A 
HETATM    4  N3  UNL     1      30.439  22.726  11.540  1.00  0.00    -0.230 N 
HETATM    5  C10 UNL     1      29.802  22.612  12.716  1.00  0.00     0.067 A 
HETATM    6  C13 UNL     1      28.855  21.591  12.829  1.00  0.00     0.119 A 
ENDROOT
BRANCH   3   7
HETATM    7  C6  UNL     1      30.954  22.117   9.227  1.00  0.00     0.063 C 
BRANCH   7   8
HETATM    8  C7  UNL     1      31.947  21.082   8.872  1.00  0.00     0.028 C 
BRANCH   8   9
HETATM    9  C8  UNL     1      32.435  20.992   7.480  1.00  0.00     0.154 C 
BRANCH   9  10
HETATM   10  N2  UNL     1      33.762  20.451   7.316  1.00  0.00    -0.282 N 
HETATM   11  C9  UNL     1      34.752  20.907   8.047  1.00  0.00     0.149 C 
BRANCH  10  12
HETATM   12  O1  UNL     1      34.034  19.473   6.418  1.00  0.00    -0.289 OA
ATOM     13  H1  UNL     1      34.919  19.163   6.262  1.00  0.00     0.244 HD
ENDBRANCH  10  12
ENDBRANCH   9  10
ENDBRANCH   8   9
ENDBRANCH   7   8
ENDBRANCH   3   7
BRANCH   4  14
HETATM   14  O2  UNL     1      31.290  23.617  11.388  1.00  0.00    -0.283 OA
ATOM     15  H2  UNL     1      31.063  24.331  10.803  1.00  0.00     0.245 HD
ENDBRANCH   4  14
BRANCH   1  16
HETATM   16  C3  UNL     1      27.618  19.731  11.971  1.00  0.00     0.154 C 
BRANCH  16  17
HETATM   17  C2  UNL     1      26.247  20.241  12.128  1.00  0.00    -0.017 C 
HETATM   18  C1  UNL     1      25.643  20.225  13.310  1.00  0.00     0.008 C 
ENDBRANCH  16  17
ENDBRANCH   1  16
BRANCH   5  19
HETATM   19  C11 UNL     1      30.096  23.533  13.839  1.00  0.00     0.169 C 
BRANCH  19  20
HETATM   20  S1  UNL     1      31.493  23.008  14.796  1.00  0.00     0.016 S 
HETATM   21  C12 UNL     1      31.242  23.622  16.460  1.00  0.00     0.127 C 
HETATM   22  O3  UNL     1      32.917  23.574  14.156  1.00  0.00    -0.258 OA
ENDBRANCH  19  20
ENDBRANCH   5  19
TORSDOF 10
ENDMDL
MODEL 2
REMARK VINA RESULT: -7.352746098      1.503      1.530
REMARK  10 active torsions:
REMARK  status: ('A' for Active; 'I' for Inactive)
REMARK    1  A    between atoms: C2_2  and  C3_3 
REMARK    2  A    between atoms: C3_3  and  N1_4 
REMARK    3  A    between atoms: C5_6  and  C6_7 
REMARK    4  A    between atoms: C6_7  and  C7_8 
REMARK    5  A    between atoms: C7_8  and  C8_9 
REMARK    6  A    between atoms: C8_9  and  N2_10 
REMARK    7  A    between atoms: N2_10  and  O1_12 
REMARK    8  A    between atoms: N3_14  and  O2_15 
REMARK    9  A    between atoms: C10_17  and  C11_18 
REMARK   10  A    between atoms: C11_18  and  S1_19 
ROOT
HETATM    1  N1  UNL     1      28.243  20.937  12.355  1.00  0.00    -0.359 N 
HETATM    2  C4  UNL     1      28.800  21.057  11.132  1.00  0.00     0.118 A 
HETATM    3  C5  UNL     1      29.785  21.944  10.843  1.00  0.00     0.056 A 
HETATM    4  N3  UNL     1      30.200  22.734  11.868  1.00  0.00    -0.230 N 
HETATM    5  C10 UNL     1      29.692  22.671  13.108  1.00  0.00     0.067 A 
HETATM    6  C13 UNL     1      28.681  21.734  13.333  1.00  0.00     0.119 A 
ENDROOT
BRANCH   3   7
HETATM    7  C6  UNL     1      30.399  22.092   9.515  1.00  0.00     0.063 C 
BRANCH   7   8
HETATM    8  C7  UNL     1      31.558  21.222   9.225  1.00  0.00     0.028 C 
BRANCH   8   9
HETATM    9  C8  UNL     1      32.717  21.778   8.495  1.00  0.00     0.154 C 
BRANCH   9  10
HETATM   10  N2  UNL     1      33.807  22.245   9.315  1.00  0.00    -0.282 N 
HETATM   11  C9  UNL     1      35.023  21.794   9.111  1.00  0.00     0.149 C 
BRANCH  10  12
HETATM   12  O1  UNL     1      33.625  23.146  10.311  1.00  0.00    -0.289 OA
ATOM     13  H1  UNL     1      34.351  23.606  10.714  1.00  0.00     0.244 HD
ENDBRANCH  10  12
ENDBRANCH   9  10
ENDBRANCH   8   9
ENDBRANCH   7   8
ENDBRANCH   3   7
BRANCH   4  14
HETATM   14  O2  UNL     1      31.102  23.550  11.616  1.00  0.00    -0.283 OA
ATOM     15  H2  UNL     1      30.933  24.457  11.842  1.00  0.00     0.245 HD
ENDBRANCH   4  14
BRANCH   1  16
HETATM   16  C3  UNL     1      27.202  19.988  12.630  1.00  0.00     0.154 C 
BRANCH  16  17
HETATM   17  C2  UNL     1      26.196  20.481  13.583  1.00  0.00    -0.017 C 
HETATM   18  C1  UNL     1      25.336  19.650  14.161  1.00  0.00     0.008 C 
ENDBRANCH  16  17
ENDBRANCH   1  16
BRANCH   5  19
HETATM   19  C11 UNL     1      30.188  23.559  14.186  1.00  0.00     0.169 C 
BRANCH  19  20
HETATM   20  S1  UNL     1      31.677  22.951  14.932  1.00  0.00     0.016 S 
HETATM   21  C12 UNL     1      31.603  23.389  16.667  1.00  0.00     0.127 C 
HETATM   22  O3  UNL     1      33.027  23.593  14.208  1.00  0.00    -0.258 OA
ENDBRANCH  19  20
ENDBRANCH   5  19
TORSDOF 10
ENDMDL
MODEL 3
REMARK VINA RESULT: -7.233057328      3.322      6.582
REMARK  10 active torsions:
REMARK  status: ('A' for Active; 'I' for Inactive)
REMARK    1  A    between atoms: C2_2  and  C3_3 
REMARK    2  A    between atoms: C3_3  and  N1_4 
REMARK    3  A    between atoms: C5_6  and  C6_7 
REMARK    4  A    between atoms: C6_7  and  C7_8 
REMARK    5  A    between atoms: C7_8  and  C8_9 
REMARK    6  A    between atoms: C8_9  and  N2_10 
REMARK    7  A    between atoms: N2_10  and  O1_12 
REMARK    8  A    between atoms: N3_14  and  O2_15 
REMARK    9  A    between atoms: C10_17  and  C11_18 
REMARK   10  A    between atoms: C11_18  and  S1_19 
ROOT
HETATM    1  N1  UNL     1      30.338  22.471  11.099  1.00  0.00    -0.359 N 
HETATM    2  C4  UNL     1      30.198  23.215  12.216  1.00  0.00     0.118 A 
HETATM    3  C5  UNL     1      29.413  22.855  13.262  1.00  0.00     0.056 A 
HETATM    4  N3  UNL     1      28.749  21.677  13.134  1.00  0.00    -0.230 N 
HETATM    5  C10 UNL     1      28.839  20.886  12.055  1.00  0.00     0.067 A 
HETATM    6  C13 UNL     1      29.667  21.320  11.017  1.00  0.00     0.119 A 
ENDROOT
BRANCH   3   7
HETATM    7  C6  UNL     1      29.245  23.657  14.483  1.00  0.00     0.063 C 
BRANCH   7   8
HETATM    8  C7  UNL     1      30.477  23.983  15.231  1.00  0.00     0.028 C 
BRANCH   8   9
HETATM    9  C8  UNL     1      31.172  22.918  15.983  1.00  0.00     0.154 C 
BRANCH   9  10
HETATM   10  N2  UNL     1      32.368  23.322  16.680  1.00  0.00    -0.282 N 
HETATM   11  C9  UNL     1      33.485  23.504  16.016  1.00  0.00     0.149 C 
BRANCH  10  12
HETATM   12  O1  UNL     1      32.387  23.523  18.020  1.00  0.00    -0.289 OA
ATOM     13  H1  UNL     1      33.195  23.520  18.519  1.00  0.00     0.244 HD
ENDBRANCH  10  12
ENDBRANCH   9  10
ENDBRANCH   8   9
ENDBRANCH   7   8
ENDBRANCH   3   7
BRANCH   4  14
HETATM   14  O2  UNL     1      28.026  21.336  14.085  1.00  0.00    -0.283 OA
ATOM     15  H2  UNL     1      27.188  20.944  13.867  1.00  0.00     0.245 HD
ENDBRANCH   4  14
BRANCH   1  16
HETATM   16  C3  UNL     1      31.178  22.879  10.009  1.00  0.00     0.154 C 
BRANCH  16  17
HETATM   17  C2  UNL     1      30.956  22.106   8.777  1.00  0.00    -0.017 C 
HETATM   18  C1  UNL     1      31.959  21.832   7.951  1.00  0.00     0.008 C 
ENDBRANCH  16  17
ENDBRANCH   1  16
BRANCH   5  19
HETATM   19  C11 UNL     1      28.089  19.609  11.975  1.00  0.00     0.169 C 
BRANCH  19  20
HETATM   20  S1  UNL     1      28.972  18.260  12.715  1.00  0.00     0.016 S 
HETATM   21  C12 UNL     1      30.221  17.750  11.536  1.00  0.00     0.127 C 
HETATM   22  O3  UNL     1      27.955  17.003  13.093  1.00  0.00    -0.258 OA
ENDBRANCH  19  20
ENDBRANCH   5  19
TORSDOF 10
ENDMDL
MODEL 4
REMARK VINA RESULT: -7.186031914      2.774      4.646
REMARK  10 active torsions:
REMARK  status: ('A' for Active; 'I' for Inactive)
REMARK    1  A    between atoms: C2_2  and  C3_3 
REMARK    2  A    between atoms: C3_3  and  N1_4 
REMARK    3  A    between atoms: C5_6  and  C6_7 
REMARK    4  A    between atoms: C6_7  and  C7_8 
REMARK    5  A    between atoms: C7_8  and  C8_9 
REMARK    6  A    between atoms: C8_9  and  N2_10 
REMARK    7  A    between atoms: N2_10  and  O1_12 
REMARK    8  A    between atoms: N3_14  and  O2_15 
REMARK    9  A    between atoms: C10_17  and  C11_18 
REMARK   10  A    between atoms: C11_18  and  S1_19 
ROOT
HETATM    1  N1  UNL     1      30.323  22.625  11.256  1.00  0.00    -0.359 N 
HETATM    2  C4  UNL     1      29.376  21.663  11.280  1.00  0.00     0.118 A 
HETATM    3  C5  UNL     1      28.626  21.380  12.374  1.00  0.00     0.056 A 
HETATM    4  N3  UNL     1      28.876  22.126  13.481  1.00  0.00    -0.230 N 
HETATM    5  C10 UNL     1      29.801  23.097  13.531  1.00  0.00     0.067 A 
HETATM    6  C13 UNL     1      30.535  23.334  12.367  1.00  0.00     0.119 A 
ENDROOT
BRANCH   3   7
HETATM    7  C6  UNL     1      27.595  20.333  12.419  1.00  0.00     0.063 C 
BRANCH   7   8
HETATM    8  C7  UNL     1      27.962  19.023  11.842  1.00  0.00     0.028 C 
BRANCH   8   9
HETATM    9  C8  UNL     1      28.696  18.045  12.672  1.00  0.00     0.154 C 
BRANCH   9  10
HETATM   10  N2  UNL     1      29.894  17.499  12.083  1.00  0.00    -0.282 N 
HETATM   11  C9  UNL     1      30.871  18.297  11.720  1.00  0.00     0.149 C 
BRANCH  10  12
HETATM   12  O1  UNL     1      30.056  16.168  11.882  1.00  0.00    -0.289 OA
ATOM     13  H1  UNL     1      30.697  15.824  11.271  1.00  0.00     0.244 HD
ENDBRANCH  10  12
ENDBRANCH   9  10
ENDBRANCH   8   9
ENDBRANCH   7   8
ENDBRANCH   3   7
BRANCH   4  14
HETATM   14  O2  UNL     1      28.195  21.876  14.490  1.00  0.00    -0.283 OA
ATOM     15  H2  UNL     1      27.252  21.941  14.397  1.00  0.00     0.245 HD
ENDBRANCH   4  14
BRANCH   1  16
HETATM   16  C3  UNL     1      31.101  22.902  10.082  1.00  0.00     0.154 C 
BRANCH  16  17
HETATM   17  C2  UNL     1      31.006  21.852   9.055  1.00  0.00    -0.017 C 
HETATM   18  C1  UNL     1      32.030  21.042   8.808  1.00  0.00     0.008 C 
ENDBRANCH  16  17
ENDBRANCH   1  16
BRANCH   5  19
HETATM   19  C11 UNL     1      30.027  23.878  14.770  1.00  0.00     0.169 C 
BRANCH  19  20
HETATM   20  S1  UNL     1      31.177  23.090  15.866  1.00  0.00     0.016 S 
HETATM   21  C12 UNL     1      32.816  23.434  15.230  1.00  0.00     0.127 C 
HETATM   22  O3  UNL     1      30.902  21.455  15.963  1.00  0.00    -0.258 OA
ENDBRANCH  19  20
ENDBRANCH   5  19
TORSDOF 10
ENDMDL
MODEL 5
REMARK VINA RESULT: -7.159070886      3.162      5.633
REMARK  10 active torsions:
REMARK  status: ('A' for Active; 'I' for Inactive)
REMARK    1  A    between atoms: C2_2  and  C3_3 
REMARK    2  A    between atoms: C3_3  and  N1_4 
REMARK    3  A    between atoms: C5_6  and  C6_7 
REMARK    4  A    between atoms: C6_7  and  C7_8 
REMARK    5  A    between atoms: C7_8  and  C8_9 
REMARK    6  A    between atoms: C8_9  and  N2_10 
REMARK    7  A    between atoms: N2_10  and  O1_12 
REMARK    8  A    between atoms: N3_14  and  O2_15 
REMARK    9  A    between atoms: C10_17  and  C11_18 
REMARK   10  A    between atoms: C11_18  and  S1_19 
ROOT
HETATM    1  N1  UNL     1      30.318  22.512  11.160  1.00  0.00    -0.359 N 
HETATM    2  C4  UNL     1      29.423  21.503  11.103  1.00  0.00     0.118 A 
HETATM    3  C5  UNL     1      28.631  21.146  12.145  1.00  0.00     0.056 A 
HETATM    4  N3  UNL     1      28.782  21.867  13.287  1.00  0.00    -0.230 N 
HETATM    5  C10 UNL     1      29.651  22.882  13.416  1.00  0.00     0.067 A 
HETATM    6  C13 UNL     1      30.433  23.194  12.302  1.00  0.00     0.119 A 
ENDROOT
BRANCH   3   7
HETATM    7  C6  UNL     1      27.656  20.047  12.102  1.00  0.00     0.063 C 
BRANCH   7   8
HETATM    8  C7  UNL     1      28.210  18.678  12.041  1.00  0.00     0.028 C 
BRANCH   8   9
HETATM    9  C8  UNL     1      28.605  17.999  13.293  1.00  0.00     0.154 C 
BRANCH   9  10
HETATM   10  N2  UNL     1      27.537  17.737  14.226  1.00  0.00    -0.282 N 
HETATM   11  C9  UNL     1      27.605  18.205  15.450  1.00  0.00     0.149 C 
BRANCH  10  12
HETATM   12  O1  UNL     1      26.445  17.010  13.885  1.00  0.00    -0.289 OA
ATOM     13  H1  UNL     1      25.955  16.506  14.524  1.00  0.00     0.244 HD
ENDBRANCH  10  12
ENDBRANCH   9  10
ENDBRANCH   8   9
ENDBRANCH   7   8
ENDBRANCH   3   7
BRANCH   4  14
HETATM   14  O2  UNL     1      28.063  21.550  14.249  1.00  0.00    -0.283 OA
ATOM     15  H2  UNL     1      28.244  21.977  15.078  1.00  0.00     0.245 HD
ENDBRANCH   4  14
BRANCH   1  16
HETATM   16  C3  UNL     1      31.141  22.867  10.039  1.00  0.00     0.154 C 
BRANCH  16  17
HETATM   17  C2  UNL     1      30.861  22.074   8.832  1.00  0.00    -0.017 C 
HETATM   18  C1  UNL     1      31.820  21.804   7.953  1.00  0.00     0.008 C 
ENDBRANCH  16  17
ENDBRANCH   1  16
BRANCH   5  19
HETATM   19  C11 UNL     1      29.769  23.632  14.689  1.00  0.00     0.169 C 
BRANCH  19  20
HETATM   20  S1  UNL     1      30.937  22.895  15.802  1.00  0.00     0.016 S 
HETATM   21  C12 UNL     1      32.567  23.361  15.224  1.00  0.00     0.127 C 
HETATM   22  O3  UNL     1      30.769  21.244  15.855  1.00  0.00    -0.258 OA
ENDBRANCH  19  20
ENDBRANCH   5  19
TORSDOF 10
ENDMDL
