MODEL 1
REMARK VINA RESULT: -7.955902979      0.000      0.000
REMARK  9 active torsions:
REMARK  status: ('A' for Active; 'I' for Inactive)
REMARK    1  A    between atoms: C3_4  and  C4_5 
REMARK    2  A    between atoms: C4_5  and  N1_6 
REMARK    3  A    between atoms: N2_8  and  C6_9 
REMARK    4  A    between atoms: C6_9  and  C7_10 
REMARK    5  A    between atoms: C7_10  and  C8_11 
REMARK    6  A    between atoms: C8_11  and  C9_12 
REMARK    7  A    between atoms: C9_12  and  C10_13 
REMARK    8  A    between atoms: C10_13  and  C11_14 
REMARK    9  A    between atoms: C11_14  and  N3_15 
ROOT
HETATM    1  C7  UNL     1      29.191  19.656  11.540  1.00  0.00     0.022 C 
ENDROOT
BRANCH   1   2
HETATM    2  C6  UNL     1      29.217  21.136  11.790  1.00  0.00     0.159 C 
BRANCH   2   3
HETATM    3  N2  UNL     1      29.537  21.490  13.136  1.00  0.00    -0.227 N 
HETATM    4  C5  UNL     1      29.147  22.357  14.074  1.00  0.00     0.238 A 
HETATM    5  N1  UNL     1      30.060  21.834  14.878  1.00  0.00    -0.226 N 
HETATM    6  O2  UNL     1      30.408  21.020  13.961  1.00  0.00    -0.150 OA
BRANCH   5   7
HETATM    7  C4  UNL     1      30.565  22.006  16.239  1.00  0.00     0.172 C 
BRANCH   7   8
HETATM    8  C3  UNL     1      31.363  23.290  16.243  1.00  0.00     0.083 A 
HETATM    9  C1  UNL     1      32.459  23.431  15.228  1.00  0.00     0.134 A 
HETATM   10  O1  UNL     1      32.915  23.599  14.126  1.00  0.00    -0.297 OA
HETATM   11  C2  UNL     1      32.779  23.191  16.677  1.00  0.00     0.092 A 
ENDBRANCH   7   8
ENDBRANCH   5   7
ENDBRANCH   2   3
ENDBRANCH   1   2
BRANCH   1  12
HETATM   12  C8  UNL     1      27.843  19.044  11.646  1.00  0.00     0.002 C 
BRANCH  12  13
HETATM   13  C9  UNL     1      26.706  19.992  11.412  1.00  0.00     0.002 C 
BRANCH  13  14
HETATM   14  C10 UNL     1      25.549  19.831  12.315  1.00  0.00     0.020 C 
BRANCH  14  15
HETATM   15  C11 UNL     1      25.922  20.436  13.666  1.00  0.00     0.129 C 
BRANCH  15  16
HETATM   16  N3  UNL     1      26.177  19.421  14.658  1.00  0.00    -0.353 N 
HETATM   17  C12 UNL     1      27.362  19.462  15.323  1.00  0.00     0.093 A 
HETATM   18  C13 UNL     1      27.643  18.502  16.283  1.00  0.00     0.034 A 
HETATM   19  C14 UNL     1      26.710  17.525  16.541  1.00  0.00     0.090 A 
HETATM   20  N4  UNL     1      25.561  17.515  15.871  1.00  0.00    -0.362 N 
HETATM   21  C15 UNL     1      25.297  18.458  14.934  1.00  0.00     0.182 A 
ATOM     22  H4  UNL     1      24.871  16.790  16.066  1.00  0.00     0.165 HD
ENDBRANCH  15  16
ENDBRANCH  14  15
ENDBRANCH  13  14
ENDBRANCH  12  13
ENDBRANCH   1  12
TORSDOF 9
ENDMDL
MODEL 2
REMARK VINA RESULT: -7.793794589      3.606      5.065
REMARK  9 active torsions:
REMARK  status: ('A' for Active; 'I' for Inactive)
REMARK    1  A    between atoms: C3_4  and  C4_5 
REMARK    2  A    between atoms: C4_5  and  N1_6 
REMARK    3  A    between atoms: N2_8  and  C6_9 
REMARK    4  A    between atoms: C6_9  and  C7_10 
REMARK    5  A    between atoms: C7_10  and  C8_11 
REMARK    6  A    between atoms: C8_11  and  C9_12 
REMARK    7  A    between atoms: C9_12  and  C10_13 
REMARK    8  A    between atoms: C10_13  and  C11_14 
REMARK    9  A    between atoms: C11_14  and  N3_15 
ROOT
HETATM    1  C7  UNL     1      29.299  19.296  12.205  1.00  0.00     0.022 C 
ENDROOT
BRANCH   1   2
HETATM    2  C6  UNL     1      30.397  18.882  11.269  1.00  0.00     0.159 C 
BRANCH   2   3
HETATM    3  N2  UNL     1      30.801  19.906  10.361  1.00  0.00    -0.227 N 
HETATM    4  C5  UNL     1      30.312  21.018   9.805  1.00  0.00     0.238 A 
HETATM    5  N1  UNL     1      31.466  21.162   9.174  1.00  0.00    -0.226 N 
HETATM    6  O2  UNL     1      31.905  20.097   9.721  1.00  0.00    -0.150 OA
BRANCH   5   7
HETATM    7  C4  UNL     1      32.107  22.080   8.234  1.00  0.00     0.172 C 
BRANCH   7   8
HETATM    8  C3  UNL     1      31.924  21.484   6.857  1.00  0.00     0.083 A 
HETATM    9  C1  UNL     1      32.894  20.425   6.423  1.00  0.00     0.134 A 
HETATM   10  O1  UNL     1      33.381  19.323   6.418  1.00  0.00    -0.297 OA
HETATM   11  C2  UNL     1      32.962  21.812   5.848  1.00  0.00     0.092 A 
ENDBRANCH   7   8
ENDBRANCH   5   7
ENDBRANCH   2   3
ENDBRANCH   1   2
BRANCH   1  12
HETATM   12  C8  UNL     1      27.939  18.905  11.758  1.00  0.00     0.002 C 
BRANCH  12  13
HETATM   13  C9  UNL     1      26.984  20.046  11.587  1.00  0.00     0.002 C 
BRANCH  13  14
HETATM   14  C10 UNL     1      25.691  19.904  12.285  1.00  0.00     0.020 C 
BRANCH  14  15
HETATM   15  C11 UNL     1      25.855  20.473  13.693  1.00  0.00     0.129 C 
BRANCH  15  16
HETATM   16  N3  UNL     1      26.123  19.439  14.663  1.00  0.00    -0.353 N 
HETATM   17  C12 UNL     1      27.294  19.497  15.350  1.00  0.00     0.093 A 
HETATM   18  C13 UNL     1      27.587  18.521  16.290  1.00  0.00     0.034 A 
HETATM   19  C14 UNL     1      26.679  17.511  16.505  1.00  0.00     0.090 A 
HETATM   20  N4  UNL     1      25.543  17.485  15.815  1.00  0.00    -0.362 N 
HETATM   21  C15 UNL     1      25.267  18.444  14.898  1.00  0.00     0.182 A 
ATOM     22  H4  UNL     1      24.871  16.735  15.978  1.00  0.00     0.165 HD
ENDBRANCH  15  16
ENDBRANCH  14  15
ENDBRANCH  13  14
ENDBRANCH  12  13
ENDBRANCH   1  12
TORSDOF 9
ENDMDL
MODEL 3
REMARK VINA RESULT: -7.720372628      3.274      4.181
REMARK  9 active torsions:
REMARK  status: ('A' for Active; 'I' for Inactive)
REMARK    1  A    between atoms: C3_4  and  C4_5 
REMARK    2  A    between atoms: C4_5  and  N1_6 
REMARK    3  A    between atoms: N2_8  and  C6_9 
REMARK    4  A    between atoms: C6_9  and  C7_10 
REMARK    5  A    between atoms: C7_10  and  C8_11 
REMARK    6  A    between atoms: C8_11  and  C9_12 
REMARK    7  A    between atoms: C9_12  and  C10_13 
REMARK    8  A    between atoms: C10_13  and  C11_14 
REMARK    9  A    between atoms: C11_14  and  N3_15 
ROOT
HETATM    1  C7  UNL     1      29.318  19.361  11.606  1.00  0.00     0.022 C 
ENDROOT
BRANCH   1   2
HETATM    2  C6  UNL     1      29.464  20.718  10.980  1.00  0.00     0.159 C 
BRANCH   2   3
HETATM    3  N2  UNL     1      30.536  20.810  10.041  1.00  0.00    -0.227 N 
HETATM    4  C5  UNL     1      30.901  21.552   8.992  1.00  0.00     0.238 A 
HETATM    5  N1  UNL     1      31.993  20.809   8.900  1.00  0.00    -0.226 N 
HETATM    6  O2  UNL     1      31.616  20.120   9.904  1.00  0.00    -0.150 OA
BRANCH   5   7
HETATM    7  C4  UNL     1      33.192  20.702   8.070  1.00  0.00     0.172 C 
BRANCH   7   8
HETATM    8  C3  UNL     1      34.371  20.945   8.983  1.00  0.00     0.083 A 
HETATM    9  C1  UNL     1      34.415  22.244   9.732  1.00  0.00     0.134 A 
HETATM   10  O1  UNL     1      34.081  23.027  10.584  1.00  0.00    -0.297 OA
HETATM   11  C2  UNL     1      35.329  21.998   8.565  1.00  0.00     0.092 A 
ENDBRANCH   7   8
ENDBRANCH   5   7
ENDBRANCH   2   3
ENDBRANCH   1   2
BRANCH   1  12
HETATM   12  C8  UNL     1      27.912  18.915  11.769  1.00  0.00     0.002 C 
BRANCH  12  13
HETATM   13  C9  UNL     1      26.885  19.966  11.475  1.00  0.00     0.002 C 
BRANCH  13  14
HETATM   14  C10 UNL     1      25.680  19.933  12.328  1.00  0.00     0.020 C 
BRANCH  14  15
HETATM   15  C11 UNL     1      26.057  20.506  13.692  1.00  0.00     0.129 C 
BRANCH  15  16
HETATM   16  N3  UNL     1      26.266  19.469  14.672  1.00  0.00    -0.353 N 
HETATM   17  C12 UNL     1      27.420  19.491  15.389  1.00  0.00     0.093 A 
HETATM   18  C13 UNL     1      27.656  18.511  16.340  1.00  0.00     0.034 A 
HETATM   19  C14 UNL     1      26.710  17.532  16.536  1.00  0.00     0.090 A 
HETATM   20  N4  UNL     1      25.592  17.540  15.817  1.00  0.00    -0.362 N 
HETATM   21  C15 UNL     1      25.372  18.504  14.889  1.00  0.00     0.182 A 
ATOM     22  H4  UNL     1      24.892  16.813  15.965  1.00  0.00     0.165 HD
ENDBRANCH  15  16
ENDBRANCH  14  15
ENDBRANCH  13  14
ENDBRANCH  12  13
ENDBRANCH   1  12
TORSDOF 9
ENDMDL
MODEL 4
REMARK VINA RESULT: -7.587818031      3.317      5.196
REMARK  9 active torsions:
REMARK  status: ('A' for Active; 'I' for Inactive)
REMARK    1  A    between atoms: C3_4  and  C4_5 
REMARK    2  A    between atoms: C4_5  and  N1_6 
REMARK    3  A    between atoms: N2_8  and  C6_9 
REMARK    4  A    between atoms: C6_9  and  C7_10 
REMARK    5  A    between atoms: C7_10  and  C8_11 
REMARK    6  A    between atoms: C8_11  and  C9_12 
REMARK    7  A    between atoms: C9_12  and  C10_13 
REMARK    8  A    between atoms: C10_13  and  C11_14 
REMARK    9  A    between atoms: C11_14  and  N3_15 
ROOT
HETATM    1  C7  UNL     1      28.614  19.844  11.289  1.00  0.00     0.022 C 
ENDROOT
BRANCH   1   2
HETATM    2  C6  UNL     1      29.333  21.139  11.045  1.00  0.00     0.159 C 
BRANCH   2   3
HETATM    3  N2  UNL     1      30.369  21.052  10.067  1.00  0.00    -0.227 N 
HETATM    4  C5  UNL     1      30.745  21.649   8.934  1.00  0.00     0.238 A 
HETATM    5  N1  UNL     1      31.776  20.820   8.887  1.00  0.00    -0.226 N 
HETATM    6  O2  UNL     1      31.392  20.271   9.971  1.00  0.00    -0.150 OA
BRANCH   5   7
HETATM    7  C4  UNL     1      32.930  20.536   8.035  1.00  0.00     0.172 C 
BRANCH   7   8
HETATM    8  C3  UNL     1      34.159  20.743   8.891  1.00  0.00     0.083 A 
HETATM    9  C1  UNL     1      34.302  22.060   9.595  1.00  0.00     0.134 A 
HETATM   10  O1  UNL     1      34.046  22.887  10.434  1.00  0.00    -0.297 OA
HETATM   11  C2  UNL     1      35.152  21.730   8.400  1.00  0.00     0.092 A 
ENDBRANCH   7   8
ENDBRANCH   5   7
ENDBRANCH   2   3
ENDBRANCH   1   2
BRANCH   1  12
HETATM   12  C8  UNL     1      27.139  19.976  11.385  1.00  0.00     0.002 C 
BRANCH  12  13
HETATM   13  C9  UNL     1      26.569  19.656  12.733  1.00  0.00     0.002 C 
BRANCH  13  14
HETATM   14  C10 UNL     1      26.633  20.748  13.725  1.00  0.00     0.020 C 
BRANCH  14  15
HETATM   15  C11 UNL     1      27.699  20.381  14.755  1.00  0.00     0.129 C 
BRANCH  15  16
HETATM   16  N3  UNL     1      28.831  21.274  14.699  1.00  0.00    -0.353 N 
HETATM   17  C12 UNL     1      28.614  22.552  14.291  1.00  0.00     0.093 A 
HETATM   18  C13 UNL     1      29.677  23.440  14.224  1.00  0.00     0.034 A 
HETATM   19  C14 UNL     1      30.933  23.001  14.573  1.00  0.00     0.090 A 
HETATM   20  N4  UNL     1      31.108  21.744  14.967  1.00  0.00    -0.362 N 
HETATM   21  C15 UNL     1      30.062  20.885  15.029  1.00  0.00     0.182 A 
ATOM     22  H4  UNL     1      32.041  21.422  15.227  1.00  0.00     0.165 HD
ENDBRANCH  15  16
ENDBRANCH  14  15
ENDBRANCH  13  14
ENDBRANCH  12  13
ENDBRANCH   1  12
TORSDOF 9
ENDMDL
MODEL 5
REMARK VINA RESULT: -7.571121609      3.661      5.170
REMARK  9 active torsions:
REMARK  status: ('A' for Active; 'I' for Inactive)
REMARK    1  A    between atoms: C3_4  and  C4_5 
REMARK    2  A    between atoms: C4_5  and  N1_6 
REMARK    3  A    between atoms: N2_8  and  C6_9 
REMARK    4  A    between atoms: C6_9  and  C7_10 
REMARK    5  A    between atoms: C7_10  and  C8_11 
REMARK    6  A    between atoms: C8_11  and  C9_12 
REMARK    7  A    between atoms: C9_12  and  C10_13 
REMARK    8  A    between atoms: C10_13  and  C11_14 
REMARK    9  A    between atoms: C11_14  and  N3_15 
ROOT
HETATM    1  C7  UNL     1      28.126  20.449  11.781  1.00  0.00     0.022 C 
ENDROOT
BRANCH   1   2
HETATM    2  C6  UNL     1      29.444  19.839  11.401  1.00  0.00     0.159 C 
BRANCH   2   3
HETATM    3  N2  UNL     1      30.166  20.584  10.420  1.00  0.00    -0.227 N 
HETATM    4  C5  UNL     1      29.976  21.611   9.587  1.00  0.00     0.238 A 
HETATM    5  N1  UNL     1      31.226  21.458   9.179  1.00  0.00    -0.226 N 
HETATM    6  O2  UNL     1      31.375  20.482   9.985  1.00  0.00    -0.150 OA
BRANCH   5   7
HETATM    7  C4  UNL     1      32.163  22.061   8.233  1.00  0.00     0.172 C 
BRANCH   7   8
HETATM    8  C3  UNL     1      31.904  21.409   6.895  1.00  0.00     0.083 A 
HETATM    9  C1  UNL     1      32.884  20.376   6.423  1.00  0.00     0.134 A 
HETATM   10  O1  UNL     1      33.419  19.296   6.416  1.00  0.00    -0.297 OA
HETATM   11  C2  UNL     1      32.847  21.743   5.799  1.00  0.00     0.092 A 
ENDBRANCH   7   8
ENDBRANCH   5   7
ENDBRANCH   2   3
ENDBRANCH   1   2
BRANCH   1  12
HETATM   12  C8  UNL     1      26.971  19.526  11.656  1.00  0.00     0.002 C 
BRANCH  12  13
HETATM   13  C9  UNL     1      25.702  20.025  12.276  1.00  0.00     0.002 C 
BRANCH  13  14
HETATM   14  C10 UNL     1      25.691  20.071  13.752  1.00  0.00     0.020 C 
BRANCH  14  15
HETATM   15  C11 UNL     1      26.114  18.696  14.265  1.00  0.00     0.129 C 
BRANCH  15  16
HETATM   16  N3  UNL     1      26.962  18.793  15.429  1.00  0.00    -0.353 N 
HETATM   17  C12 UNL     1      27.893  19.783  15.458  1.00  0.00     0.093 A 
HETATM   18  C13 UNL     1      28.726  19.908  16.559  1.00  0.00     0.034 A 
HETATM   19  C14 UNL     1      28.590  19.021  17.601  1.00  0.00     0.090 A 
HETATM   20  N4  UNL     1      27.668  18.065  17.538  1.00  0.00    -0.362 N 
HETATM   21  C15 UNL     1      26.860  17.952  16.457  1.00  0.00     0.182 A 
ATOM     22  H4  UNL     1      27.569  17.409  18.314  1.00  0.00     0.165 HD
ENDBRANCH  15  16
ENDBRANCH  14  15
ENDBRANCH  13  14
ENDBRANCH  12  13
ENDBRANCH   1  12
TORSDOF 9
ENDMDL
