MODEL 1
REMARK VINA RESULT: -8.647627137      0.000      0.000
REMARK  13 active torsions:
REMARK  status: ('A' for Active; 'I' for Inactive)
REMARK    1  A    between atoms: C2_2  and  C3_3 
REMARK    2  A    between atoms: C3_3  and  C4_4 
REMARK    3  A    between atoms: C4_4  and  C5_5 
REMARK    4  A    between atoms: C5_5  and  C6_6 
REMARK       I    between atoms: C6_6  and  N1_8 
REMARK    5  A    between atoms: N1_8  and  C7_10 
REMARK    6  A    between atoms: C7_10  and  C8_11 
REMARK    7  A    between atoms: C9_12  and  O2_13 
REMARK    8  A    between atoms: C11_15  and  C12_16 
REMARK    9  A    between atoms: C12_16  and  C13_17 
REMARK   10  A    between atoms: C13_17  and  C15_19 
REMARK       I    between atoms: C15_19  and  N2_21 
REMARK   11  A    between atoms: N2_21  and  C16_23 
REMARK   12  A    between atoms: C23_31  and  O5_32 
REMARK   13  A    between atoms: N3_36  and  C26_37 
ROOT
HETATM    1  C8  UNL     1      12.009  21.661  17.512  1.00  0.00     0.104 C 
HETATM    2  C9  UNL     1      10.597  21.098  17.701  1.00  0.00     0.160 C 
HETATM    3  C11 UNL     1      10.499  19.897  16.746  1.00  0.00     0.152 C 
HETATM    4  O4  UNL     1      11.324  18.864  17.144  1.00  0.00    -0.370 OA
HETATM    5  C22 UNL     1      12.406  19.289  17.837  1.00  0.00     0.220 C 
HETATM    6  C23 UNL     1      13.650  18.408  17.703  1.00  0.00     0.182 C 
HETATM    7  C24 UNL     1      14.714  19.467  17.836  1.00  0.00     0.184 C 
HETATM    8  C25 UNL     1      14.984  19.919  16.388  1.00  0.00     0.311 C 
HETATM    9  N3  UNL     1      13.672  20.456  16.091  1.00  0.00     0.134 N 
HETATM   10  C31 UNL     1      13.002  20.612  17.320  1.00  0.00     0.298 C 
HETATM   11  O6  UNL     1      14.073  20.650  18.262  1.00  0.00    -0.340 OA
ENDROOT
BRANCH   3  12
HETATM   12  C12 UNL     1       9.104  19.453  16.554  1.00  0.00     0.048 C 
BRANCH  12  13
HETATM   13  C13 UNL     1       8.865  17.981  16.692  1.00  0.00     0.076 C 
HETATM   14  C14 UNL     1       8.400  17.704  18.153  1.00  0.00     0.020 C 
BRANCH  13  15
HETATM   15  C15 UNL     1       7.852  17.468  15.776  1.00  0.00     0.221 C 
HETATM   16  O3  UNL     1       7.657  17.939  14.650  1.00  0.00    -0.273 OA
HETATM   17  N2  UNL     1       7.024  16.357  16.185  1.00  0.00    -0.356 N 
ATOM     18  H2  UNL     1       7.163  15.955  17.111  1.00  0.00     0.162 HD
BRANCH  17  19
HETATM   19  C16 UNL     1       6.011  15.798  15.334  1.00  0.00     0.084 C 
HETATM   20  C17 UNL     1       6.529  14.618  14.528  1.00  0.00     0.025 C 
HETATM   21  C18 UNL     1       6.165  13.290  15.187  1.00  0.00     0.002 C 
HETATM   22  C19 UNL     1       4.651  13.115  15.218  1.00  0.00     0.000 C 
HETATM   23  C20 UNL     1       3.976  14.476  15.233  1.00  0.00     0.002 C 
HETATM   24  C21 UNL     1       4.819  15.339  16.169  1.00  0.00     0.025 C 
ENDBRANCH  17  19
ENDBRANCH  13  15
ENDBRANCH  12  13
ENDBRANCH   3  12
BRANCH   2  25
HETATM   25  O2  UNL     1      10.298  20.759  18.984  1.00  0.00    -0.388 OA
HETATM   26  C10 UNL     1       9.779  21.707  19.811  1.00  0.00     0.202 C 
ENDBRANCH   2  25
BRANCH   1  27
HETATM   27  C7  UNL     1      12.433  22.597  18.615  1.00  0.00     0.135 C 
BRANCH  27  28
HETATM   28  N1  UNL     1      13.221  23.676  18.109  1.00  0.00    -0.360 N 
HETATM   29  C6  UNL     1      14.453  24.055  18.678  1.00  0.00     0.217 C 
HETATM   30  O1  UNL     1      14.860  23.398  19.681  1.00  0.00    -0.274 OA
ATOM     31  H1  UNL     1      12.877  24.194  17.300  1.00  0.00     0.162 HD
BRANCH  29  32
HETATM   32  C5  UNL     1      15.274  25.160  18.163  1.00  0.00     0.103 C 
BRANCH  32  33
HETATM   33  C4  UNL     1      16.121  25.742  19.275  1.00  0.00     0.009 C 
BRANCH  33  34
HETATM   34  C3  UNL     1      17.522  26.001  18.806  1.00  0.00     0.000 C 
BRANCH  34  35
HETATM   35  C2  UNL     1      17.474  26.643  17.438  1.00  0.00    -0.005 C 
HETATM   36  C1  UNL     1      18.465  27.783  17.327  1.00  0.00     0.005 C 
ENDBRANCH  34  35
ENDBRANCH  33  34
ENDBRANCH  32  33
ENDBRANCH  29  32
ENDBRANCH  27  28
ENDBRANCH   1  27
BRANCH   6  37
HETATM   37  O5  UNL     1      13.705  17.469  18.726  1.00  0.00    -0.390 OA
ATOM     38  H5  UNL     1      13.471  17.862  19.559  1.00  0.00     0.210 HD
ENDBRANCH   6  37
BRANCH   9  39
HETATM   39  C26 UNL     1      13.718  21.487  15.153  1.00  0.00     0.227 C 
HETATM   40  C27 UNL     1      13.685  20.867  13.749  1.00  0.00     0.036 C 
HETATM   41  C28 UNL     1      14.079  21.973  12.827  1.00  0.00     0.002 C 
HETATM   42  C29 UNL     1      14.862  22.947  13.654  1.00  0.00     0.002 C 
HETATM   43  C30 UNL     1      14.955  22.329  15.064  1.00  0.00     0.036 C 
ENDBRANCH   9  39
TORSDOF 13
ENDMDL
MODEL 2
REMARK VINA RESULT: -8.632866492      1.274      1.688
REMARK  13 active torsions:
REMARK  status: ('A' for Active; 'I' for Inactive)
REMARK    1  A    between atoms: C2_2  and  C3_3 
REMARK    2  A    between atoms: C3_3  and  C4_4 
REMARK    3  A    between atoms: C4_4  and  C5_5 
REMARK    4  A    between atoms: C5_5  and  C6_6 
REMARK       I    between atoms: C6_6  and  N1_8 
REMARK    5  A    between atoms: N1_8  and  C7_10 
REMARK    6  A    between atoms: C7_10  and  C8_11 
REMARK    7  A    between atoms: C9_12  and  O2_13 
REMARK    8  A    between atoms: C11_15  and  C12_16 
REMARK    9  A    between atoms: C12_16  and  C13_17 
REMARK   10  A    between atoms: C13_17  and  C15_19 
REMARK       I    between atoms: C15_19  and  N2_21 
REMARK   11  A    between atoms: N2_21  and  C16_23 
REMARK   12  A    between atoms: C23_31  and  O5_32 
REMARK   13  A    between atoms: N3_36  and  C26_37 
ROOT
HETATM    1  C8  UNL     1      12.472  21.903  17.901  1.00  0.00     0.104 C 
HETATM    2  C9  UNL     1      11.062  21.517  18.360  1.00  0.00     0.160 C 
HETATM    3  C11 UNL     1      10.644  20.339  17.464  1.00  0.00     0.152 C 
HETATM    4  O4  UNL     1      11.397  19.212  17.722  1.00  0.00    -0.370 OA
HETATM    5  C22 UNL     1      12.633  19.500  18.194  1.00  0.00     0.220 C 
HETATM    6  C23 UNL     1      13.714  18.473  17.849  1.00  0.00     0.182 C 
HETATM    7  C24 UNL     1      14.904  19.393  17.761  1.00  0.00     0.184 C 
HETATM    8  C25 UNL     1      14.952  19.814  16.280  1.00  0.00     0.311 C 
HETATM    9  N3  UNL     1      13.683  20.508  16.220  1.00  0.00     0.134 N 
HETATM   10  C31 UNL     1      13.277  20.741  17.549  1.00  0.00     0.298 C 
HETATM   11  O6  UNL     1      14.502  20.645  18.275  1.00  0.00    -0.340 OA
ENDROOT
BRANCH   3  12
HETATM   12  C12 UNL     1       9.194  20.070  17.542  1.00  0.00     0.048 C 
BRANCH  12  13
HETATM   13  C13 UNL     1       8.808  18.772  18.182  1.00  0.00     0.076 C 
HETATM   14  C14 UNL     1       7.653  19.057  19.189  1.00  0.00     0.020 C 
BRANCH  13  15
HETATM   15  C15 UNL     1       8.355  17.766  17.228  1.00  0.00     0.221 C 
HETATM   16  O3  UNL     1       8.199  16.575  17.522  1.00  0.00    -0.273 OA
HETATM   17  N2  UNL     1       8.070  18.157  15.866  1.00  0.00    -0.356 N 
ATOM     18  H2  UNL     1       8.196  19.133  15.598  1.00  0.00     0.162 HD
BRANCH  17  19
HETATM   19  C16 UNL     1       7.617  17.221  14.875  1.00  0.00     0.084 C 
HETATM   20  C17 UNL     1       8.773  16.525  14.176  1.00  0.00     0.025 C 
HETATM   21  C18 UNL     1       9.049  15.153  14.788  1.00  0.00     0.002 C 
HETATM   22  C19 UNL     1       7.850  14.234  14.584  1.00  0.00     0.000 C 
HETATM   23  C20 UNL     1       6.580  15.061  14.475  1.00  0.00     0.002 C 
HETATM   24  C21 UNL     1       6.723  16.166  15.520  1.00  0.00     0.025 C 
ENDBRANCH  17  19
ENDBRANCH  13  15
ENDBRANCH  12  13
ENDBRANCH   3  12
BRANCH   2  25
HETATM   25  O2  UNL     1      10.969  21.213  19.682  1.00  0.00    -0.388 OA
HETATM   26  C10 UNL     1       9.983  21.789  20.422  1.00  0.00     0.202 C 
ENDBRANCH   2  25
BRANCH   1  27
HETATM   27  C7  UNL     1      13.204  22.777  18.887  1.00  0.00     0.135 C 
BRANCH  27  28
HETATM   28  N1  UNL     1      13.879  23.852  18.231  1.00  0.00    -0.360 N 
HETATM   29  C6  UNL     1      14.819  24.674  18.882  1.00  0.00     0.217 C 
HETATM   30  O1  UNL     1      15.060  24.434  20.102  1.00  0.00    -0.274 OA
ATOM     31  H1  UNL     1      13.671  24.030  17.249  1.00  0.00     0.162 HD
BRANCH  29  32
HETATM   32  C5  UNL     1      15.523  25.779  18.216  1.00  0.00     0.103 C 
BRANCH  32  33
HETATM   33  C4  UNL     1      16.940  25.884  18.738  1.00  0.00     0.009 C 
BRANCH  33  34
HETATM   34  C3  UNL     1      17.931  25.444  17.702  1.00  0.00     0.000 C 
BRANCH  34  35
HETATM   35  C2  UNL     1      18.079  23.940  17.767  1.00  0.00    -0.005 C 
HETATM   36  C1  UNL     1      18.461  23.362  16.421  1.00  0.00     0.005 C 
ENDBRANCH  34  35
ENDBRANCH  33  34
ENDBRANCH  32  33
ENDBRANCH  29  32
ENDBRANCH  27  28
ENDBRANCH   1  27
BRANCH   6  37
HETATM   37  O5  UNL     1      13.846  17.532  18.863  1.00  0.00    -0.390 OA
ATOM     38  H5  UNL     1      14.179  16.710  18.521  1.00  0.00     0.210 HD
ENDBRANCH   6  37
BRANCH   9  39
HETATM   39  C26 UNL     1      13.677  21.528  15.270  1.00  0.00     0.227 C 
HETATM   40  C27 UNL     1      13.573  20.893  13.876  1.00  0.00     0.036 C 
HETATM   41  C28 UNL     1      13.916  21.989  12.923  1.00  0.00     0.002 C 
HETATM   42  C29 UNL     1      14.738  22.974  13.698  1.00  0.00     0.002 C 
HETATM   43  C30 UNL     1      14.906  22.372  15.107  1.00  0.00     0.036 C 
ENDBRANCH   9  39
TORSDOF 13
ENDMDL
MODEL 3
REMARK VINA RESULT: -8.320778530      0.715      1.144
REMARK  13 active torsions:
REMARK  status: ('A' for Active; 'I' for Inactive)
REMARK    1  A    between atoms: C2_2  and  C3_3 
REMARK    2  A    between atoms: C3_3  and  C4_4 
REMARK    3  A    between atoms: C4_4  and  C5_5 
REMARK    4  A    between atoms: C5_5  and  C6_6 
REMARK       I    between atoms: C6_6  and  N1_8 
REMARK    5  A    between atoms: N1_8  and  C7_10 
REMARK    6  A    between atoms: C7_10  and  C8_11 
REMARK    7  A    between atoms: C9_12  and  O2_13 
REMARK    8  A    between atoms: C11_15  and  C12_16 
REMARK    9  A    between atoms: C12_16  and  C13_17 
REMARK   10  A    between atoms: C13_17  and  C15_19 
REMARK       I    between atoms: C15_19  and  N2_21 
REMARK   11  A    between atoms: N2_21  and  C16_23 
REMARK   12  A    between atoms: C23_31  and  O5_32 
REMARK   13  A    between atoms: N3_36  and  C26_37 
ROOT
HETATM    1  C8  UNL     1      11.959  21.593  17.621  1.00  0.00     0.104 C 
HETATM    2  C9  UNL     1      10.558  21.024  17.866  1.00  0.00     0.160 C 
HETATM    3  C11 UNL     1      10.441  19.799  16.944  1.00  0.00     0.152 C 
HETATM    4  O4  UNL     1      11.286  18.782  17.342  1.00  0.00    -0.370 OA
HETATM    5  C22 UNL     1      12.385  19.233  17.992  1.00  0.00     0.220 C 
HETATM    6  C23 UNL     1      13.631  18.358  17.841  1.00  0.00     0.182 C 
HETATM    7  C24 UNL     1      14.690  19.427  17.916  1.00  0.00     0.184 C 
HETATM    8  C25 UNL     1      14.912  19.846  16.450  1.00  0.00     0.311 C 
HETATM    9  N3  UNL     1      13.588  20.365  16.180  1.00  0.00     0.134 N 
HETATM   10  C31 UNL     1      12.954  20.547  17.424  1.00  0.00     0.298 C 
HETATM   11  O6  UNL     1      14.052  20.616  18.332  1.00  0.00    -0.340 OA
ENDROOT
BRANCH   3  12
HETATM   12  C12 UNL     1       9.045  19.340  16.806  1.00  0.00     0.048 C 
BRANCH  12  13
HETATM   13  C13 UNL     1       8.772  18.426  15.651  1.00  0.00     0.076 C 
HETATM   14  C14 UNL     1      10.085  18.293  14.822  1.00  0.00     0.020 C 
BRANCH  13  15
HETATM   15  C15 UNL     1       8.340  17.092  16.055  1.00  0.00     0.221 C 
HETATM   16  O3  UNL     1       8.856  16.467  16.988  1.00  0.00    -0.273 OA
HETATM   17  N2  UNL     1       7.260  16.450  15.341  1.00  0.00    -0.356 N 
ATOM     18  H2  UNL     1       6.822  16.944  14.564  1.00  0.00     0.162 HD
BRANCH  17  19
HETATM   19  C16 UNL     1       6.781  15.141  15.686  1.00  0.00     0.084 C 
HETATM   20  C17 UNL     1       5.475  15.198  16.462  1.00  0.00     0.025 C 
HETATM   21  C18 UNL     1       4.272  14.977  15.547  1.00  0.00     0.002 C 
HETATM   22  C19 UNL     1       4.318  13.576  14.947  1.00  0.00     0.000 C 
HETATM   23  C20 UNL     1       5.757  13.096  14.868  1.00  0.00     0.002 C 
HETATM   24  C21 UNL     1       6.567  14.311  14.423  1.00  0.00     0.025 C 
ENDBRANCH  17  19
ENDBRANCH  13  15
ENDBRANCH  12  13
ENDBRANCH   3  12
BRANCH   2  25
HETATM   25  O2  UNL     1      10.300  20.715  19.165  1.00  0.00    -0.388 OA
HETATM   26  C10 UNL     1       9.804  21.680  19.986  1.00  0.00     0.202 C 
ENDBRANCH   2  25
BRANCH   1  27
HETATM   27  C7  UNL     1      12.408  22.559  18.687  1.00  0.00     0.135 C 
BRANCH  27  28
HETATM   28  N1  UNL     1      13.178  23.627  18.132  1.00  0.00    -0.360 N 
HETATM   29  C6  UNL     1      14.391  24.067  18.697  1.00  0.00     0.217 C 
HETATM   30  O1  UNL     1      14.797  23.478  19.742  1.00  0.00    -0.274 OA
ATOM     31  H1  UNL     1      12.835  24.089  17.291  1.00  0.00     0.162 HD
BRANCH  29  32
HETATM   32  C5  UNL     1      15.195  25.160  18.132  1.00  0.00     0.103 C 
BRANCH  32  33
HETATM   33  C4  UNL     1      16.031  25.806  19.216  1.00  0.00     0.009 C 
BRANCH  33  34
HETATM   34  C3  UNL     1      17.481  25.839  18.832  1.00  0.00     0.000 C 
BRANCH  34  35
HETATM   35  C2  UNL     1      17.607  26.382  17.427  1.00  0.00    -0.005 C 
HETATM   36  C1  UNL     1      18.446  27.642  17.393  1.00  0.00     0.005 C 
ENDBRANCH  34  35
ENDBRANCH  33  34
ENDBRANCH  32  33
ENDBRANCH  29  32
ENDBRANCH  27  28
ENDBRANCH   1  27
BRANCH   6  37
HETATM   37  O5  UNL     1      13.725  17.445  18.885  1.00  0.00    -0.390 OA
ATOM     38  H5  UNL     1      14.257  17.792  19.592  1.00  0.00     0.210 HD
ENDBRANCH   6  37
BRANCH   9  39
HETATM   39  C26 UNL     1      13.597  21.373  15.217  1.00  0.00     0.227 C 
HETATM   40  C27 UNL     1      13.573  20.717  13.828  1.00  0.00     0.036 C 
HETATM   41  C28 UNL     1      13.928  21.810  12.876  1.00  0.00     0.002 C 
HETATM   42  C29 UNL     1      14.687  22.828  13.673  1.00  0.00     0.002 C 
HETATM   43  C30 UNL     1      14.808  22.249  15.097  1.00  0.00     0.036 C 
ENDBRANCH   9  39
TORSDOF 13
ENDMDL
MODEL 4
REMARK VINA RESULT: -8.306252742      1.307      1.860
REMARK  13 active torsions:
REMARK  status: ('A' for Active; 'I' for Inactive)
REMARK    1  A    between atoms: C2_2  and  C3_3 
REMARK    2  A    between atoms: C3_3  and  C4_4 
REMARK    3  A    between atoms: C4_4  and  C5_5 
REMARK    4  A    between atoms: C5_5  and  C6_6 
REMARK       I    between atoms: C6_6  and  N1_8 
REMARK    5  A    between atoms: N1_8  and  C7_10 
REMARK    6  A    between atoms: C7_10  and  C8_11 
REMARK    7  A    between atoms: C9_12  and  O2_13 
REMARK    8  A    between atoms: C11_15  and  C12_16 
REMARK    9  A    between atoms: C12_16  and  C13_17 
REMARK   10  A    between atoms: C13_17  and  C15_19 
REMARK       I    between atoms: C15_19  and  N2_21 
REMARK   11  A    between atoms: N2_21  and  C16_23 
REMARK   12  A    between atoms: C23_31  and  O5_32 
REMARK   13  A    between atoms: N3_36  and  C26_37 
ROOT
HETATM    1  C8  UNL     1      12.244  21.655  17.961  1.00  0.00     0.104 C 
HETATM    2  C9  UNL     1      10.842  21.247  18.427  1.00  0.00     0.160 C 
HETATM    3  C11 UNL     1      10.442  20.056  17.540  1.00  0.00     0.152 C 
HETATM    4  O4  UNL     1      11.216  18.944  17.803  1.00  0.00    -0.370 OA
HETATM    5  C22 UNL     1      12.449  19.257  18.268  1.00  0.00     0.220 C 
HETATM    6  C23 UNL     1      13.547  18.248  17.925  1.00  0.00     0.182 C 
HETATM    7  C24 UNL     1      14.720  19.188  17.827  1.00  0.00     0.184 C 
HETATM    8  C25 UNL     1      14.754  19.600  16.343  1.00  0.00     0.311 C 
HETATM    9  N3  UNL     1      13.473  20.270  16.284  1.00  0.00     0.134 N 
HETATM   10  C31 UNL     1      13.068  20.505  17.613  1.00  0.00     0.298 C 
HETATM   11  O6  UNL     1      14.297  20.436  18.335  1.00  0.00    -0.340 OA
ENDROOT
BRANCH   3  12
HETATM   12  C12 UNL     1       8.998  19.761  17.626  1.00  0.00     0.048 C 
BRANCH  12  13
HETATM   13  C13 UNL     1       8.598  18.765  18.670  1.00  0.00     0.076 C 
HETATM   14  C14 UNL     1       7.203  19.183  19.225  1.00  0.00     0.020 C 
BRANCH  13  15
HETATM   15  C15 UNL     1       8.508  17.399  18.167  1.00  0.00     0.221 C 
HETATM   16  O3  UNL     1       8.375  16.414  18.902  1.00  0.00    -0.273 OA
HETATM   17  N2  UNL     1       8.576  17.162  16.743  1.00  0.00    -0.356 N 
ATOM     18  H2  UNL     1       8.690  17.959  16.117  1.00  0.00     0.162 HD
BRANCH  17  19
HETATM   19  C16 UNL     1       8.489  15.845  16.177  1.00  0.00     0.084 C 
HETATM   20  C17 UNL     1       7.138  15.199  16.439  1.00  0.00     0.025 C 
HETATM   21  C18 UNL     1       6.203  15.357  15.242  1.00  0.00     0.002 C 
HETATM   22  C19 UNL     1       6.768  14.620  14.032  1.00  0.00     0.000 C 
HETATM   23  C20 UNL     1       8.282  14.544  14.136  1.00  0.00     0.002 C 
HETATM   24  C21 UNL     1       8.722  15.906  14.670  1.00  0.00     0.025 C 
ENDBRANCH  17  19
ENDBRANCH  13  15
ENDBRANCH  12  13
ENDBRANCH   3  12
BRANCH   2  25
HETATM   25  O2  UNL     1      10.760  20.949  19.752  1.00  0.00    -0.388 OA
HETATM   26  C10 UNL     1      10.008  21.746  20.559  1.00  0.00     0.202 C 
ENDBRANCH   2  25
BRANCH   1  27
HETATM   27  C7  UNL     1      12.963  22.548  18.938  1.00  0.00     0.135 C 
BRANCH  27  28
HETATM   28  N1  UNL     1      13.483  23.713  18.295  1.00  0.00    -0.360 N 
HETATM   29  C6  UNL     1      14.518  24.493  18.848  1.00  0.00     0.217 C 
HETATM   30  O1  UNL     1      14.992  24.129  19.964  1.00  0.00    -0.274 OA
ATOM     31  H1  UNL     1      13.088  23.991  17.397  1.00  0.00     0.162 HD
BRANCH  29  32
HETATM   32  C5  UNL     1      15.064  25.690  18.193  1.00  0.00     0.103 C 
BRANCH  32  33
HETATM   33  C4  UNL     1      16.499  25.909  18.621  1.00  0.00     0.009 C 
BRANCH  33  34
HETATM   34  C3  UNL     1      17.453  25.516  17.532  1.00  0.00     0.000 C 
BRANCH  34  35
HETATM   35  C2  UNL     1      18.098  24.196  17.893  1.00  0.00    -0.005 C 
HETATM   36  C1  UNL     1      18.331  23.340  16.666  1.00  0.00     0.005 C 
ENDBRANCH  34  35
ENDBRANCH  33  34
ENDBRANCH  32  33
ENDBRANCH  29  32
ENDBRANCH  27  28
ENDBRANCH   1  27
BRANCH   6  37
HETATM   37  O5  UNL     1      13.698  17.315  18.945  1.00  0.00    -0.390 OA
ATOM     38  H5  UNL     1      14.588  16.982  18.970  1.00  0.00     0.210 HD
ENDBRANCH   6  37
BRANCH   9  39
HETATM   39  C26 UNL     1      13.445  21.285  15.328  1.00  0.00     0.227 C 
HETATM   40  C27 UNL     1      13.434  20.637  13.935  1.00  0.00     0.036 C 
HETATM   41  C28 UNL     1      13.750  21.748  12.989  1.00  0.00     0.002 C 
HETATM   42  C29 UNL     1      14.481  22.783  13.789  1.00  0.00     0.002 C 
HETATM   43  C30 UNL     1      14.628  22.198  15.208  1.00  0.00     0.036 C 
ENDBRANCH   9  39
TORSDOF 13
ENDMDL
MODEL 5
REMARK VINA RESULT: -8.304845883      2.180      2.890
REMARK  13 active torsions:
REMARK  status: ('A' for Active; 'I' for Inactive)
REMARK    1  A    between atoms: C2_2  and  C3_3 
REMARK    2  A    between atoms: C3_3  and  C4_4 
REMARK    3  A    between atoms: C4_4  and  C5_5 
REMARK    4  A    between atoms: C5_5  and  C6_6 
REMARK       I    between atoms: C6_6  and  N1_8 
REMARK    5  A    between atoms: N1_8  and  C7_10 
REMARK    6  A    between atoms: C7_10  and  C8_11 
REMARK    7  A    between atoms: C9_12  and  O2_13 
REMARK    8  A    between atoms: C11_15  and  C12_16 
REMARK    9  A    between atoms: C12_16  and  C13_17 
REMARK   10  A    between atoms: C13_17  and  C15_19 
REMARK       I    between atoms: C15_19  and  N2_21 
REMARK   11  A    between atoms: N2_21  and  C16_23 
REMARK   12  A    between atoms: C23_31  and  O5_32 
REMARK   13  A    between atoms: N3_36  and  C26_37 
ROOT
HETATM    1  C8  UNL     1      11.978  21.663  17.471  1.00  0.00     0.104 C 
HETATM    2  C9  UNL     1      10.541  21.141  17.567  1.00  0.00     0.160 C 
HETATM    3  C11 UNL     1      10.463  19.959  16.585  1.00  0.00     0.152 C 
HETATM    4  O4  UNL     1      11.232  18.895  17.011  1.00  0.00    -0.370 OA
HETATM    5  C22 UNL     1      12.285  19.275  17.773  1.00  0.00     0.220 C 
HETATM    6  C23 UNL     1      13.507  18.358  17.695  1.00  0.00     0.182 C 
HETATM    7  C24 UNL     1      14.593  19.381  17.909  1.00  0.00     0.184 C 
HETATM    8  C25 UNL     1      14.960  19.849  16.488  1.00  0.00     0.311 C 
HETATM    9  N3  UNL     1      13.685  20.431  16.125  1.00  0.00     0.134 N 
HETATM   10  C31 UNL     1      12.948  20.587  17.316  1.00  0.00     0.298 C 
HETATM   11  O6  UNL     1      13.963  20.576  18.319  1.00  0.00    -0.340 OA
ENDROOT
BRANCH   3  12
HETATM   12  C12 UNL     1       9.070  19.561  16.305  1.00  0.00     0.048 C 
BRANCH  12  13
HETATM   13  C13 UNL     1       8.837  18.094  16.116  1.00  0.00     0.076 C 
HETATM   14  C14 UNL     1       9.898  17.565  15.106  1.00  0.00     0.020 C 
BRANCH  13  15
HETATM   15  C15 UNL     1       8.946  17.325  17.351  1.00  0.00     0.221 C 
HETATM   16  O3  UNL     1       9.354  16.158  17.387  1.00  0.00    -0.273 OA
HETATM   17  N2  UNL     1       8.562  17.934  18.603  1.00  0.00    -0.356 N 
ATOM     18  H2  UNL     1       8.217  18.894  18.597  1.00  0.00     0.162 HD
BRANCH  17  19
HETATM   19  C16 UNL     1       8.647  17.239  19.856  1.00  0.00     0.084 C 
HETATM   20  C17 UNL     1       8.487  18.176  21.042  1.00  0.00     0.025 C 
HETATM   21  C18 UNL     1       7.055  18.165  21.572  1.00  0.00     0.002 C 
HETATM   22  C19 UNL     1       6.703  16.782  22.110  1.00  0.00     0.000 C 
HETATM   23  C20 UNL     1       7.531  15.727  21.396  1.00  0.00     0.002 C 
HETATM   24  C21 UNL     1       7.569  16.161  19.932  1.00  0.00     0.025 C 
ENDBRANCH  17  19
ENDBRANCH  13  15
ENDBRANCH  12  13
ENDBRANCH   3  12
BRANCH   2  25
HETATM   25  O2  UNL     1      10.158  20.789  18.823  1.00  0.00    -0.388 OA
HETATM   26  C10 UNL     1       9.832  21.768  19.710  1.00  0.00     0.202 C 
ENDBRANCH   2  25
BRANCH   1  27
HETATM   27  C7  UNL     1      12.364  22.566  18.612  1.00  0.00     0.135 C 
BRANCH  27  28
HETATM   28  N1  UNL     1      13.145  23.674  18.160  1.00  0.00    -0.360 N 
HETATM   29  C6  UNL     1      14.378  24.028  18.743  1.00  0.00     0.217 C 
HETATM   30  O1  UNL     1      14.792  23.321  19.709  1.00  0.00    -0.274 OA
ATOM     31  H1  UNL     1      12.795  24.232  17.382  1.00  0.00     0.162 HD
BRANCH  29  32
HETATM   32  C5  UNL     1      15.192  25.162  18.283  1.00  0.00     0.103 C 
BRANCH  32  33
HETATM   33  C4  UNL     1      16.050  25.681  19.417  1.00  0.00     0.009 C 
BRANCH  33  34
HETATM   34  C3  UNL     1      17.432  26.016  18.938  1.00  0.00     0.000 C 
BRANCH  34  35
HETATM   35  C2  UNL     1      17.346  26.577  17.536  1.00  0.00    -0.005 C 
HETATM   36  C1  UNL     1      18.376  27.664  17.311  1.00  0.00     0.005 C 
ENDBRANCH  34  35
ENDBRANCH  33  34
ENDBRANCH  32  33
ENDBRANCH  29  32
ENDBRANCH  27  28
ENDBRANCH   1  27
BRANCH   6  37
HETATM   37  O5  UNL     1      13.475  17.401  18.702  1.00  0.00    -0.390 OA
ATOM     38  H5  UNL     1      13.619  17.799  19.553  1.00  0.00     0.210 HD
ENDBRANCH   6  37
BRANCH   9  39
HETATM   39  C26 UNL     1      13.816  21.476  15.212  1.00  0.00     0.227 C 
HETATM   40  C27 UNL     1      13.572  20.920  13.801  1.00  0.00     0.036 C 
HETATM   41  C28 UNL     1      14.059  21.984  12.875  1.00  0.00     0.002 C 
HETATM   42  C29 UNL     1      15.049  22.795  13.654  1.00  0.00     0.002 C 
HETATM   43  C30 UNL     1      15.158  22.120  15.036  1.00  0.00     0.036 C 
ENDBRANCH   9  39
TORSDOF 13
ENDMDL
