MODEL 1
REMARK VINA RESULT: -8.001528739      0.000      0.000
REMARK  15 active torsions:
REMARK  status: ('A' for Active; 'I' for Inactive)
REMARK    1  A    between atoms: C2_2  and  C3_4 
REMARK    2  A    between atoms: C4_5  and  C5_6 
REMARK    3  A    between atoms: C5_6  and  C6_7 
REMARK    4  A    between atoms: C6_7  and  C7_8 
REMARK    5  A    between atoms: C7_8  and  C8_9 
REMARK    6  A    between atoms: C8_9  and  S1_10 
REMARK    7  A    between atoms: S1_10  and  N1_13 
REMARK    8  A    between atoms: N1_13  and  C9_15 
REMARK    9  A    between atoms: C9_15  and  C10_16 
REMARK   10  A    between atoms: C12_23  and  N4_24 
REMARK   11  A    between atoms: N4_24  and  C13_26 
REMARK   12  A    between atoms: C13_26  and  O4_27 
REMARK   13  A    between atoms: C13_26  and  C14_29 
REMARK   14  A    between atoms: C14_29  and  C17_32 
REMARK   15  A    between atoms: C17_32  and  C18_33 
ROOT
HETATM    1  C3  UNL     1      38.102  32.162  13.568  1.00  0.00     0.181 C 
HETATM    2  C4  UNL     1      38.137  30.649  13.747  1.00  0.00     0.141 C 
HETATM    3  N2  UNL     1      36.802  30.269  14.188  1.00  0.00    -0.250 N 
HETATM    4  N3  UNL     1      36.396  29.269  14.955  1.00  0.00    -0.128 N 
ATOM      5  H3  UNL     1      37.017  28.584  15.386  1.00  0.00     0.206 HD
HETATM    6  C12 UNL     1      35.058  29.273  15.091  1.00  0.00     0.696 A 
HETATM    7  N5  UNL     1      34.615  30.327  14.374  1.00  0.00    -0.168 N 
ATOM      8  H5  UNL     1      33.642  30.616  14.267  1.00  0.00     0.186 HD
HETATM    9  C22 UNL     1      35.686  30.927  13.828  1.00  0.00     0.207 A 
HETATM   10  C23 UNL     1      35.756  32.138  12.977  1.00  0.00     0.290 C 
HETATM   11  O5  UNL     1      34.745  32.782  12.608  1.00  0.00    -0.264 OA
HETATM   12  N6  UNL     1      37.112  32.516  12.598  1.00  0.00    -0.336 N 
HETATM   13  C24 UNL     1      37.283  33.161  11.333  1.00  0.00     0.154 C 
ENDROOT
BRANCH   2  14
HETATM   14  C5  UNL     1      38.434  29.932  12.474  1.00  0.00     0.030 C 
BRANCH  14  15
HETATM   15  C6  UNL     1      39.728  29.153  12.536  1.00  0.00     0.003 C 
BRANCH  15  16
HETATM   16  C7  UNL     1      40.278  29.082  13.940  1.00  0.00     0.017 C 
BRANCH  16  17
HETATM   17  C8  UNL     1      41.664  29.620  14.054  1.00  0.00     0.163 C 
BRANCH  17  18
HETATM   18  S1  UNL     1      41.859  30.274  15.696  1.00  0.00     0.226 S 
HETATM   19  O2  UNL     1      42.961  29.489  16.355  1.00  0.00    -0.206 OA
HETATM   20  O3  UNL     1      40.559  30.057  16.414  1.00  0.00    -0.206 OA
BRANCH  18  21
HETATM   21  N1  UNL     1      42.189  31.955  15.678  1.00  0.00    -0.314 N 
ATOM     22  H1  UNL     1      41.717  32.611  15.056  1.00  0.00     0.172 HD
BRANCH  21  23
HETATM   23  C9  UNL     1      43.195  32.353  16.623  1.00  0.00     0.210 C 
BRANCH  23  24
HETATM   24  C10 UNL     1      42.508  33.287  17.622  1.00  0.00     0.256 C 
HETATM   25  C11 UNL     1      42.310  34.635  16.994  1.00  0.00     0.091 C 
HETATM   26  F1  UNL     1      43.231  33.336  18.793  1.00  0.00    -0.205 F 
HETATM   27  F2  UNL     1      41.244  32.722  17.841  1.00  0.00    -0.205 F 
ENDBRANCH  23  24
ENDBRANCH  21  23
ENDBRANCH  18  21
ENDBRANCH  17  18
ENDBRANCH  16  17
ENDBRANCH  15  16
ENDBRANCH  14  15
ENDBRANCH   2  14
BRANCH   1  28
HETATM   28  C2  UNL     1      39.404  32.782  13.535  1.00  0.00     0.147 C 
HETATM   29  C1  UNL     1      40.315  32.779  12.378  1.00  0.00     0.093 C 
HETATM   30  O1  UNL     1      39.877  33.397  14.520  1.00  0.00    -0.296 OA
ENDBRANCH   1  28
BRANCH   6  31
HETATM   31  N4  UNL     1      34.327  28.450  15.764  1.00  0.00    -0.198 N 
ATOM     32  H4  UNL     1      33.465  28.130  15.323  1.00  0.00     0.180 HD
BRANCH  31  33
HETATM   33  C13 UNL     1      34.614  27.948  17.066  1.00  0.00     0.242 C 
BRANCH  33  34
HETATM   34  O4  UNL     1      35.849  28.412  17.499  1.00  0.00    -0.376 OA
ATOM     35  H4  UNL     1      36.488  27.709  17.482  1.00  0.00     0.212 HD
ENDBRANCH  33  34
BRANCH  33  36
HETATM   36  C14 UNL     1      33.504  28.395  18.043  1.00  0.00    -0.003 C 
HETATM   37  C15 UNL     1      33.122  29.774  17.560  1.00  0.00     0.019 C 
HETATM   38  C16 UNL     1      34.169  28.515  19.380  1.00  0.00     0.019 C 
BRANCH  36  39
HETATM   39  C17 UNL     1      32.430  27.391  17.930  1.00  0.00     0.021 C 
BRANCH  39  40
HETATM   40  C18 UNL     1      31.253  27.478  18.808  1.00  0.00    -0.051 C 
HETATM   41  C19 UNL     1      31.526  27.851  20.236  1.00  0.00     0.014 C 
HETATM   42  C20 UNL     1      30.643  26.063  18.862  1.00  0.00     0.014 C 
HETATM   43  C21 UNL     1      30.148  28.363  18.291  1.00  0.00     0.014 C 
ENDBRANCH  39  40
ENDBRANCH  36  39
ENDBRANCH  33  36
ENDBRANCH  31  33
ENDBRANCH   6  31
TORSDOF 15
ENDMDL
MODEL 2
REMARK VINA RESULT: -7.892208642      0.983      1.063
REMARK  15 active torsions:
REMARK  status: ('A' for Active; 'I' for Inactive)
REMARK    1  A    between atoms: C2_2  and  C3_4 
REMARK    2  A    between atoms: C4_5  and  C5_6 
REMARK    3  A    between atoms: C5_6  and  C6_7 
REMARK    4  A    between atoms: C6_7  and  C7_8 
REMARK    5  A    between atoms: C7_8  and  C8_9 
REMARK    6  A    between atoms: C8_9  and  S1_10 
REMARK    7  A    between atoms: S1_10  and  N1_13 
REMARK    8  A    between atoms: N1_13  and  C9_15 
REMARK    9  A    between atoms: C9_15  and  C10_16 
REMARK   10  A    between atoms: C12_23  and  N4_24 
REMARK   11  A    between atoms: N4_24  and  C13_26 
REMARK   12  A    between atoms: C13_26  and  O4_27 
REMARK   13  A    between atoms: C13_26  and  C14_29 
REMARK   14  A    between atoms: C14_29  and  C17_32 
REMARK   15  A    between atoms: C17_32  and  C18_33 
ROOT
HETATM    1  C3  UNL     1      37.756  31.982  13.025  1.00  0.00     0.181 C 
HETATM    2  C4  UNL     1      37.980  30.620  13.671  1.00  0.00     0.141 C 
HETATM    3  N2  UNL     1      36.657  30.126  14.029  1.00  0.00    -0.250 N 
HETATM    4  N3  UNL     1      36.269  29.326  15.009  1.00  0.00    -0.128 N 
ATOM      5  H3  UNL     1      36.893  28.928  15.711  1.00  0.00     0.206 HD
HETATM    6  C12 UNL     1      34.942  29.106  14.960  1.00  0.00     0.696 A 
HETATM    7  N5  UNL     1      34.489  29.804  13.898  1.00  0.00    -0.168 N 
ATOM      8  H5  UNL     1      33.521  29.854  13.579  1.00  0.00     0.186 HD
HETATM    9  C22 UNL     1      35.542  30.423  13.338  1.00  0.00     0.207 A 
HETATM   10  C23 UNL     1      35.589  31.331  12.168  1.00  0.00     0.290 C 
HETATM   11  O5  UNL     1      34.580  31.632  11.487  1.00  0.00    -0.264 OA
HETATM   12  N6  UNL     1      36.921  31.845  11.872  1.00  0.00    -0.336 N 
HETATM   13  C24 UNL     1      37.225  32.124  10.503  1.00  0.00     0.154 C 
ENDROOT
BRANCH   2  14
HETATM   14  C5  UNL     1      38.609  29.644  12.736  1.00  0.00     0.030 C 
BRANCH  14  15
HETATM   15  C6  UNL     1      39.719  28.850  13.387  1.00  0.00     0.003 C 
BRANCH  15  16
HETATM   16  C7  UNL     1      40.348  29.599  14.537  1.00  0.00     0.017 C 
BRANCH  16  17
HETATM   17  C8  UNL     1      41.581  30.343  14.145  1.00  0.00     0.163 C 
BRANCH  17  18
HETATM   18  S1  UNL     1      42.866  29.902  15.292  1.00  0.00     0.226 S 
HETATM   19  O2  UNL     1      44.027  29.395  14.479  1.00  0.00    -0.206 OA
HETATM   20  O3  UNL     1      42.322  28.811  16.168  1.00  0.00    -0.206 OA
BRANCH  18  21
HETATM   21  N1  UNL     1      43.310  31.222  16.291  1.00  0.00    -0.314 N 
ATOM     22  H1  UNL     1      44.067  31.176  16.974  1.00  0.00     0.172 HD
BRANCH  21  23
HETATM   23  C9  UNL     1      42.515  32.398  16.077  1.00  0.00     0.210 C 
BRANCH  23  24
HETATM   24  C10 UNL     1      41.687  32.601  17.348  1.00  0.00     0.256 C 
HETATM   25  C11 UNL     1      41.294  34.044  17.465  1.00  0.00     0.091 C 
HETATM   26  F1  UNL     1      42.385  32.139  18.441  1.00  0.00    -0.205 F 
HETATM   27  F2  UNL     1      40.521  31.849  17.148  1.00  0.00    -0.205 F 
ENDBRANCH  23  24
ENDBRANCH  21  23
ENDBRANCH  18  21
ENDBRANCH  17  18
ENDBRANCH  16  17
ENDBRANCH  15  16
ENDBRANCH  14  15
ENDBRANCH   2  14
BRANCH   1  28
HETATM   28  C2  UNL     1      38.936  32.811  12.971  1.00  0.00     0.147 C 
HETATM   29  C1  UNL     1      39.300  33.831  13.969  1.00  0.00     0.093 C 
HETATM   30  O1  UNL     1      39.774  32.721  12.044  1.00  0.00    -0.296 OA
ENDBRANCH   1  28
BRANCH   6  31
HETATM   31  N4  UNL     1      34.229  28.381  15.754  1.00  0.00    -0.198 N 
ATOM     32  H4  UNL     1      33.303  28.108  15.425  1.00  0.00     0.180 HD
BRANCH  31  33
HETATM   33  C13 UNL     1      34.616  27.928  17.049  1.00  0.00     0.242 C 
BRANCH  33  34
HETATM   34  O4  UNL     1      35.850  28.463  17.395  1.00  0.00    -0.376 OA
ATOM     35  H4  UNL     1      36.043  28.279  18.307  1.00  0.00     0.212 HD
ENDBRANCH  33  34
BRANCH  33  36
HETATM   36  C14 UNL     1      33.544  28.347  18.079  1.00  0.00    -0.003 C 
HETATM   37  C15 UNL     1      33.181  29.758  17.679  1.00  0.00     0.019 C 
HETATM   38  C16 UNL     1      34.249  28.383  19.401  1.00  0.00     0.019 C 
BRANCH  36  39
HETATM   39  C17 UNL     1      32.446  27.374  17.945  1.00  0.00     0.021 C 
BRANCH  39  40
HETATM   40  C18 UNL     1      31.259  27.488  18.807  1.00  0.00    -0.051 C 
HETATM   41  C19 UNL     1      31.522  27.843  20.242  1.00  0.00     0.014 C 
HETATM   42  C20 UNL     1      30.609  26.091  18.843  1.00  0.00     0.014 C 
HETATM   43  C21 UNL     1      30.188  28.408  18.282  1.00  0.00     0.014 C 
ENDBRANCH  39  40
ENDBRANCH  36  39
ENDBRANCH  33  36
ENDBRANCH  31  33
ENDBRANCH   6  31
TORSDOF 15
ENDMDL
MODEL 3
REMARK VINA RESULT: -7.737432829      3.974      8.661
REMARK  15 active torsions:
REMARK  status: ('A' for Active; 'I' for Inactive)
REMARK    1  A    between atoms: C2_2  and  C3_4 
REMARK    2  A    between atoms: C4_5  and  C5_6 
REMARK    3  A    between atoms: C5_6  and  C6_7 
REMARK    4  A    between atoms: C6_7  and  C7_8 
REMARK    5  A    between atoms: C7_8  and  C8_9 
REMARK    6  A    between atoms: C8_9  and  S1_10 
REMARK    7  A    between atoms: S1_10  and  N1_13 
REMARK    8  A    between atoms: N1_13  and  C9_15 
REMARK    9  A    between atoms: C9_15  and  C10_16 
REMARK   10  A    between atoms: C12_23  and  N4_24 
REMARK   11  A    between atoms: N4_24  and  C13_26 
REMARK   12  A    between atoms: C13_26  and  O4_27 
REMARK   13  A    between atoms: C13_26  and  C14_29 
REMARK   14  A    between atoms: C14_29  and  C17_32 
REMARK   15  A    between atoms: C17_32  and  C18_33 
ROOT
HETATM    1  C3  UNL     1      33.742  29.000  11.772  1.00  0.00     0.181 C 
HETATM    2  C4  UNL     1      34.113  28.831  13.240  1.00  0.00     0.141 C 
HETATM    3  N2  UNL     1      35.481  29.315  13.364  1.00  0.00    -0.250 N 
HETATM    4  N3  UNL     1      36.452  28.963  14.193  1.00  0.00    -0.128 N 
ATOM      5  H3  UNL     1      36.368  28.235  14.903  1.00  0.00     0.206 HD
HETATM    6  C12 UNL     1      37.563  29.690  13.975  1.00  0.00     0.696 A 
HETATM    7  N5  UNL     1      37.265  30.531  12.964  1.00  0.00    -0.168 N 
ATOM      8  H5  UNL     1      37.892  31.222  12.551  1.00  0.00     0.186 HD
HETATM    9  C22 UNL     1      35.994  30.295  12.598  1.00  0.00     0.207 A 
HETATM   10  C23 UNL     1      35.189  30.923  11.524  1.00  0.00     0.290 C 
HETATM   11  O5  UNL     1      35.619  31.844  10.789  1.00  0.00    -0.264 OA
HETATM   12  N6  UNL     1      33.844  30.377  11.398  1.00  0.00    -0.336 N 
HETATM   13  C24 UNL     1      32.817  31.263  10.945  1.00  0.00     0.154 C 
ENDROOT
BRANCH   2  14
HETATM   14  C5  UNL     1      33.244  29.639  14.143  1.00  0.00     0.030 C 
BRANCH  14  15
HETATM   15  C6  UNL     1      32.499  28.787  15.145  1.00  0.00     0.003 C 
BRANCH  15  16
HETATM   16  C7  UNL     1      32.355  29.480  16.479  1.00  0.00     0.017 C 
BRANCH  16  17
HETATM   17  C8  UNL     1      33.653  29.970  17.025  1.00  0.00     0.163 C 
BRANCH  17  18
HETATM   18  S1  UNL     1      34.182  28.822  18.276  1.00  0.00     0.226 S 
HETATM   19  O2  UNL     1      34.485  29.626  19.512  1.00  0.00    -0.206 OA
HETATM   20  O3  UNL     1      35.425  28.155  17.765  1.00  0.00    -0.206 OA
BRANCH  18  21
HETATM   21  N1  UNL     1      33.004  27.612  18.570  1.00  0.00    -0.314 N 
ATOM     22  H1  UNL     1      32.910  26.774  17.997  1.00  0.00     0.172 HD
BRANCH  21  23
HETATM   23  C9  UNL     1      32.163  27.891  19.700  1.00  0.00     0.210 C 
BRANCH  23  24
HETATM   24  C10 UNL     1      30.840  27.165  19.447  1.00  0.00     0.256 C 
HETATM   25  C11 UNL     1      29.788  28.161  19.057  1.00  0.00     0.091 C 
HETATM   26  F1  UNL     1      30.496  26.417  20.551  1.00  0.00    -0.205 F 
HETATM   27  F2  UNL     1      31.083  26.336  18.342  1.00  0.00    -0.205 F 
ENDBRANCH  23  24
ENDBRANCH  21  23
ENDBRANCH  18  21
ENDBRANCH  17  18
ENDBRANCH  16  17
ENDBRANCH  15  16
ENDBRANCH  14  15
ENDBRANCH   2  14
BRANCH   1  28
HETATM   28  C2  UNL     1      32.602  28.218  11.358  1.00  0.00     0.147 C 
HETATM   29  C1  UNL     1      31.806  28.459  10.143  1.00  0.00     0.093 C 
HETATM   30  O1  UNL     1      32.190  27.236  12.019  1.00  0.00    -0.296 OA
ENDBRANCH   1  28
BRANCH   6  31
HETATM   31  N4  UNL     1      38.693  29.614  14.594  1.00  0.00    -0.198 N 
ATOM     32  H4  UNL     1      38.699  29.877  15.580  1.00  0.00     0.180 HD
BRANCH  31  33
HETATM   33  C13 UNL     1      39.932  29.197  14.027  1.00  0.00     0.242 C 
BRANCH  33  34
HETATM   34  O4  UNL     1      39.774  28.929  12.673  1.00  0.00    -0.376 OA
ATOM     35  H4  UNL     1      40.362  29.472  12.161  1.00  0.00     0.212 HD
ENDBRANCH  33  34
BRANCH  33  36
HETATM   36  C14 UNL     1      40.988  30.306  14.232  1.00  0.00    -0.003 C 
HETATM   37  C15 UNL     1      40.873  31.158  12.990  1.00  0.00     0.019 C 
HETATM   38  C16 UNL     1      42.313  29.607  14.221  1.00  0.00     0.019 C 
BRANCH  36  39
HETATM   39  C17 UNL     1      40.618  30.997  15.480  1.00  0.00     0.021 C 
BRANCH  39  40
HETATM   40  C18 UNL     1      41.564  31.936  16.103  1.00  0.00    -0.051 C 
HETATM   41  C19 UNL     1      42.791  31.323  16.712  1.00  0.00     0.014 C 
HETATM   42  C20 UNL     1      40.812  32.601  17.274  1.00  0.00     0.014 C 
HETATM   43  C21 UNL     1      41.994  33.075  15.215  1.00  0.00     0.014 C 
ENDBRANCH  39  40
ENDBRANCH  36  39
ENDBRANCH  33  36
ENDBRANCH  31  33
ENDBRANCH   6  31
TORSDOF 15
ENDMDL
MODEL 4
REMARK VINA RESULT: -7.639680823      3.882      8.983
REMARK  15 active torsions:
REMARK  status: ('A' for Active; 'I' for Inactive)
REMARK    1  A    between atoms: C2_2  and  C3_4 
REMARK    2  A    between atoms: C4_5  and  C5_6 
REMARK    3  A    between atoms: C5_6  and  C6_7 
REMARK    4  A    between atoms: C6_7  and  C7_8 
REMARK    5  A    between atoms: C7_8  and  C8_9 
REMARK    6  A    between atoms: C8_9  and  S1_10 
REMARK    7  A    between atoms: S1_10  and  N1_13 
REMARK    8  A    between atoms: N1_13  and  C9_15 
REMARK    9  A    between atoms: C9_15  and  C10_16 
REMARK   10  A    between atoms: C12_23  and  N4_24 
REMARK   11  A    between atoms: N4_24  and  C13_26 
REMARK   12  A    between atoms: C13_26  and  O4_27 
REMARK   13  A    between atoms: C13_26  and  C14_29 
REMARK   14  A    between atoms: C14_29  and  C17_32 
REMARK   15  A    between atoms: C17_32  and  C18_33 
ROOT
HETATM    1  C3  UNL     1      34.794  29.542  13.263  1.00  0.00     0.181 C 
HETATM    2  C4  UNL     1      35.711  28.752  14.190  1.00  0.00     0.141 C 
HETATM    3  N2  UNL     1      37.016  29.394  14.103  1.00  0.00    -0.250 N 
HETATM    4  N3  UNL     1      38.234  28.896  14.240  1.00  0.00    -0.128 N 
ATOM      5  H3  UNL     1      38.440  27.914  14.425  1.00  0.00     0.206 HD
HETATM    6  C12 UNL     1      39.168  29.855  14.103  1.00  0.00     0.696 A 
HETATM    7  N5  UNL     1      38.494  31.000  13.870  1.00  0.00    -0.168 N 
ATOM      8  H5  UNL     1      38.905  31.922  13.719  1.00  0.00     0.186 HD
HETATM    9  C22 UNL     1      37.182  30.708  13.872  1.00  0.00     0.207 A 
HETATM   10  C23 UNL     1      36.018  31.595  13.640  1.00  0.00     0.290 C 
HETATM   11  O5  UNL     1      36.121  32.826  13.428  1.00  0.00    -0.264 OA
HETATM   12  N6  UNL     1      34.733  30.907  13.685  1.00  0.00    -0.336 N 
HETATM   13  C24 UNL     1      33.606  31.656  14.146  1.00  0.00     0.154 C 
ENDROOT
BRANCH   2  14
HETATM   14  C5  UNL     1      35.258  28.796  15.610  1.00  0.00     0.030 C 
BRANCH  14  15
HETATM   15  C6  UNL     1      36.024  27.838  16.493  1.00  0.00     0.003 C 
BRANCH  15  16
HETATM   16  C7  UNL     1      35.182  27.331  17.639  1.00  0.00     0.017 C 
BRANCH  16  17
HETATM   17  C8  UNL     1      33.720  27.525  17.420  1.00  0.00     0.163 C 
BRANCH  17  18
HETATM   18  S1  UNL     1      33.152  28.734  18.593  1.00  0.00     0.226 S 
HETATM   19  O2  UNL     1      32.464  29.819  17.810  1.00  0.00    -0.206 OA
HETATM   20  O3  UNL     1      34.366  29.278  19.288  1.00  0.00    -0.206 OA
BRANCH  18  21
HETATM   21  N1  UNL     1      32.122  28.042  19.775  1.00  0.00    -0.314 N 
ATOM     22  H1  UNL     1      32.464  27.639  20.647  1.00  0.00     0.172 HD
BRANCH  21  23
HETATM   23  C9  UNL     1      30.731  28.083  19.420  1.00  0.00     0.210 C 
BRANCH  23  24
HETATM   24  C10 UNL     1      30.226  26.639  19.469  1.00  0.00     0.256 C 
HETATM   25  C11 UNL     1      28.796  26.592  19.021  1.00  0.00     0.091 C 
HETATM   26  F1  UNL     1      30.417  26.118  20.730  1.00  0.00    -0.205 F 
HETATM   27  F2  UNL     1      31.000  25.950  18.525  1.00  0.00    -0.205 F 
ENDBRANCH  23  24
ENDBRANCH  21  23
ENDBRANCH  18  21
ENDBRANCH  17  18
ENDBRANCH  16  17
ENDBRANCH  15  16
ENDBRANCH  14  15
ENDBRANCH   2  14
BRANCH   1  28
HETATM   28  C2  UNL     1      33.589  28.843  12.890  1.00  0.00     0.147 C 
HETATM   29  C1  UNL     1      33.180  28.539  11.508  1.00  0.00     0.093 C 
HETATM   30  O1  UNL     1      32.770  28.421  13.740  1.00  0.00    -0.296 OA
ENDBRANCH   1  28
BRANCH   6  31
HETATM   31  N4  UNL     1      40.450  29.729  14.174  1.00  0.00    -0.198 N 
ATOM     32  H4  UNL     1      40.964  29.712  13.293  1.00  0.00     0.180 HD
BRANCH  31  33
HETATM   33  C13 UNL     1      41.214  29.612  15.372  1.00  0.00     0.242 C 
BRANCH  33  34
HETATM   34  O4  UNL     1      41.952  28.436  15.358  1.00  0.00    -0.376 OA
ATOM     35  H4  UNL     1      42.480  28.371  16.145  1.00  0.00     0.212 HD
ENDBRANCH  33  34
BRANCH  33  36
HETATM   36  C14 UNL     1      42.154  30.832  15.500  1.00  0.00    -0.003 C 
HETATM   37  C15 UNL     1      42.452  31.218  14.071  1.00  0.00     0.019 C 
HETATM   38  C16 UNL     1      43.407  30.309  16.133  1.00  0.00     0.019 C 
BRANCH  36  39
HETATM   39  C17 UNL     1      41.406  31.847  16.262  1.00  0.00     0.021 C 
BRANCH  39  40
HETATM   40  C18 UNL     1      42.109  33.023  16.799  1.00  0.00    -0.051 C 
HETATM   41  C19 UNL     1      42.748  32.847  18.146  1.00  0.00     0.014 C 
HETATM   42  C20 UNL     1      41.042  34.119  16.991  1.00  0.00     0.014 C 
HETATM   43  C21 UNL     1      43.128  33.624  15.866  1.00  0.00     0.014 C 
ENDBRANCH  39  40
ENDBRANCH  36  39
ENDBRANCH  33  36
ENDBRANCH  31  33
ENDBRANCH   6  31
TORSDOF 15
ENDMDL
MODEL 5
REMARK VINA RESULT: -7.517200506      4.010      8.797
REMARK  15 active torsions:
REMARK  status: ('A' for Active; 'I' for Inactive)
REMARK    1  A    between atoms: C2_2  and  C3_4 
REMARK    2  A    between atoms: C4_5  and  C5_6 
REMARK    3  A    between atoms: C5_6  and  C6_7 
REMARK    4  A    between atoms: C6_7  and  C7_8 
REMARK    5  A    between atoms: C7_8  and  C8_9 
REMARK    6  A    between atoms: C8_9  and  S1_10 
REMARK    7  A    between atoms: S1_10  and  N1_13 
REMARK    8  A    between atoms: N1_13  and  C9_15 
REMARK    9  A    between atoms: C9_15  and  C10_16 
REMARK   10  A    between atoms: C12_23  and  N4_24 
REMARK   11  A    between atoms: N4_24  and  C13_26 
REMARK   12  A    between atoms: C13_26  and  O4_27 
REMARK   13  A    between atoms: C13_26  and  C14_29 
REMARK   14  A    between atoms: C14_29  and  C17_32 
REMARK   15  A    between atoms: C17_32  and  C18_33 
ROOT
HETATM    1  C3  UNL     1      33.949  29.093  11.682  1.00  0.00     0.181 C 
HETATM    2  C4  UNL     1      34.355  29.221  13.146  1.00  0.00     0.141 C 
HETATM    3  N2  UNL     1      35.656  29.877  13.142  1.00  0.00    -0.250 N 
HETATM    4  N3  UNL     1      36.671  29.788  13.987  1.00  0.00    -0.128 N 
ATOM      5  H3  UNL     1      36.685  29.188  14.811  1.00  0.00     0.206 HD
HETATM    6  C12 UNL     1      37.684  30.593  13.615  1.00  0.00     0.696 A 
HETATM    7  N5  UNL     1      37.274  31.208  12.486  1.00  0.00    -0.168 N 
ATOM      8  H5  UNL     1      37.808  31.887  11.943  1.00  0.00     0.186 HD
HETATM    9  C22 UNL     1      36.037  30.765  12.206  1.00  0.00     0.207 A 
HETATM   10  C23 UNL     1      35.150  31.101  11.068  1.00  0.00     0.290 C 
HETATM   11  O5  UNL     1      35.456  31.927  10.176  1.00  0.00    -0.264 OA
HETATM   12  N6  UNL     1      33.879  30.387  11.079  1.00  0.00    -0.336 N 
HETATM   13  C24 UNL     1      32.747  31.056  10.516  1.00  0.00     0.154 C 
ENDROOT
BRANCH   2  14
HETATM   14  C5  UNL     1      33.406  30.064  13.927  1.00  0.00     0.030 C 
BRANCH  14  15
HETATM   15  C6  UNL     1      32.909  29.372  15.176  1.00  0.00     0.003 C 
BRANCH  15  16
HETATM   16  C7  UNL     1      33.928  29.420  16.290  1.00  0.00     0.017 C 
BRANCH  16  17
HETATM   17  C8  UNL     1      33.357  29.895  17.583  1.00  0.00     0.163 C 
BRANCH  17  18
HETATM   18  S1  UNL     1      33.965  28.828  18.869  1.00  0.00     0.226 S 
HETATM   19  O2  UNL     1      34.632  29.707  19.892  1.00  0.00    -0.206 OA
HETATM   20  O3  UNL     1      34.967  27.904  18.238  1.00  0.00    -0.206 OA
BRANCH  18  21
HETATM   21  N1  UNL     1      32.715  27.877  19.555  1.00  0.00    -0.314 N 
ATOM     22  H1  UNL     1      32.645  27.684  20.554  1.00  0.00     0.172 HD
BRANCH  21  23
HETATM   23  C9  UNL     1      31.777  27.379  18.589  1.00  0.00     0.210 C 
BRANCH  23  24
HETATM   24  C10 UNL     1      30.575  26.856  19.380  1.00  0.00     0.256 C 
HETATM   25  C11 UNL     1      30.331  25.418  19.030  1.00  0.00     0.091 C 
HETATM   26  F1  UNL     1      29.480  27.662  19.157  1.00  0.00    -0.205 F 
HETATM   27  F2  UNL     1      30.969  26.914  20.724  1.00  0.00    -0.205 F 
ENDBRANCH  23  24
ENDBRANCH  21  23
ENDBRANCH  18  21
ENDBRANCH  17  18
ENDBRANCH  16  17
ENDBRANCH  15  16
ENDBRANCH  14  15
ENDBRANCH   2  14
BRANCH   1  28
HETATM   28  C2  UNL     1      32.908  28.123  11.443  1.00  0.00     0.147 C 
HETATM   29  C1  UNL     1      32.544  27.580  10.123  1.00  0.00     0.093 C 
HETATM   30  O1  UNL     1      32.211  27.647  12.370  1.00  0.00    -0.296 OA
ENDBRANCH   1  28
BRANCH   6  31
HETATM   31  N4  UNL     1      38.821  30.757  14.201  1.00  0.00    -0.198 N 
ATOM     32  H4  UNL     1      39.149  31.716  14.315  1.00  0.00     0.180 HD
BRANCH  31  33
HETATM   33  C13 UNL     1      39.662  29.722  14.703  1.00  0.00     0.242 C 
BRANCH  33  34
HETATM   34  O4  UNL     1      39.716  28.667  13.801  1.00  0.00    -0.376 OA
ATOM     35  H4  UNL     1      40.619  28.421  13.637  1.00  0.00     0.212 HD
ENDBRANCH  33  34
BRANCH  33  36
HETATM   36  C14 UNL     1      41.079  30.287  14.949  1.00  0.00    -0.003 C 
HETATM   37  C15 UNL     1      41.481  30.866  13.613  1.00  0.00     0.019 C 
HETATM   38  C16 UNL     1      41.941  29.098  15.242  1.00  0.00     0.019 C 
BRANCH  36  39
HETATM   39  C17 UNL     1      40.940  31.282  16.027  1.00  0.00     0.021 C 
BRANCH  39  40
HETATM   40  C18 UNL     1      42.057  32.191  16.330  1.00  0.00    -0.051 C 
HETATM   41  C19 UNL     1      43.434  31.613  16.174  1.00  0.00     0.014 C 
HETATM   42  C20 UNL     1      41.931  32.555  17.823  1.00  0.00     0.014 C 
HETATM   43  C21 UNL     1      42.011  33.508  15.599  1.00  0.00     0.014 C 
ENDBRANCH  39  40
ENDBRANCH  36  39
ENDBRANCH  33  36
ENDBRANCH  31  33
ENDBRANCH   6  31
TORSDOF 15
ENDMDL
