MODEL 1
REMARK VINA RESULT: -2.661611774      0.000      0.000
REMARK  1 active torsions:
REMARK  status: ('A' for Active; 'I' for Inactive)
REMARK    1  A    between atoms: C2_2  and  C3_3 
ROOT
HETATM    1  C1  UNL     1       4.997  21.865  22.790  1.00  0.00     0.023 C 
HETATM    2  C2  UNL     1       5.888  20.988  21.994  1.00  0.00     0.014 C 
HETATM    3  C4  UNL     1       6.805  21.792  21.102  1.00  0.00     0.016 C 
HETATM    4  C5  UNL     1       6.135  22.391  19.924  1.00  0.00     0.002 C 
HETATM    5  C6  UNL     1       4.770  21.824  19.690  1.00  0.00     0.010 C 
HETATM    6  C7  UNL     1       4.737  20.298  19.855  1.00  0.00    -0.033 C 
HETATM    7  C8  UNL     1       5.691  19.772  18.768  1.00  0.00     0.016 C 
HETATM    8  C9  UNL     1       5.212  19.906  21.215  1.00  0.00     0.009 C 
HETATM    9  C10 UNL     1       4.173  19.185  22.039  1.00  0.00     0.009 C 
HETATM   10  C11 UNL     1       3.723  18.018  21.190  1.00  0.00     0.038 C 
HETATM   11  C12 UNL     1       2.947  18.506  19.953  1.00  0.00     0.062 C 
HETATM   12  C13 UNL     1       3.333  17.473  18.877  1.00  0.00     0.046 C 
HETATM   13  O2  UNL     1       1.647  18.303  20.234  1.00  0.00    -0.374 OA
HETATM   14  C14 UNL     1       0.688  19.061  19.697  1.00  0.00     0.127 A 
HETATM   15  C15 UNL     1       0.689  19.679  18.365  1.00  0.00     0.039 A 
HETATM   16  C16 UNL     1       0.934  20.502  19.567  1.00  0.00     0.017 A 
HETATM   17  C17 UNL     1       2.341  20.949  19.837  1.00  0.00     0.015 C 
HETATM   18  C18 UNL     1       3.354  19.859  19.499  1.00  0.00     0.029 C 
ENDROOT
BRANCH   2  19
HETATM   19  C3  UNL     1       6.816  20.303  22.977  1.00  0.00     0.240 C 
HETATM   20  O1  UNL     1       7.661  19.526  22.643  1.00  0.00    -0.306 OA
ENDBRANCH   2  19
TORSDOF 1
ENDMDL
MODEL 2
REMARK VINA RESULT: -0.945855481      1.091      1.267
REMARK  1 active torsions:
REMARK  status: ('A' for Active; 'I' for Inactive)
REMARK    1  A    between atoms: C2_2  and  C3_3 
ROOT
HETATM    1  C1  UNL     1       4.419  21.996  22.589  1.00  0.00     0.023 C 
HETATM    2  C2  UNL     1       5.596  21.370  21.942  1.00  0.00     0.014 C 
HETATM    3  C4  UNL     1       6.176  22.259  20.867  1.00  0.00     0.016 C 
HETATM    4  C5  UNL     1       5.368  22.317  19.625  1.00  0.00     0.002 C 
HETATM    5  C6  UNL     1       4.320  21.250  19.572  1.00  0.00     0.010 C 
HETATM    6  C7  UNL     1       4.852  19.887  20.038  1.00  0.00    -0.033 C 
HETATM    7  C8  UNL     1       5.966  19.545  19.034  1.00  0.00     0.016 C 
HETATM    8  C9  UNL     1       5.396  19.982  21.425  1.00  0.00     0.009 C 
HETATM    9  C10 UNL     1       4.675  19.110  22.424  1.00  0.00     0.009 C 
HETATM   10  C11 UNL     1       4.718  17.713  21.844  1.00  0.00     0.038 C 
HETATM   11  C12 UNL     1       3.855  17.620  20.573  1.00  0.00     0.062 C 
HETATM   12  C13 UNL     1       4.631  16.609  19.706  1.00  0.00     0.046 C 
HETATM   13  O2  UNL     1       2.715  17.010  20.949  1.00  0.00    -0.374 OA
HETATM   14  C14 UNL     1       1.560  17.234  20.318  1.00  0.00     0.127 A 
HETATM   15  C15 UNL     1       1.374  17.527  18.891  1.00  0.00     0.039 A 
HETATM   16  C16 UNL     1       1.257  18.605  19.893  1.00  0.00     0.017 A 
HETATM   17  C17 UNL     1       2.387  19.586  20.004  1.00  0.00     0.015 C 
HETATM   18  C18 UNL     1       3.743  18.906  19.842  1.00  0.00     0.029 C 
ENDROOT
BRANCH   2  19
HETATM   19  C3  UNL     1       6.681  21.290  22.997  1.00  0.00     0.240 C 
HETATM   20  O1  UNL     1       7.537  20.456  22.991  1.00  0.00    -0.306 OA
ENDBRANCH   2  19
TORSDOF 1
ENDMDL
MODEL 3
REMARK VINA RESULT: -0.795796925      1.830      2.691
REMARK  1 active torsions:
REMARK  status: ('A' for Active; 'I' for Inactive)
REMARK    1  A    between atoms: C2_2  and  C3_3 
ROOT
HETATM    1  C1  UNL     1       4.307  21.507  22.575  1.00  0.00     0.023 C 
HETATM    2  C2  UNL     1       5.339  21.224  21.549  1.00  0.00     0.014 C 
HETATM    3  C4  UNL     1       5.110  22.034  20.294  1.00  0.00     0.016 C 
HETATM    4  C5  UNL     1       3.977  21.560  19.464  1.00  0.00     0.002 C 
HETATM    5  C6  UNL     1       3.494  20.203  19.871  1.00  0.00     0.010 C 
HETATM    6  C7  UNL     1       4.651  19.234  20.154  1.00  0.00    -0.033 C 
HETATM    7  C8  UNL     1       5.394  19.120  18.811  1.00  0.00     0.016 C 
HETATM    8  C9  UNL     1       5.548  19.783  21.214  1.00  0.00     0.009 C 
HETATM    9  C10 UNL     1       5.624  18.923  22.452  1.00  0.00     0.009 C 
HETATM   10  C11 UNL     1       6.023  17.547  21.965  1.00  0.00     0.038 C 
HETATM   11  C12 UNL     1       4.894  16.911  21.136  1.00  0.00     0.062 C 
HETATM   12  C13 UNL     1       5.663  16.091  20.082  1.00  0.00     0.046 C 
HETATM   13  O2  UNL     1       4.296  16.024  21.952  1.00  0.00    -0.374 OA
HETATM   14  C14 UNL     1       3.009  15.698  21.812  1.00  0.00     0.127 A 
HETATM   15  C15 UNL     1       2.247  15.623  20.559  1.00  0.00     0.039 A 
HETATM   16  C16 UNL     1       2.057  16.763  21.478  1.00  0.00     0.017 A 
HETATM   17  C17 UNL     1       2.663  18.082  21.095  1.00  0.00     0.015 C 
HETATM   18  C18 UNL     1       4.034  17.907  20.449  1.00  0.00     0.029 C 
ENDROOT
BRANCH   2  19
HETATM   19  C3  UNL     1       6.653  21.739  22.101  1.00  0.00     0.240 C 
HETATM   20  O1  UNL     1       7.661  21.771  21.460  1.00  0.00    -0.306 OA
ENDBRANCH   2  19
TORSDOF 1
ENDMDL
MODEL 4
REMARK VINA RESULT: -0.061701990      1.601      5.070
REMARK  1 active torsions:
REMARK  status: ('A' for Active; 'I' for Inactive)
REMARK    1  A    between atoms: C2_2  and  C3_3 
ROOT
HETATM    1  C1  UNL     1       4.720  16.432  20.519  1.00  0.00     0.023 C 
HETATM    2  C2  UNL     1       3.561  17.232  20.980  1.00  0.00     0.014 C 
HETATM    3  C4  UNL     1       2.519  17.375  19.896  1.00  0.00     0.016 C 
HETATM    4  C5  UNL     1       2.895  18.314  18.813  1.00  0.00     0.002 C 
HETATM    5  C6  UNL     1       4.078  19.158  19.169  1.00  0.00     0.010 C 
HETATM    6  C7  UNL     1       4.002  19.690  20.608  1.00  0.00    -0.033 C 
HETATM    7  C8  UNL     1       2.737  20.566  20.627  1.00  0.00     0.016 C 
HETATM    8  C9  UNL     1       3.884  18.562  21.579  1.00  0.00     0.009 C 
HETATM    9  C10 UNL     1       5.032  18.476  22.555  1.00  0.00     0.009 C 
HETATM   10  C11 UNL     1       5.111  19.839  23.207  1.00  0.00     0.038 C 
HETATM   11  C12 UNL     1       5.560  20.906  22.194  1.00  0.00     0.062 C 
HETATM   12  C13 UNL     1       4.790  22.160  22.653  1.00  0.00     0.046 C 
HETATM   13  O2  UNL     1       6.860  21.135  22.455  1.00  0.00    -0.374 OA
HETATM   14  C14 UNL     1       7.705  21.543  21.506  1.00  0.00     0.127 A 
HETATM   15  C15 UNL     1       7.398  22.409  20.360  1.00  0.00     0.039 A 
HETATM   16  C16 UNL     1       7.579  20.956  20.166  1.00  0.00     0.017 A 
HETATM   17  C17 UNL     1       6.353  20.121  19.935  1.00  0.00     0.015 C 
HETATM   18  C18 UNL     1       5.181  20.587  20.795  1.00  0.00     0.029 C 
ENDROOT
BRANCH   2  19
HETATM   19  C3  UNL     1       2.877  16.421  22.063  1.00  0.00     0.240 C 
HETATM   20  O1  UNL     1       2.529  15.288  21.907  1.00  0.00    -0.306 OA
ENDBRANCH   2  19
TORSDOF 1
ENDMDL
MODEL 5
REMARK VINA RESULT: 0.234203976      1.454      5.346
REMARK  1 active torsions:
REMARK  status: ('A' for Active; 'I' for Inactive)
REMARK    1  A    between atoms: C2_2  and  C3_3 
ROOT
HETATM    1  C1  UNL     1       0.611  19.482  20.443  1.00  0.00     0.023 C 
HETATM    2  C2  UNL     1       1.428  19.059  19.281  1.00  0.00     0.014 C 
HETATM    3  C4  UNL     1       1.436  17.556  19.126  1.00  0.00     0.016 C 
HETATM    4  C5  UNL     1       2.268  16.847  20.126  1.00  0.00     0.002 C 
HETATM    5  C6  UNL     1       3.170  17.771  20.881  1.00  0.00     0.010 C 
HETATM    6  C7  UNL     1       3.844  18.804  19.967  1.00  0.00    -0.033 C 
HETATM    7  C8  UNL     1       4.689  17.962  18.994  1.00  0.00     0.016 C 
HETATM    8  C9  UNL     1       2.819  19.601  19.229  1.00  0.00     0.009 C 
HETATM    9  C10 UNL     1       2.859  21.078  19.536  1.00  0.00     0.009 C 
HETATM   10  C11 UNL     1       4.283  21.509  19.261  1.00  0.00     0.038 C 
HETATM   11  C12 UNL     1       5.251  20.888  20.283  1.00  0.00     0.062 C 
HETATM   12  C13 UNL     1       6.528  20.659  19.450  1.00  0.00     0.046 C 
HETATM   13  O2  UNL     1       5.535  21.867  21.161  1.00  0.00    -0.374 OA
HETATM   14  C14 UNL     1       5.862  21.601  22.427  1.00  0.00     0.127 A 
HETATM   15  C15 UNL     1       6.600  20.432  22.923  1.00  0.00     0.039 A 
HETATM   16  C16 UNL     1       5.140  20.527  23.120  1.00  0.00     0.017 A 
HETATM   17  C17 UNL     1       4.258  19.674  22.255  1.00  0.00     0.015 C 
HETATM   18  C18 UNL     1       4.782  19.588  20.825  1.00  0.00     0.029 C 
ENDROOT
BRANCH   2  19
HETATM   19  C3  UNL     1       0.716  19.566  18.042  1.00  0.00     0.240 C 
HETATM   20  O1  UNL     1       0.399  18.855  17.135  1.00  0.00    -0.306 OA
ENDBRANCH   2  19
TORSDOF 1
ENDMDL
