MODEL 1
REMARK VINA RESULT: -6.396594134      0.000      0.000
REMARK  3 active torsions:
REMARK  status: ('A' for Active; 'I' for Inactive)
REMARK    1  A    between atoms: N1_3  and  O1_5 
REMARK    2  A    between atoms: O1_5  and  C3_6 
REMARK    3  A    between atoms: C7_10  and  N2_11 
ROOT
HETATM    1  C3  UNL     1      52.391  22.251  28.199  1.00  0.00     0.154 C 
HETATM    2  C4  UNL     1      51.153  22.902  28.724  1.00  0.00     0.034 C 
HETATM    3  C5  UNL     1      51.001  22.883  30.194  1.00  0.00     0.005 C 
HETATM    4  C6  UNL     1      51.386  21.632  30.884  1.00  0.00     0.033 C 
HETATM    5  C7  UNL     1      52.413  20.806  30.159  1.00  0.00     0.186 C 
HETATM    6  C8  UNL     1      53.274  21.679  29.281  1.00  0.00     0.067 C 
ENDROOT
BRANCH   1   7
HETATM    7  O1  UNL     1      53.178  23.146  27.446  1.00  0.00    -0.276 OA
BRANCH   7   8
HETATM    8  N1  UNL     1      53.795  22.743  26.313  1.00  0.00    -0.282 N 
HETATM    9  C2  UNL     1      55.063  22.696  26.221  1.00  0.00     0.082 C 
HETATM   10  C1  UNL     1      55.899  23.094  27.382  1.00  0.00     0.057 C 
ATOM     11  H1  UNL     1      53.229  22.468  25.511  1.00  0.00     0.193 HD
ENDBRANCH   7   8
ENDBRANCH   1   7
BRANCH   5  12
HETATM   12  N2  UNL     1      53.196  20.047  31.103  1.00  0.00    -0.075 N 
ATOM     13  H23 UNL     1      53.909  20.620  31.556  1.00  0.00     0.274 HD
ATOM     14  H22 UNL     1      52.658  19.796  31.932  1.00  0.00     0.274 HD
ATOM     15  H21 UNL     1      53.599  19.227  30.647  1.00  0.00     0.274 HD
ENDBRANCH   5  12
TORSDOF 3
ENDMDL
MODEL 2
REMARK VINA RESULT: -5.995071593      1.296      1.481
REMARK  3 active torsions:
REMARK  status: ('A' for Active; 'I' for Inactive)
REMARK    1  A    between atoms: N1_3  and  O1_5 
REMARK    2  A    between atoms: O1_5  and  C3_6 
REMARK    3  A    between atoms: C7_10  and  N2_11 
ROOT
HETATM    1  C3  UNL     1      52.496  21.609  29.102  1.00  0.00     0.154 C 
HETATM    2  C4  UNL     1      51.304  22.218  28.439  1.00  0.00     0.034 C 
HETATM    3  C5  UNL     1      50.507  23.133  29.284  1.00  0.00     0.005 C 
HETATM    4  C6  UNL     1      50.295  22.723  30.689  1.00  0.00     0.033 C 
HETATM    5  C7  UNL     1      51.360  21.819  31.246  1.00  0.00     0.186 C 
HETATM    6  C8  UNL     1      52.672  22.042  30.537  1.00  0.00     0.067 C 
ENDROOT
BRANCH   1   7
HETATM    7  O1  UNL     1      53.692  21.920  28.422  1.00  0.00    -0.276 OA
BRANCH   7   8
HETATM    8  N1  UNL     1      53.664  22.537  27.219  1.00  0.00    -0.282 N 
HETATM    9  C2  UNL     1      54.722  22.984  26.672  1.00  0.00     0.082 C 
HETATM   10  C1  UNL     1      56.028  22.831  27.363  1.00  0.00     0.057 C 
ATOM     11  H1  UNL     1      52.772  22.646  26.738  1.00  0.00     0.193 HD
ENDBRANCH   7   8
ENDBRANCH   1   7
BRANCH   5  12
HETATM   12  N2  UNL     1      51.475  22.006  32.672  1.00  0.00    -0.075 N 
ATOM     13  H23 UNL     1      51.798  22.944  32.909  1.00  0.00     0.274 HD
ATOM     14  H22 UNL     1      50.563  22.042  33.127  1.00  0.00     0.274 HD
ATOM     15  H21 UNL     1      52.074  21.284  33.074  1.00  0.00     0.274 HD
ENDBRANCH   5  12
TORSDOF 3
ENDMDL
MODEL 3
REMARK VINA RESULT: -5.959323682      2.905      5.292
REMARK  3 active torsions:
REMARK  status: ('A' for Active; 'I' for Inactive)
REMARK    1  A    between atoms: N1_3  and  O1_5 
REMARK    2  A    between atoms: O1_5  and  C3_6 
REMARK    3  A    between atoms: C7_10  and  N2_11 
ROOT
HETATM    1  C3  UNL     1      51.476  22.551  31.365  1.00  0.00     0.154 C 
HETATM    2  C4  UNL     1      50.660  23.173  30.278  1.00  0.00     0.034 C 
HETATM    3  C5  UNL     1      50.623  22.423  29.005  1.00  0.00     0.005 C 
HETATM    4  C6  UNL     1      51.895  21.813  28.557  1.00  0.00     0.033 C 
HETATM    5  C7  UNL     1      52.862  21.494  29.663  1.00  0.00     0.186 C 
HETATM    6  C8  UNL     1      52.127  21.251  30.959  1.00  0.00     0.067 C 
ENDROOT
BRANCH   1   7
HETATM    7  O1  UNL     1      50.706  22.291  32.517  1.00  0.00    -0.276 OA
BRANCH   7   8
HETATM    8  N1  UNL     1      49.528  22.923  32.720  1.00  0.00    -0.282 N 
HETATM    9  C2  UNL     1      48.501  22.304  33.144  1.00  0.00     0.082 C 
HETATM   10  C1  UNL     1      48.585  20.847  33.427  1.00  0.00     0.057 C 
ATOM     11  H1  UNL     1      49.461  23.922  32.529  1.00  0.00     0.193 HD
ENDBRANCH   7   8
ENDBRANCH   1   7
BRANCH   5  12
HETATM   12  N2  UNL     1      53.689  20.372  29.292  1.00  0.00    -0.075 N 
ATOM     13  H23 UNL     1      54.545  20.329  29.846  1.00  0.00     0.274 HD
ATOM     14  H22 UNL     1      53.280  19.484  29.580  1.00  0.00     0.274 HD
ATOM     15  H21 UNL     1      53.885  20.396  28.291  1.00  0.00     0.274 HD
ENDBRANCH   5  12
TORSDOF 3
ENDMDL
MODEL 4
REMARK VINA RESULT: -5.910512424      2.770      4.998
REMARK  3 active torsions:
REMARK  status: ('A' for Active; 'I' for Inactive)
REMARK    1  A    between atoms: N1_3  and  O1_5 
REMARK    2  A    between atoms: O1_5  and  C3_6 
REMARK    3  A    between atoms: C7_10  and  N2_11 
ROOT
HETATM    1  C3  UNL     1      51.001  22.816  30.479  1.00  0.00     0.154 C 
HETATM    2  C4  UNL     1      51.102  23.010  29.000  1.00  0.00     0.034 C 
HETATM    3  C5  UNL     1      51.673  21.871  28.249  1.00  0.00     0.005 C 
HETATM    4  C6  UNL     1      52.827  21.180  28.867  1.00  0.00     0.033 C 
HETATM    5  C7  UNL     1      52.890  21.282  30.366  1.00  0.00     0.186 C 
HETATM    6  C8  UNL     1      51.510  21.474  30.945  1.00  0.00     0.067 C 
ENDROOT
BRANCH   1   7
HETATM    7  O1  UNL     1      49.673  22.941  30.936  1.00  0.00    -0.276 OA
BRANCH   7   8
HETATM    8  N1  UNL     1      49.392  23.624  32.068  1.00  0.00    -0.282 N 
HETATM    9  C2  UNL     1      48.949  23.042  33.109  1.00  0.00     0.082 C 
HETATM   10  C1  UNL     1      48.731  21.572  33.092  1.00  0.00     0.057 C 
ATOM     11  H1  UNL     1      49.539  24.633  32.089  1.00  0.00     0.193 HD
ENDBRANCH   7   8
ENDBRANCH   1   7
BRANCH   5  12
HETATM   12  N2  UNL     1      53.552  20.124  30.916  1.00  0.00    -0.075 N 
ATOM     13  H23 UNL     1      54.412  19.902  30.414  1.00  0.00     0.274 HD
ATOM     14  H22 UNL     1      53.958  20.316  31.831  1.00  0.00     0.274 HD
ATOM     15  H21 UNL     1      52.910  19.331  30.941  1.00  0.00     0.274 HD
ENDBRANCH   5  12
TORSDOF 3
ENDMDL
MODEL 5
REMARK VINA RESULT: -5.816995389      3.037      4.925
REMARK  3 active torsions:
REMARK  status: ('A' for Active; 'I' for Inactive)
REMARK    1  A    between atoms: N1_3  and  O1_5 
REMARK    2  A    between atoms: O1_5  and  C3_6 
REMARK    3  A    between atoms: C7_10  and  N2_11 
ROOT
HETATM    1  C3  UNL     1      51.924  22.408  31.137  1.00  0.00     0.154 C 
HETATM    2  C4  UNL     1      51.371  23.175  29.980  1.00  0.00     0.034 C 
HETATM    3  C5  UNL     1      50.884  22.354  28.850  1.00  0.00     0.005 C 
HETATM    4  C6  UNL     1      51.703  21.178  28.483  1.00  0.00     0.033 C 
HETATM    5  C7  UNL     1      52.527  20.612  29.607  1.00  0.00     0.186 C 
HETATM    6  C8  UNL     1      51.888  20.912  30.940  1.00  0.00     0.067 C 
ENDROOT
BRANCH   1   7
HETATM    7  O1  UNL     1      51.231  22.689  32.333  1.00  0.00    -0.276 OA
BRANCH   7   8
HETATM    8  N1  UNL     1      50.101  22.018  32.652  1.00  0.00    -0.282 N 
HETATM    9  C2  UNL     1      48.981  22.610  32.765  1.00  0.00     0.082 C 
HETATM   10  C1  UNL     1      48.898  24.076  32.543  1.00  0.00     0.057 C 
ATOM     11  H1  UNL     1      50.148  21.011  32.807  1.00  0.00     0.193 HD
ENDBRANCH   7   8
ENDBRANCH   1   7
BRANCH   5  12
HETATM   12  N2  UNL     1      52.731  19.198  29.410  1.00  0.00    -0.075 N 
ATOM     13  H23 UNL     1      51.869  18.667  29.538  1.00  0.00     0.274 HD
ATOM     14  H22 UNL     1      52.903  18.970  28.431  1.00  0.00     0.274 HD
ATOM     15  H21 UNL     1      53.479  18.862  30.017  1.00  0.00     0.274 HD
ENDBRANCH   5  12
TORSDOF 3
ENDMDL
