MODEL 1
REMARK VINA RESULT: -6.227571541      0.000      0.000
REMARK  3 active torsions:
REMARK  status: ('A' for Active; 'I' for Inactive)
REMARK    1  A    between atoms: C2_2  and  C3_3 
REMARK    2  A    between atoms: C4_4  and  N1_5 
REMARK    3  A    between atoms: N2_10  and  O1_12 
ROOT
HETATM    1  C3  UNL     1      51.621  22.609  29.095  1.00  0.00     0.043 C 
HETATM    2  C4  UNL     1      51.544  22.520  30.419  1.00  0.00     0.087 C 
ENDROOT
BRANCH   1   3
HETATM    3  C2  UNL     1      52.877  22.502  28.381  1.00  0.00     0.029 C 
HETATM    4  C1  UNL     1      53.064  23.231  27.115  1.00  0.00     0.070 C 
HETATM    5  N2  UNL     1      53.815  21.777  28.850  1.00  0.00    -0.274 N 
ATOM      6  H2  UNL     1      53.684  21.273  29.727  1.00  0.00     0.193 HD
BRANCH   5   7
HETATM    7  O1  UNL     1      54.999  21.680  28.169  1.00  0.00    -0.290 OA
ATOM      8  H1  UNL     1      55.727  22.239  28.412  1.00  0.00     0.244 HD
ENDBRANCH   5   7
ENDBRANCH   1   3
BRANCH   2   9
HETATM    9  N1  UNL     1      50.324  22.626  31.097  1.00  0.00    -0.390 N 
HETATM   10  C5  UNL     1      49.858  21.787  32.159  1.00  0.00     0.122 C 
HETATM   11  C6  UNL     1      49.198  22.790  33.094  1.00  0.00     0.021 C 
HETATM   12  C7  UNL     1      48.994  24.051  32.280  1.00  0.00     0.021 C 
HETATM   13  C8  UNL     1      49.290  23.595  30.868  1.00  0.00     0.122 C 
ENDBRANCH   2   9
TORSDOF 3
ENDMDL
MODEL 2
REMARK VINA RESULT: -6.184547626      2.372      3.390
REMARK  3 active torsions:
REMARK  status: ('A' for Active; 'I' for Inactive)
REMARK    1  A    between atoms: C2_2  and  C3_3 
REMARK    2  A    between atoms: C4_4  and  N1_5 
REMARK    3  A    between atoms: N2_10  and  O1_12 
ROOT
HETATM    1  C3  UNL     1      54.472  22.449  27.777  1.00  0.00     0.043 C 
HETATM    2  C4  UNL     1      53.169  22.699  27.700  1.00  0.00     0.087 C 
ENDROOT
BRANCH   1   3
HETATM    3  C2  UNL     1      55.412  22.908  26.775  1.00  0.00     0.029 C 
HETATM    4  C1  UNL     1      56.454  21.995  26.275  1.00  0.00     0.070 C 
HETATM    5  N2  UNL     1      55.335  24.100  26.329  1.00  0.00    -0.274 N 
ATOM      6  H2  UNL     1      54.613  24.731  26.676  1.00  0.00     0.193 HD
BRANCH   5   7
HETATM    7  O1  UNL     1      56.227  24.526  25.382  1.00  0.00    -0.290 OA
ATOM      8  H1  UNL     1      55.972  24.533  24.467  1.00  0.00     0.244 HD
ENDBRANCH   5   7
ENDBRANCH   1   3
BRANCH   2   9
HETATM    9  N1  UNL     1      52.271  22.250  28.676  1.00  0.00    -0.390 N 
HETATM   10  C5  UNL     1      52.503  21.225  29.648  1.00  0.00     0.122 C 
HETATM   11  C6  UNL     1      51.842  21.805  30.889  1.00  0.00     0.021 C 
HETATM   12  C7  UNL     1      50.943  22.922  30.403  1.00  0.00     0.021 C 
HETATM   13  C8  UNL     1      50.935  22.723  28.903  1.00  0.00     0.122 C 
ENDBRANCH   2   9
TORSDOF 3
ENDMDL
MODEL 3
REMARK VINA RESULT: -5.937441065      1.806      2.218
REMARK  3 active torsions:
REMARK  status: ('A' for Active; 'I' for Inactive)
REMARK    1  A    between atoms: C2_2  and  C3_3 
REMARK    2  A    between atoms: C4_4  and  N1_5 
REMARK    3  A    between atoms: N2_10  and  O1_12 
ROOT
HETATM    1  C3  UNL     1      52.910  22.911  27.962  1.00  0.00     0.043 C 
HETATM    2  C4  UNL     1      52.734  22.142  29.032  1.00  0.00     0.087 C 
ENDROOT
BRANCH   1   3
HETATM    3  C2  UNL     1      54.146  22.922  27.207  1.00  0.00     0.029 C 
HETATM    4  C1  UNL     1      55.419  23.205  27.891  1.00  0.00     0.070 C 
HETATM    5  N2  UNL     1      54.127  22.687  25.954  1.00  0.00    -0.274 N 
ATOM      6  H2  UNL     1      53.245  22.491  25.482  1.00  0.00     0.193 HD
BRANCH   5   7
HETATM    7  O1  UNL     1      55.299  22.699  25.247  1.00  0.00    -0.290 OA
ATOM      8  H1  UNL     1      55.887  23.440  25.325  1.00  0.00     0.244 HD
ENDBRANCH   5   7
ENDBRANCH   1   3
BRANCH   2   9
HETATM    9  N1  UNL     1      51.534  22.140  29.753  1.00  0.00    -0.390 N 
HETATM   10  C5  UNL     1      51.349  21.719  31.108  1.00  0.00     0.122 C 
HETATM   11  C6  UNL     1      50.380  22.764  31.639  1.00  0.00     0.021 C 
HETATM   12  C7  UNL     1      49.789  23.446  30.423  1.00  0.00     0.021 C 
HETATM   13  C8  UNL     1      50.245  22.561  29.283  1.00  0.00     0.122 C 
ENDBRANCH   2   9
TORSDOF 3
ENDMDL
MODEL 4
REMARK VINA RESULT: -5.698396064      1.383      1.846
REMARK  3 active torsions:
REMARK  status: ('A' for Active; 'I' for Inactive)
REMARK    1  A    between atoms: C2_2  and  C3_3 
REMARK    2  A    between atoms: C4_4  and  N1_5 
REMARK    3  A    between atoms: N2_10  and  O1_12 
ROOT
HETATM    1  C3  UNL     1      51.352  23.041  29.493  1.00  0.00     0.043 C 
HETATM    2  C4  UNL     1      51.428  22.308  30.599  1.00  0.00     0.087 C 
ENDROOT
BRANCH   1   3
HETATM    3  C2  UNL     1      52.122  22.738  28.304  1.00  0.00     0.029 C 
HETATM    4  C1  UNL     1      52.063  21.388  27.718  1.00  0.00     0.070 C 
HETATM    5  N2  UNL     1      52.848  23.639  27.770  1.00  0.00    -0.274 N 
ATOM      6  H2  UNL     1      52.888  24.574  28.177  1.00  0.00     0.193 HD
BRANCH   5   7
HETATM    7  O1  UNL     1      53.573  23.345  26.647  1.00  0.00    -0.290 OA
ATOM      8  H1  UNL     1      53.582  22.456  26.313  1.00  0.00     0.244 HD
ENDBRANCH   5   7
ENDBRANCH   1   3
BRANCH   2   9
HETATM    9  N1  UNL     1      50.677  22.612  31.741  1.00  0.00    -0.390 N 
HETATM   10  C5  UNL     1      50.106  23.880  32.078  1.00  0.00     0.122 C 
HETATM   11  C6  UNL     1      48.753  23.480  32.648  1.00  0.00     0.021 C 
HETATM   12  C7  UNL     1      48.848  22.000  32.956  1.00  0.00     0.021 C 
HETATM   13  C8  UNL     1      50.327  21.716  32.807  1.00  0.00     0.122 C 
ENDBRANCH   2   9
TORSDOF 3
ENDMDL
MODEL 5
REMARK VINA RESULT: -5.595845768      2.756      4.026
REMARK  3 active torsions:
REMARK  status: ('A' for Active; 'I' for Inactive)
REMARK    1  A    between atoms: C2_2  and  C3_3 
REMARK    2  A    between atoms: C4_4  and  N1_5 
REMARK    3  A    between atoms: N2_10  and  O1_12 
ROOT
HETATM    1  C3  UNL     1      55.138  22.833  27.499  1.00  0.00     0.043 C 
HETATM    2  C4  UNL     1      53.868  22.466  27.361  1.00  0.00     0.087 C 
ENDROOT
BRANCH   1   3
HETATM    3  C2  UNL     1      56.127  22.615  26.463  1.00  0.00     0.029 C 
HETATM    4  C1  UNL     1      56.640  23.759  25.689  1.00  0.00     0.070 C 
HETATM    5  N2  UNL     1      56.550  21.437  26.226  1.00  0.00    -0.274 N 
ATOM      6  H2  UNL     1      56.194  20.646  26.763  1.00  0.00     0.193 HD
BRANCH   5   7
HETATM    7  O1  UNL     1      57.485  21.239  25.246  1.00  0.00    -0.290 OA
ATOM      8  H1  UNL     1      58.407  21.337  25.450  1.00  0.00     0.244 HD
ENDBRANCH   5   7
ENDBRANCH   1   3
BRANCH   2   9
HETATM    9  N1  UNL     1      52.922  22.682  28.370  1.00  0.00    -0.390 N 
HETATM   10  C5  UNL     1      51.800  23.570  28.316  1.00  0.00     0.122 C 
HETATM   11  C6  UNL     1      50.714  22.756  29.004  1.00  0.00     0.021 C 
HETATM   12  C7  UNL     1      51.428  21.645  29.745  1.00  0.00     0.021 C 
HETATM   13  C8  UNL     1      52.881  22.061  29.663  1.00  0.00     0.122 C 
ENDBRANCH   2   9
TORSDOF 3
ENDMDL
