MODEL 1
REMARK VINA RESULT: -6.268147491      0.000      0.000
REMARK  11 active torsions:
REMARK  status: ('A' for Active; 'I' for Inactive)
REMARK    1  A    between atoms: C2_2  and  C4_4 
REMARK    2  A    between atoms: C2_2  and  N2_17 
REMARK    3  A    between atoms: C4_4  and  C5_5 
REMARK    4  A    between atoms: C5_5  and  C6_6 
REMARK    5  A    between atoms: C6_6  and  C7_7 
REMARK    6  A    between atoms: C7_7  and  C8_9 
REMARK    7  A    between atoms: N2_17  and  C11_19 
REMARK    8  A    between atoms: C13_22  and  C14_23 
REMARK    9  A    between atoms: C14_23  and  C15_25 
REMARK   10  A    between atoms: C15_25  and  S2_26 
REMARK   11  A    between atoms: S2_26  and  C16_27 
ROOT
HETATM    1  C1  UNL     1      43.874   6.654  -5.043  1.00  0.00     0.038 C 
HETATM    2  C2  UNL     1      44.951   5.688  -5.488  1.00  0.00     0.024 C 
HETATM    3  C3  UNL     1      44.839   5.386  -6.975  1.00  0.00     0.038 C 
ENDROOT
BRANCH   2   4
HETATM    4  C4  UNL     1      44.630   4.351  -4.805  1.00  0.00     0.030 C 
BRANCH   4   5
HETATM    5  C5  UNL     1      43.870   4.614  -3.526  1.00  0.00     0.010 C 
BRANCH   5   6
HETATM    6  C6  UNL     1      44.526   3.946  -2.340  1.00  0.00     0.081 C 
BRANCH   6   7
HETATM    7  C7  UNL     1      45.854   4.568  -2.131  1.00  0.00     0.160 C 
HETATM    8  O1  UNL     1      45.937   5.746  -1.865  1.00  0.00    -0.295 OA
BRANCH   7   9
HETATM    9  C8  UNL     1      47.128   3.785  -2.237  1.00  0.00     0.255 C 
HETATM   10  C9  UNL     1      48.008   3.984  -1.015  1.00  0.00     0.277 C 
HETATM   11  N1  UNL     1      49.396   3.848  -1.395  1.00  0.00    -0.048 N 
HETATM   12  C10 UNL     1      49.716   4.913  -2.357  1.00  0.00     0.441 C 
ATOM     13  H12 UNL     1      50.025   3.841  -0.592  1.00  0.00     0.279 HD
ATOM     14  H11 UNL     1      49.617   2.918  -1.751  1.00  0.00     0.279 HD
HETATM   15  O2  UNL     1      48.559   5.252  -3.028  1.00  0.00    -0.213 OA
HETATM   16  O3  UNL     1      47.868   4.195  -3.344  1.00  0.00    -0.225 OA
ENDBRANCH   7   9
ENDBRANCH   6   7
ENDBRANCH   5   6
ENDBRANCH   4   5
ENDBRANCH   2   4
BRANCH   2  17
HETATM   17  N2  UNL     1      46.248   6.116  -5.106  1.00  0.00    -0.367 N 
ATOM     18  H2  UNL     1      46.967   5.408  -4.952  1.00  0.00     0.162 HD
BRANCH  17  19
HETATM   19  C11 UNL     1      46.602   7.503  -4.923  1.00  0.00     0.109 A 
HETATM   20  C12 UNL     1      46.595   8.386  -5.975  1.00  0.00     0.100 A 
HETATM   21  S1  UNL     1      47.085   9.838  -5.204  1.00  0.00    -0.077 SA
HETATM   22  C13 UNL     1      47.263   9.230  -3.618  1.00  0.00     0.122 A 
HETATM   23  N3  UNL     1      46.942   7.964  -3.761  1.00  0.00    -0.334 N 
ATOM     24  H3  UNL     1      46.961   7.341  -2.954  1.00  0.00     0.168 HD
BRANCH  22  25
HETATM   25  C14 UNL     1      47.674   9.964  -2.425  1.00  0.00     0.192 C 
HETATM   26  O4  UNL     1      48.351  10.988  -2.543  1.00  0.00    -0.289 OA
BRANCH  25  27
HETATM   27  C15 UNL     1      47.259   9.446  -1.120  1.00  0.00     0.160 C 
BRANCH  27  28
HETATM   28  S2  UNL     1      47.615  10.451   0.289  1.00  0.00    -0.152 SA
BRANCH  28  29
HETATM   29  C16 UNL     1      49.061   9.946   1.188  1.00  0.00    -0.003 C 
HETATM   30  C17 UNL     1      50.287  10.460   0.403  1.00  0.00     0.026 C 
HETATM   31  C18 UNL     1      49.280   8.480   1.351  1.00  0.00     0.026 C 
HETATM   32  C19 UNL     1      49.112  10.687   2.512  1.00  0.00     0.026 C 
ENDBRANCH  28  29
ENDBRANCH  27  28
ENDBRANCH  25  27
ENDBRANCH  22  25
ENDBRANCH  17  19
ENDBRANCH   2  17
TORSDOF 11
ENDMDL
MODEL 2
REMARK VINA RESULT: -6.070206368      2.928      7.152
REMARK  11 active torsions:
REMARK  status: ('A' for Active; 'I' for Inactive)
REMARK    1  A    between atoms: C2_2  and  C4_4 
REMARK    2  A    between atoms: C2_2  and  N2_17 
REMARK    3  A    between atoms: C4_4  and  C5_5 
REMARK    4  A    between atoms: C5_5  and  C6_6 
REMARK    5  A    between atoms: C6_6  and  C7_7 
REMARK    6  A    between atoms: C7_7  and  C8_9 
REMARK    7  A    between atoms: N2_17  and  C11_19 
REMARK    8  A    between atoms: C13_22  and  C14_23 
REMARK    9  A    between atoms: C14_23  and  C15_25 
REMARK   10  A    between atoms: C15_25  and  S2_26 
REMARK   11  A    between atoms: S2_26  and  C16_27 
ROOT
HETATM    1  C1  UNL     1      46.566   9.416  -0.622  1.00  0.00     0.038 C 
HETATM    2  C2  UNL     1      47.841  10.213  -0.791  1.00  0.00     0.024 C 
HETATM    3  C3  UNL     1      47.760  11.545  -0.062  1.00  0.00     0.038 C 
ENDROOT
BRANCH   2   4
HETATM    4  C4  UNL     1      47.908  10.597  -2.276  1.00  0.00     0.030 C 
BRANCH   4   5
HETATM    5  C5  UNL     1      46.900   9.779  -3.048  1.00  0.00     0.010 C 
BRANCH   5   6
HETATM    6  C6  UNL     1      47.520   9.135  -4.267  1.00  0.00     0.081 C 
BRANCH   6   7
HETATM    7  C7  UNL     1      47.014   9.833  -5.471  1.00  0.00     0.160 C 
HETATM    8  O1  UNL     1      46.212  10.733  -5.358  1.00  0.00    -0.295 OA
BRANCH   7   9
HETATM    9  C8  UNL     1      47.462   9.468  -6.853  1.00  0.00     0.255 C 
HETATM   10  C9  UNL     1      46.945  10.454  -7.886  1.00  0.00     0.277 C 
HETATM   11  N1  UNL     1      46.764   9.776  -9.151  1.00  0.00    -0.048 N 
HETATM   12  C10 UNL     1      45.741   8.735  -8.972  1.00  0.00     0.441 C 
ATOM     13  H12 UNL     1      46.544  10.417  -9.913  1.00  0.00     0.279 HD
ATOM     14  H11 UNL     1      47.638   9.408  -9.528  1.00  0.00     0.279 HD
HETATM   15  O2  UNL     1      45.761   8.331  -7.653  1.00  0.00    -0.213 OA
HETATM   16  O3  UNL     1      46.980   8.211  -7.212  1.00  0.00    -0.225 OA
ENDBRANCH   7   9
ENDBRANCH   6   7
ENDBRANCH   5   6
ENDBRANCH   4   5
ENDBRANCH   2   4
BRANCH   2  17
HETATM   17  N2  UNL     1      48.994   9.461  -0.444  1.00  0.00    -0.367 N 
ATOM     18  H2  UNL     1      49.852   9.965  -0.221  1.00  0.00     0.162 HD
BRANCH  17  19
HETATM   19  C11 UNL     1      49.011   8.019  -0.391  1.00  0.00     0.109 A 
HETATM   20  C12 UNL     1      48.950   7.348   0.805  1.00  0.00     0.100 A 
HETATM   21  S1  UNL     1      49.009   5.715   0.283  1.00  0.00    -0.077 SA
HETATM   22  C13 UNL     1      49.107   5.996  -1.400  1.00  0.00     0.122 A 
HETATM   23  N3  UNL     1      49.090   7.307  -1.470  1.00  0.00    -0.334 N 
ATOM     24  H3  UNL     1      49.139   7.767  -2.379  1.00  0.00     0.168 HD
BRANCH  22  25
HETATM   25  C14 UNL     1      49.190   4.999  -2.463  1.00  0.00     0.192 C 
HETATM   26  O4  UNL     1      50.272   4.784  -3.014  1.00  0.00    -0.289 OA
BRANCH  25  27
HETATM   27  C15 UNL     1      47.966   4.287  -2.837  1.00  0.00     0.160 C 
BRANCH  27  28
HETATM   28  S2  UNL     1      46.477   5.237  -2.899  1.00  0.00    -0.152 SA
BRANCH  28  29
HETATM   29  C16 UNL     1      45.652   5.183  -4.471  1.00  0.00    -0.003 C 
HETATM   30  C17 UNL     1      44.936   6.538  -4.655  1.00  0.00     0.026 C 
HETATM   31  C18 UNL     1      44.592   4.148  -4.645  1.00  0.00     0.026 C 
HETATM   32  C19 UNL     1      46.688   5.139  -5.580  1.00  0.00     0.026 C 
ENDBRANCH  28  29
ENDBRANCH  27  28
ENDBRANCH  25  27
ENDBRANCH  22  25
ENDBRANCH  17  19
ENDBRANCH   2  17
TORSDOF 11
ENDMDL
MODEL 3
REMARK VINA RESULT: -6.043394532      2.834      7.021
REMARK  11 active torsions:
REMARK  status: ('A' for Active; 'I' for Inactive)
REMARK    1  A    between atoms: C2_2  and  C4_4 
REMARK    2  A    between atoms: C2_2  and  N2_17 
REMARK    3  A    between atoms: C4_4  and  C5_5 
REMARK    4  A    between atoms: C5_5  and  C6_6 
REMARK    5  A    between atoms: C6_6  and  C7_7 
REMARK    6  A    between atoms: C7_7  and  C8_9 
REMARK    7  A    between atoms: N2_17  and  C11_19 
REMARK    8  A    between atoms: C13_22  and  C14_23 
REMARK    9  A    between atoms: C14_23  and  C15_25 
REMARK   10  A    between atoms: C15_25  and  S2_26 
REMARK   11  A    between atoms: S2_26  and  C16_27 
ROOT
HETATM    1  C1  UNL     1      46.361   9.459  -0.678  1.00  0.00     0.038 C 
HETATM    2  C2  UNL     1      47.545  10.368  -0.925  1.00  0.00     0.024 C 
HETATM    3  C3  UNL     1      47.615  11.477   0.114  1.00  0.00     0.038 C 
ENDROOT
BRANCH   2   4
HETATM    4  C4  UNL     1      47.251  11.101  -2.242  1.00  0.00     0.030 C 
BRANCH   4   5
HETATM    5  C5  UNL     1      48.134  10.541  -3.332  1.00  0.00     0.010 C 
BRANCH   5   6
HETATM    6  C6  UNL     1      47.326  10.093  -4.529  1.00  0.00     0.081 C 
BRANCH   6   7
HETATM    7  C7  UNL     1      48.050  10.496  -5.757  1.00  0.00     0.160 C 
HETATM    8  O1  UNL     1      48.743  11.488  -5.753  1.00  0.00    -0.295 OA
BRANCH   7   9
HETATM    9  C8  UNL     1      47.961   9.711  -7.030  1.00  0.00     0.255 C 
HETATM   10  C9  UNL     1      47.055  10.391  -8.042  1.00  0.00     0.277 C 
HETATM   11  N1  UNL     1      46.440   9.390  -8.885  1.00  0.00    -0.048 N 
HETATM   12  C10 UNL     1      45.602   8.527  -8.040  1.00  0.00     0.441 C 
ATOM     13  H12 UNL     1      45.924   9.797  -9.666  1.00  0.00     0.279 HD
ATOM     14  H11 UNL     1      47.122   8.863  -9.431  1.00  0.00     0.279 HD
HETATM   15  O2  UNL     1      46.131   8.524  -6.766  1.00  0.00    -0.213 OA
HETATM   16  O3  UNL     1      47.431   8.445  -6.793  1.00  0.00    -0.225 OA
ENDBRANCH   7   9
ENDBRANCH   6   7
ENDBRANCH   5   6
ENDBRANCH   4   5
ENDBRANCH   2   4
BRANCH   2  17
HETATM   17  N2  UNL     1      48.761   9.645  -1.047  1.00  0.00    -0.367 N 
ATOM     18  H2  UNL     1      49.589  10.142  -1.372  1.00  0.00     0.162 HD
BRANCH  17  19
HETATM   19  C11 UNL     1      48.881   8.242  -0.732  1.00  0.00     0.109 A 
HETATM   20  C12 UNL     1      48.911   7.802   0.569  1.00  0.00     0.100 A 
HETATM   21  S1  UNL     1      49.065   6.108   0.352  1.00  0.00    -0.077 SA
HETATM   22  C13 UNL     1      49.081   6.076  -1.357  1.00  0.00     0.122 A 
HETATM   23  N3  UNL     1      48.969   7.348  -1.665  1.00  0.00    -0.334 N 
ATOM     24  H3  UNL     1      48.952   7.633  -2.644  1.00  0.00     0.168 HD
BRANCH  22  25
HETATM   25  C14 UNL     1      49.195   4.907  -2.222  1.00  0.00     0.192 C 
HETATM   26  O4  UNL     1      50.187   4.775  -2.943  1.00  0.00    -0.289 OA
BRANCH  25  27
HETATM   27  C15 UNL     1      48.109   3.925  -2.199  1.00  0.00     0.160 C 
BRANCH  27  28
HETATM   28  S2  UNL     1      46.810   4.142  -3.378  1.00  0.00    -0.152 SA
BRANCH  28  29
HETATM   29  C16 UNL     1      45.689   5.461  -2.982  1.00  0.00    -0.003 C 
HETATM   30  C17 UNL     1      44.315   5.084  -3.575  1.00  0.00     0.026 C 
HETATM   31  C18 UNL     1      46.005   6.808  -3.538  1.00  0.00     0.026 C 
HETATM   32  C19 UNL     1      45.465   5.496  -1.481  1.00  0.00     0.026 C 
ENDBRANCH  28  29
ENDBRANCH  27  28
ENDBRANCH  25  27
ENDBRANCH  22  25
ENDBRANCH  17  19
ENDBRANCH   2  17
TORSDOF 11
ENDMDL
MODEL 4
REMARK VINA RESULT: -6.005056616      4.045      6.671
REMARK  11 active torsions:
REMARK  status: ('A' for Active; 'I' for Inactive)
REMARK    1  A    between atoms: C2_2  and  C4_4 
REMARK    2  A    between atoms: C2_2  and  N2_17 
REMARK    3  A    between atoms: C4_4  and  C5_5 
REMARK    4  A    between atoms: C5_5  and  C6_6 
REMARK    5  A    between atoms: C6_6  and  C7_7 
REMARK    6  A    between atoms: C7_7  and  C8_9 
REMARK    7  A    between atoms: N2_17  and  C11_19 
REMARK    8  A    between atoms: C13_22  and  C14_23 
REMARK    9  A    between atoms: C14_23  and  C15_25 
REMARK   10  A    between atoms: C15_25  and  S2_26 
REMARK   11  A    between atoms: S2_26  and  C16_27 
ROOT
HETATM    1  C1  UNL     1      49.519   4.432  -0.976  1.00  0.00     0.038 C 
HETATM    2  C2  UNL     1      48.291   5.187  -1.437  1.00  0.00     0.024 C 
HETATM    3  C3  UNL     1      47.700   4.564  -2.693  1.00  0.00     0.038 C 
ENDROOT
BRANCH   2   4
HETATM    4  C4  UNL     1      48.789   6.565  -1.897  1.00  0.00     0.030 C 
BRANCH   4   5
HETATM    5  C5  UNL     1      47.632   7.344  -2.479  1.00  0.00     0.010 C 
BRANCH   5   6
HETATM    6  C6  UNL     1      47.634   8.780  -2.008  1.00  0.00     0.081 C 
BRANCH   6   7
HETATM    7  C7  UNL     1      47.239   8.802  -0.580  1.00  0.00     0.160 C 
HETATM    8  O1  UNL     1      46.310   8.126  -0.197  1.00  0.00    -0.295 OA
BRANCH   7   9
HETATM    9  C8  UNL     1      47.956   9.641   0.433  1.00  0.00     0.255 C 
HETATM   10  C9  UNL     1      49.110  10.406  -0.192  1.00  0.00     0.277 C 
HETATM   11  N1  UNL     1      50.145  10.609   0.798  1.00  0.00    -0.048 N 
HETATM   12  C10 UNL     1      50.651   9.292   1.211  1.00  0.00     0.441 C 
ATOM     13  H12 UNL     1      50.885  11.230   0.471  1.00  0.00     0.279 HD
ATOM     14  H11 UNL     1      49.829  11.174   1.586  1.00  0.00     0.279 HD
HETATM   15  O2  UNL     1      49.638   8.368   1.047  1.00  0.00    -0.213 OA
HETATM   16  O3  UNL     1      48.493   8.845   1.443  1.00  0.00    -0.225 OA
ENDBRANCH   7   9
ENDBRANCH   6   7
ENDBRANCH   5   6
ENDBRANCH   4   5
ENDBRANCH   2   4
BRANCH   2  17
HETATM   17  N2  UNL     1      47.338   5.350  -0.399  1.00  0.00    -0.367 N 
ATOM     18  H2  UNL     1      47.533   6.030   0.336  1.00  0.00     0.162 HD
BRANCH  17  19
HETATM   19  C11 UNL     1      46.107   4.600  -0.331  1.00  0.00     0.109 A 
HETATM   20  C12 UNL     1      46.090   3.295   0.098  1.00  0.00     0.100 A 
HETATM   21  S1  UNL     1      44.421   2.918  -0.028  1.00  0.00    -0.077 SA
HETATM   22  C13 UNL     1      43.868   4.427  -0.608  1.00  0.00     0.122 A 
HETATM   23  N3  UNL     1      44.977   5.129  -0.675  1.00  0.00    -0.334 N 
ATOM     24  H3  UNL     1      44.947   6.095  -1.000  1.00  0.00     0.168 HD
BRANCH  22  25
HETATM   25  C14 UNL     1      42.498   4.804  -0.940  1.00  0.00     0.192 C 
HETATM   26  O4  UNL     1      42.084   4.651  -2.091  1.00  0.00    -0.289 OA
BRANCH  25  27
HETATM   27  C15 UNL     1      41.659   5.356   0.126  1.00  0.00     0.160 C 
BRANCH  27  28
HETATM   28  S2  UNL     1      42.475   6.301   1.377  1.00  0.00    -0.152 SA
BRANCH  28  29
HETATM   29  C16 UNL     1      42.563   5.488   2.953  1.00  0.00    -0.003 C 
HETATM   30  C17 UNL     1      44.000   4.944   3.104  1.00  0.00     0.026 C 
HETATM   31  C18 UNL     1      41.670   4.313   3.160  1.00  0.00     0.026 C 
HETATM   32  C19 UNL     1      42.424   6.520   4.058  1.00  0.00     0.026 C 
ENDBRANCH  28  29
ENDBRANCH  27  28
ENDBRANCH  25  27
ENDBRANCH  22  25
ENDBRANCH  17  19
ENDBRANCH   2  17
TORSDOF 11
ENDMDL
MODEL 5
REMARK VINA RESULT: -5.996738110      3.019      6.180
REMARK  11 active torsions:
REMARK  status: ('A' for Active; 'I' for Inactive)
REMARK    1  A    between atoms: C2_2  and  C4_4 
REMARK    2  A    between atoms: C2_2  and  N2_17 
REMARK    3  A    between atoms: C4_4  and  C5_5 
REMARK    4  A    between atoms: C5_5  and  C6_6 
REMARK    5  A    between atoms: C6_6  and  C7_7 
REMARK    6  A    between atoms: C7_7  and  C8_9 
REMARK    7  A    between atoms: N2_17  and  C11_19 
REMARK    8  A    between atoms: C13_22  and  C14_23 
REMARK    9  A    between atoms: C14_23  and  C15_25 
REMARK   10  A    between atoms: C15_25  and  S2_26 
REMARK   11  A    between atoms: S2_26  and  C16_27 
ROOT
HETATM    1  C1  UNL     1      48.876  11.170  -5.679  1.00  0.00     0.038 C 
HETATM    2  C2  UNL     1      47.594  10.507  -6.134  1.00  0.00     0.024 C 
HETATM    3  C3  UNL     1      46.555  11.538  -6.545  1.00  0.00     0.038 C 
ENDROOT
BRANCH   2   4
HETATM    4  C4  UNL     1      46.994   9.841  -4.887  1.00  0.00     0.030 C 
BRANCH   4   5
HETATM    5  C5  UNL     1      47.651  10.414  -3.652  1.00  0.00     0.010 C 
BRANCH   5   6
HETATM    6  C6  UNL     1      47.272   9.641  -2.410  1.00  0.00     0.081 C 
BRANCH   6   7
HETATM    7  C7  UNL     1      47.824  10.352  -1.233  1.00  0.00     0.160 C 
HETATM    8  O1  UNL     1      48.021  11.545  -1.283  1.00  0.00    -0.295 OA
BRANCH   7   9
HETATM    9  C8  UNL     1      48.156   9.643   0.044  1.00  0.00     0.255 C 
HETATM   10  C9  UNL     1      48.530  10.621   1.144  1.00  0.00     0.277 C 
HETATM   11  N1  UNL     1      49.464   9.992   2.051  1.00  0.00    -0.048 N 
HETATM   12  C10 UNL     1      50.687   9.670   1.301  1.00  0.00     0.441 C 
ATOM     13  H12 UNL     1      49.648  10.556   2.881  1.00  0.00     0.279 HD
ATOM     14  H11 UNL     1      49.067   9.179   2.523  1.00  0.00     0.279 HD
HETATM   15  O2  UNL     1      50.346   9.477  -0.022  1.00  0.00    -0.213 OA
HETATM   16  O3  UNL     1      49.244   8.791  -0.132  1.00  0.00    -0.225 OA
ENDBRANCH   7   9
ENDBRANCH   6   7
ENDBRANCH   5   6
ENDBRANCH   4   5
ENDBRANCH   2   4
BRANCH   2  17
HETATM   17  N2  UNL     1      47.823   9.523  -7.132  1.00  0.00    -0.367 N 
ATOM     18  H2  UNL     1      48.735   9.497  -7.586  1.00  0.00     0.162 HD
BRANCH  17  19
HETATM   19  C11 UNL     1      46.827   8.559  -7.534  1.00  0.00     0.109 A 
HETATM   20  C12 UNL     1      45.943   8.828  -8.550  1.00  0.00     0.100 A 
HETATM   21  S1  UNL     1      45.020   7.382  -8.590  1.00  0.00    -0.077 SA
HETATM   22  C13 UNL     1      45.813   6.547  -7.327  1.00  0.00     0.122 A 
HETATM   23  N3  UNL     1      46.728   7.409  -6.947  1.00  0.00    -0.334 N 
ATOM     24  H3  UNL     1      47.365   7.171  -6.187  1.00  0.00     0.168 HD
BRANCH  22  25
HETATM   25  C14 UNL     1      45.515   5.210  -6.822  1.00  0.00     0.192 C 
HETATM   26  O4  UNL     1      46.145   4.241  -7.252  1.00  0.00    -0.289 OA
BRANCH  25  27
HETATM   27  C15 UNL     1      44.464   5.074  -5.812  1.00  0.00     0.160 C 
BRANCH  27  28
HETATM   28  S2  UNL     1      44.707   5.930  -4.285  1.00  0.00    -0.152 SA
BRANCH  28  29
HETATM   29  C16 UNL     1      46.014   5.263  -3.284  1.00  0.00    -0.003 C 
HETATM   30  C17 UNL     1      47.270   6.123  -3.545  1.00  0.00     0.026 C 
HETATM   31  C18 UNL     1      46.431   3.859  -3.562  1.00  0.00     0.026 C 
HETATM   32  C19 UNL     1      45.689   5.489  -1.819  1.00  0.00     0.026 C 
ENDBRANCH  28  29
ENDBRANCH  27  28
ENDBRANCH  25  27
ENDBRANCH  22  25
ENDBRANCH  17  19
ENDBRANCH   2  17
TORSDOF 11
ENDMDL
