MODEL 1
REMARK VINA RESULT: -8.727131701      0.000      0.000
REMARK  16 active torsions:
REMARK  status: ('A' for Active; 'I' for Inactive)
REMARK    1  A    between atoms: C2_2  and  C3_3 
REMARK    2  A    between atoms: C6_6  and  C7_7 
REMARK       I    between atoms: C7_7  and  N1_9 
REMARK    3  A    between atoms: C8_11  and  C9_12 
REMARK       I    between atoms: C9_12  and  N2_14 
REMARK    4  A    between atoms: N2_14  and  C10_16 
REMARK    5  A    between atoms: C10_16  and  C11_17 
REMARK    6  A    between atoms: C10_16  and  C18_26 
REMARK    7  A    between atoms: C11_17  and  C12_18 
REMARK    8  A    between atoms: C12_18  and  C13_19 
REMARK    9  A    between atoms: C13_19  and  O4_21 
REMARK   10  A    between atoms: O4_21  and  C14_22 
REMARK       I    between atoms: C18_26  and  N3_28 
REMARK   11  A    between atoms: N4_33  and  C22_34 
REMARK   12  A    between atoms: C22_34  and  C23_35 
REMARK   13  A    between atoms: C23_35  and  C24_36 
REMARK   14  A    between atoms: C23_35  and  O7_39 
REMARK   15  A    between atoms: C24_36  and  O6_37 
REMARK   16  A    between atoms: O7_39  and  C25_40 
ROOT
HETATM    1  C7  UNL     1       1.569   9.919  37.754  1.00  0.00     0.254 C 
HETATM    2  O1  UNL     1       1.461  11.138  38.095  1.00  0.00    -0.268 OA
HETATM    3  N1  UNL     1       2.769   9.282  38.097  1.00  0.00    -0.328 N 
ATOM      4  H1  UNL     1       2.682   8.365  38.534  1.00  0.00     0.168 HD
HETATM    5  C8  UNL     1       3.952   9.709  37.927  1.00  0.00     0.165 C 
ENDROOT
BRANCH   1   6
HETATM    6  C6  UNL     1       0.452   9.316  37.054  1.00  0.00     0.036 C 
HETATM    7  C4  UNL     1      -0.615   8.832  37.705  1.00  0.00    -0.044 C 
HETATM    8  C3  UNL     1      -1.575   8.283  36.705  1.00  0.00     0.136 C 
HETATM    9  C5  UNL     1      -0.838   8.825  39.176  1.00  0.00     0.046 C 
HETATM   10  N4  UNL     1      -1.025   8.619  35.460  1.00  0.00    -0.371 N 
HETATM   11  C20 UNL     1       0.270   9.148  35.589  1.00  0.00     0.119 C 
HETATM   12  C21 UNL     1       0.288  10.534  34.965  1.00  0.00     0.037 C 
BRANCH   8  13
HETATM   13  C2  UNL     1      -2.866   8.996  36.876  1.00  0.00    -0.008 C 
HETATM   14  C1  UNL     1      -3.968   8.383  37.237  1.00  0.00     0.009 C 
ENDBRANCH   8  13
BRANCH  10  15
HETATM   15  C22 UNL     1      -1.816   8.870  34.354  1.00  0.00     0.094 C 
BRANCH  15  16
HETATM   16  C23 UNL     1      -2.256   7.730  33.471  1.00  0.00     0.184 C 
BRANCH  16  17
HETATM   17  C24 UNL     1      -3.778   7.675  33.634  1.00  0.00     0.201 C 
BRANCH  17  18
HETATM   18  O6  UNL     1      -4.071   6.325  33.900  1.00  0.00    -0.398 OA
ATOM     19  H6  UNL     1      -4.503   6.005  33.117  1.00  0.00     0.209 HD
ENDBRANCH  17  18
ENDBRANCH  16  17
BRANCH  16  20
HETATM   20  O7  UNL     1      -1.815   7.858  32.242  1.00  0.00    -0.369 OA
BRANCH  20  21
HETATM   21  C25 UNL     1      -0.999   8.750  31.716  1.00  0.00     0.051 C 
HETATM   22  C26 UNL     1      -1.268  10.218  31.936  1.00  0.00     0.045 C 
HETATM   23  C27 UNL     1       0.488   8.465  31.924  1.00  0.00     0.045 C 
HETATM   24  C28 UNL     1      -1.151   8.599  30.177  1.00  0.00     0.045 C 
ENDBRANCH  20  21
ENDBRANCH  16  20
ENDBRANCH  15  16
ENDBRANCH  10  15
ENDBRANCH   1   6
BRANCH   5  25
HETATM   25  C9  UNL     1       5.084   8.908  38.347  1.00  0.00     0.257 C 
HETATM   26  O2  UNL     1       5.247   7.785  37.786  1.00  0.00    -0.267 OA
HETATM   27  N2  UNL     1       5.982   9.358  39.350  1.00  0.00    -0.343 N 
ATOM     28  H2  UNL     1       5.812  10.272  39.772  1.00  0.00     0.163 HD
BRANCH  27  29
HETATM   29  C10 UNL     1       7.110   8.610  39.806  1.00  0.00     0.177 C 
BRANCH  29  30
HETATM   30  C11 UNL     1       6.932   8.371  41.307  1.00  0.00     0.044 C 
BRANCH  30  31
HETATM   31  C12 UNL     1       6.360   6.995  41.560  1.00  0.00     0.113 C 
BRANCH  31  32
HETATM   32  C13 UNL     1       4.893   7.106  41.842  1.00  0.00     0.259 C 
HETATM   33  O3  UNL     1       4.033   7.265  40.959  1.00  0.00    -0.265 OA
BRANCH  32  34
HETATM   34  O4  UNL     1       4.469   7.028  43.167  1.00  0.00    -0.311 OA
BRANCH  34  35
HETATM   35  C14 UNL     1       4.004   8.094  43.932  1.00  0.00     0.060 C 
HETATM   36  C15 UNL     1       2.945   8.936  43.257  1.00  0.00     0.045 C 
HETATM   37  C16 UNL     1       5.109   8.995  44.423  1.00  0.00     0.045 C 
HETATM   38  C17 UNL     1       3.357   7.495  45.186  1.00  0.00     0.045 C 
ENDBRANCH  34  35
ENDBRANCH  32  34
ENDBRANCH  31  32
ENDBRANCH  30  31
ENDBRANCH  29  30
BRANCH  29  39
HETATM   39  C18 UNL     1       8.406   9.204  39.497  1.00  0.00     0.240 C 
HETATM   40  O5  UNL     1       9.269   8.548  38.861  1.00  0.00    -0.271 OA
HETATM   41  N3  UNL     1       8.721  10.518  39.898  1.00  0.00    -0.364 N 
HETATM   42  C19 UNL     1       9.996  11.151  39.612  1.00  0.00     0.149 C 
ATOM     43  H3  UNL     1       8.019  11.049  40.414  1.00  0.00     0.161 HD
ENDBRANCH  29  39
ENDBRANCH  27  29
ENDBRANCH   5  25
TORSDOF 16
ENDMDL
MODEL 2
REMARK VINA RESULT: -8.482432387      2.049      9.933
REMARK  16 active torsions:
REMARK  status: ('A' for Active; 'I' for Inactive)
REMARK    1  A    between atoms: C2_2  and  C3_3 
REMARK    2  A    between atoms: C6_6  and  C7_7 
REMARK       I    between atoms: C7_7  and  N1_9 
REMARK    3  A    between atoms: C8_11  and  C9_12 
REMARK       I    between atoms: C9_12  and  N2_14 
REMARK    4  A    between atoms: N2_14  and  C10_16 
REMARK    5  A    between atoms: C10_16  and  C11_17 
REMARK    6  A    between atoms: C10_16  and  C18_26 
REMARK    7  A    between atoms: C11_17  and  C12_18 
REMARK    8  A    between atoms: C12_18  and  C13_19 
REMARK    9  A    between atoms: C13_19  and  O4_21 
REMARK   10  A    between atoms: O4_21  and  C14_22 
REMARK       I    between atoms: C18_26  and  N3_28 
REMARK   11  A    between atoms: N4_33  and  C22_34 
REMARK   12  A    between atoms: C22_34  and  C23_35 
REMARK   13  A    between atoms: C23_35  and  C24_36 
REMARK   14  A    between atoms: C23_35  and  O7_39 
REMARK   15  A    between atoms: C24_36  and  O6_37 
REMARK   16  A    between atoms: O7_39  and  C25_40 
ROOT
HETATM    1  C7  UNL     1       3.640   7.494  37.852  1.00  0.00     0.254 C 
HETATM    2  O1  UNL     1       4.263   6.544  37.284  1.00  0.00    -0.268 OA
HETATM    3  N1  UNL     1       2.551   8.030  37.152  1.00  0.00    -0.328 N 
ATOM      4  H1  UNL     1       1.692   8.156  37.687  1.00  0.00     0.168 HD
HETATM    5  C8  UNL     1       2.506   8.377  35.933  1.00  0.00     0.165 C 
ENDROOT
BRANCH   1   6
HETATM    6  C6  UNL     1       4.113   7.923  39.154  1.00  0.00     0.036 C 
HETATM    7  C4  UNL     1       3.356   7.812  40.255  1.00  0.00    -0.044 C 
HETATM    8  C3  UNL     1       4.126   8.342  41.418  1.00  0.00     0.136 C 
HETATM    9  C5  UNL     1       1.977   7.262  40.341  1.00  0.00     0.046 C 
HETATM   10  N4  UNL     1       5.400   8.623  40.904  1.00  0.00    -0.371 N 
HETATM   11  C20 UNL     1       5.435   8.504  39.505  1.00  0.00     0.119 C 
HETATM   12  C21 UNL     1       6.496   7.480  39.135  1.00  0.00     0.037 C 
BRANCH   8  13
HETATM   13  C2  UNL     1       4.235   7.253  42.422  1.00  0.00    -0.008 C 
HETATM   14  C1  UNL     1       3.657   7.319  43.597  1.00  0.00     0.009 C 
ENDBRANCH   8  13
BRANCH  10  15
HETATM   15  C22 UNL     1       6.540   8.525  41.680  1.00  0.00     0.094 C 
BRANCH  15  16
HETATM   16  C23 UNL     1       7.393   9.744  41.920  1.00  0.00     0.184 C 
BRANCH  16  17
HETATM   17  C24 UNL     1       7.555   9.815  43.441  1.00  0.00     0.201 C 
BRANCH  17  18
HETATM   18  O6  UNL     1       6.262  10.056  43.939  1.00  0.00    -0.398 OA
ATOM     19  H6  UNL     1       6.371  10.154  44.878  1.00  0.00     0.209 HD
ENDBRANCH  17  18
ENDBRANCH  16  17
BRANCH  16  20
HETATM   20  O7  UNL     1       8.506   9.713  41.225  1.00  0.00    -0.369 OA
BRANCH  20  21
HETATM   21  C25 UNL     1       8.857  10.383  40.145  1.00  0.00     0.051 C 
HETATM   22  C26 UNL     1       9.473   9.641  38.984  1.00  0.00     0.045 C 
HETATM   23  C27 UNL     1       7.809  11.366  39.627  1.00  0.00     0.045 C 
HETATM   24  C28 UNL     1      10.003  11.330  40.595  1.00  0.00     0.045 C 
ENDBRANCH  20  21
ENDBRANCH  16  20
ENDBRANCH  15  16
ENDBRANCH  10  15
ENDBRANCH   1   6
BRANCH   5  25
HETATM   25  C9  UNL     1       1.282   8.915  35.373  1.00  0.00     0.257 C 
HETATM   26  O2  UNL     1       0.933  10.077  35.737  1.00  0.00    -0.267 OA
HETATM   27  N2  UNL     1       0.498   8.175  34.449  1.00  0.00    -0.343 N 
ATOM     28  H2  UNL     1       0.821   7.245  34.184  1.00  0.00     0.163 HD
BRANCH  27  29
HETATM   29  C10 UNL     1      -0.717   8.654  33.870  1.00  0.00     0.177 C 
BRANCH  29  30
HETATM   30  C11 UNL     1      -1.878   8.004  34.626  1.00  0.00     0.044 C 
BRANCH  30  31
HETATM   31  C12 UNL     1      -2.708   9.054  35.328  1.00  0.00     0.113 C 
BRANCH  31  32
HETATM   32  C13 UNL     1      -3.480   8.419  36.443  1.00  0.00     0.259 C 
HETATM   33  O3  UNL     1      -4.288   7.489  36.279  1.00  0.00    -0.265 OA
BRANCH  32  34
HETATM   34  O4  UNL     1      -3.281   8.897  37.738  1.00  0.00    -0.311 OA
BRANCH  34  35
HETATM   35  C14 UNL     1      -2.269   8.492  38.602  1.00  0.00     0.060 C 
HETATM   36  C15 UNL     1      -1.017   9.339  38.545  1.00  0.00     0.045 C 
HETATM   37  C16 UNL     1      -1.889   7.043  38.430  1.00  0.00     0.045 C 
HETATM   38  C17 UNL     1      -2.820   8.619  40.027  1.00  0.00     0.045 C 
ENDBRANCH  34  35
ENDBRANCH  32  34
ENDBRANCH  31  32
ENDBRANCH  30  31
ENDBRANCH  29  30
BRANCH  29  39
HETATM   39  C18 UNL     1      -0.826   8.462  32.429  1.00  0.00     0.240 C 
HETATM   40  O5  UNL     1       0.183   8.134  31.755  1.00  0.00    -0.271 OA
HETATM   41  N3  UNL     1      -2.055   8.635  31.760  1.00  0.00    -0.364 N 
HETATM   42  C19 UNL     1      -2.211   8.452  30.328  1.00  0.00     0.149 C 
ATOM     43  H3  UNL     1      -2.872   8.901  32.308  1.00  0.00     0.161 HD
ENDBRANCH  29  39
ENDBRANCH  27  29
ENDBRANCH   5  25
TORSDOF 16
ENDMDL
MODEL 3
REMARK VINA RESULT: -8.435978618      2.314      3.574
REMARK  16 active torsions:
REMARK  status: ('A' for Active; 'I' for Inactive)
REMARK    1  A    between atoms: C2_2  and  C3_3 
REMARK    2  A    between atoms: C6_6  and  C7_7 
REMARK       I    between atoms: C7_7  and  N1_9 
REMARK    3  A    between atoms: C8_11  and  C9_12 
REMARK       I    between atoms: C9_12  and  N2_14 
REMARK    4  A    between atoms: N2_14  and  C10_16 
REMARK    5  A    between atoms: C10_16  and  C11_17 
REMARK    6  A    between atoms: C10_16  and  C18_26 
REMARK    7  A    between atoms: C11_17  and  C12_18 
REMARK    8  A    between atoms: C12_18  and  C13_19 
REMARK    9  A    between atoms: C13_19  and  O4_21 
REMARK   10  A    between atoms: O4_21  and  C14_22 
REMARK       I    between atoms: C18_26  and  N3_28 
REMARK   11  A    between atoms: N4_33  and  C22_34 
REMARK   12  A    between atoms: C22_34  and  C23_35 
REMARK   13  A    between atoms: C23_35  and  C24_36 
REMARK   14  A    between atoms: C23_35  and  O7_39 
REMARK   15  A    between atoms: C24_36  and  O6_37 
REMARK   16  A    between atoms: O7_39  and  C25_40 
ROOT
HETATM    1  C7  UNL     1       5.067   9.815  37.364  1.00  0.00     0.254 C 
HETATM    2  O1  UNL     1       5.387  10.706  36.518  1.00  0.00    -0.268 OA
HETATM    3  N1  UNL     1       5.918   9.671  38.468  1.00  0.00    -0.328 N 
ATOM      4  H1  UNL     1       5.465   9.624  39.381  1.00  0.00     0.168 HD
HETATM    5  C8  UNL     1       7.184   9.593  38.468  1.00  0.00     0.165 C 
ENDROOT
BRANCH   1   6
HETATM    6  C6  UNL     1       3.866   9.044  37.106  1.00  0.00     0.036 C 
HETATM    7  C4  UNL     1       3.884   7.705  37.043  1.00  0.00    -0.044 C 
HETATM    8  C3  UNL     1       2.500   7.223  36.762  1.00  0.00     0.136 C 
HETATM    9  C5  UNL     1       5.064   6.816  37.216  1.00  0.00     0.046 C 
HETATM   10  N4  UNL     1       1.704   8.376  36.810  1.00  0.00    -0.371 N 
HETATM   11  C20 UNL     1       2.482   9.543  36.899  1.00  0.00     0.119 C 
HETATM   12  C21 UNL     1       2.076  10.298  38.155  1.00  0.00     0.037 C 
BRANCH   8  13
HETATM   13  C2  UNL     1       2.105   6.312  37.867  1.00  0.00    -0.008 C 
HETATM   14  C1  UNL     1       2.262   6.628  39.130  1.00  0.00     0.009 C 
ENDBRANCH   8  13
BRANCH  10  15
HETATM   15  C22 UNL     1       0.385   8.338  37.222  1.00  0.00     0.094 C 
BRANCH  15  16
HETATM   16  C23 UNL     1      -0.700   7.986  36.237  1.00  0.00     0.184 C 
BRANCH  16  17
HETATM   17  C24 UNL     1      -1.946   7.747  37.096  1.00  0.00     0.201 C 
BRANCH  17  18
HETATM   18  O6  UNL     1      -1.704   6.535  37.767  1.00  0.00    -0.398 OA
ATOM     19  H6  UNL     1      -2.145   6.622  38.605  1.00  0.00     0.209 HD
ENDBRANCH  17  18
ENDBRANCH  16  17
BRANCH  16  20
HETATM   20  O7  UNL     1      -0.820   8.886  35.290  1.00  0.00    -0.369 OA
BRANCH  20  21
HETATM   21  C25 UNL     1      -0.546   8.814  34.003  1.00  0.00     0.051 C 
HETATM   22  C26 UNL     1       0.746   8.172  33.558  1.00  0.00     0.045 C 
HETATM   23  C27 UNL     1      -1.694   8.314  33.127  1.00  0.00     0.045 C 
HETATM   24  C28 UNL     1      -0.383  10.283  33.526  1.00  0.00     0.045 C 
ENDBRANCH  20  21
ENDBRANCH  16  20
ENDBRANCH  15  16
ENDBRANCH  10  15
ENDBRANCH   1   6
BRANCH   5  25
HETATM   25  C9  UNL     1       7.905   9.447  39.716  1.00  0.00     0.257 C 
HETATM   26  O2  UNL     1       8.995   8.802  39.691  1.00  0.00    -0.267 OA
HETATM   27  N2  UNL     1       7.417  10.004  40.928  1.00  0.00    -0.343 N 
ATOM     28  H2  UNL     1       6.536  10.518  40.898  1.00  0.00     0.163 HD
BRANCH  27  29
HETATM   29  C10 UNL     1       8.084   9.887  42.185  1.00  0.00     0.177 C 
BRANCH  29  30
HETATM   30  C11 UNL     1       7.087   9.298  43.186  1.00  0.00     0.044 C 
BRANCH  30  31
HETATM   31  C12 UNL     1       6.900   7.819  42.939  1.00  0.00     0.113 C 
BRANCH  31  32
HETATM   32  C13 UNL     1       5.549   7.578  42.338  1.00  0.00     0.259 C 
HETATM   33  O3  UNL     1       5.267   7.832  41.155  1.00  0.00    -0.265 OA
BRANCH  32  34
HETATM   34  O4  UNL     1       4.553   7.040  43.151  1.00  0.00    -0.311 OA
BRANCH  34  35
HETATM   35  C14 UNL     1       3.684   7.770  43.956  1.00  0.00     0.060 C 
HETATM   36  C15 UNL     1       3.163   9.043  43.326  1.00  0.00     0.045 C 
HETATM   37  C16 UNL     1       4.263   8.095  45.310  1.00  0.00     0.045 C 
HETATM   38  C17 UNL     1       2.464   6.880  44.220  1.00  0.00     0.045 C 
ENDBRANCH  34  35
ENDBRANCH  32  34
ENDBRANCH  31  32
ENDBRANCH  30  31
ENDBRANCH  29  30
BRANCH  29  39
HETATM   39  C18 UNL     1       8.686  11.122  42.676  1.00  0.00     0.240 C 
HETATM   40  O5  UNL     1       8.983  12.044  41.876  1.00  0.00    -0.271 OA
HETATM   41  N3  UNL     1       8.947  11.312  44.048  1.00  0.00    -0.364 N 
HETATM   42  C19 UNL     1       9.544  12.523  44.582  1.00  0.00     0.149 C 
ATOM     43  H3  UNL     1       8.706  10.562  44.696  1.00  0.00     0.161 HD
ENDBRANCH  29  39
ENDBRANCH  27  29
ENDBRANCH   5  25
TORSDOF 16
ENDMDL
MODEL 4
REMARK VINA RESULT: -8.221053928      2.066     10.642
REMARK  16 active torsions:
REMARK  status: ('A' for Active; 'I' for Inactive)
REMARK    1  A    between atoms: C2_2  and  C3_3 
REMARK    2  A    between atoms: C6_6  and  C7_7 
REMARK       I    between atoms: C7_7  and  N1_9 
REMARK    3  A    between atoms: C8_11  and  C9_12 
REMARK       I    between atoms: C9_12  and  N2_14 
REMARK    4  A    between atoms: N2_14  and  C10_16 
REMARK    5  A    between atoms: C10_16  and  C11_17 
REMARK    6  A    between atoms: C10_16  and  C18_26 
REMARK    7  A    between atoms: C11_17  and  C12_18 
REMARK    8  A    between atoms: C12_18  and  C13_19 
REMARK    9  A    between atoms: C13_19  and  O4_21 
REMARK   10  A    between atoms: O4_21  and  C14_22 
REMARK       I    between atoms: C18_26  and  N3_28 
REMARK   11  A    between atoms: N4_33  and  C22_34 
REMARK   12  A    between atoms: C22_34  and  C23_35 
REMARK   13  A    between atoms: C23_35  and  C24_36 
REMARK   14  A    between atoms: C23_35  and  O7_39 
REMARK   15  A    between atoms: C24_36  and  O6_37 
REMARK   16  A    between atoms: O7_39  and  C25_40 
ROOT
HETATM    1  C7  UNL     1       4.246   7.554  37.766  1.00  0.00     0.254 C 
HETATM    2  O1  UNL     1       5.129   7.214  36.919  1.00  0.00    -0.268 OA
HETATM    3  N1  UNL     1       2.912   7.436  37.355  1.00  0.00    -0.328 N 
ATOM      4  H1  UNL     1       2.278   6.979  38.011  1.00  0.00     0.168 HD
HETATM    5  C8  UNL     1       2.397   7.831  36.265  1.00  0.00     0.165 C 
ENDROOT
BRANCH   1   6
HETATM    6  C6  UNL     1       4.702   8.023  39.060  1.00  0.00     0.036 C 
HETATM    7  C4  UNL     1       3.972   7.859  40.172  1.00  0.00    -0.044 C 
HETATM    8  C3  UNL     1       4.715   8.451  41.322  1.00  0.00     0.136 C 
HETATM    9  C5  UNL     1       2.640   7.205  40.279  1.00  0.00     0.046 C 
HETATM   10  N4  UNL     1       5.956   8.827  40.789  1.00  0.00    -0.371 N 
HETATM   11  C20 UNL     1       5.981   8.705  39.390  1.00  0.00     0.119 C 
HETATM   12  C21 UNL     1       7.112   7.764  39.008  1.00  0.00     0.037 C 
BRANCH   8  13
HETATM   13  C2  UNL     1       4.922   7.378  42.328  1.00  0.00    -0.008 C 
HETATM   14  C1  UNL     1       4.282   7.354  43.473  1.00  0.00     0.009 C 
ENDBRANCH   8  13
BRANCH  10  15
HETATM   15  C22 UNL     1       7.111   8.820  41.549  1.00  0.00     0.094 C 
BRANCH  15  16
HETATM   16  C23 UNL     1       7.646  10.110  42.115  1.00  0.00     0.184 C 
BRANCH  16  17
HETATM   17  C24 UNL     1       7.663   9.895  43.632  1.00  0.00     0.201 C 
BRANCH  17  18
HETATM   18  O6  UNL     1       6.352  10.174  44.057  1.00  0.00    -0.398 OA
ATOM     19  H6  UNL     1       5.958   9.325  44.223  1.00  0.00     0.209 HD
ENDBRANCH  17  18
ENDBRANCH  16  17
BRANCH  16  20
HETATM   20  O7  UNL     1       8.791  10.452  41.571  1.00  0.00    -0.369 OA
BRANCH  20  21
HETATM   21  C25 UNL     1       9.046  11.097  40.451  1.00  0.00     0.051 C 
HETATM   22  C26 UNL     1       9.730  10.371  39.319  1.00  0.00     0.045 C 
HETATM   23  C27 UNL     1       7.881  11.919  39.902  1.00  0.00     0.045 C 
HETATM   24  C28 UNL     1      10.076  12.197  40.827  1.00  0.00     0.045 C 
ENDBRANCH  20  21
ENDBRANCH  16  20
ENDBRANCH  15  16
ENDBRANCH  10  15
ENDBRANCH   1   6
BRANCH   5  25
HETATM   25  C9  UNL     1       0.986   7.622  36.007  1.00  0.00     0.257 C 
HETATM   26  O2  UNL     1       0.669   7.022  34.938  1.00  0.00    -0.267 OA
HETATM   27  N2  UNL     1      -0.011   8.070  36.914  1.00  0.00    -0.343 N 
ATOM     28  H2  UNL     1       0.292   8.546  37.763  1.00  0.00     0.163 HD
BRANCH  27  29
HETATM   29  C10 UNL     1      -1.413   7.894  36.707  1.00  0.00     0.177 C 
BRANCH  29  30
HETATM   30  C11 UNL     1      -1.889   9.016  35.780  1.00  0.00     0.044 C 
BRANCH  30  31
HETATM   31  C12 UNL     1      -3.221   8.663  35.162  1.00  0.00     0.113 C 
BRANCH  31  32
HETATM   32  C13 UNL     1      -2.998   7.897  33.893  1.00  0.00     0.259 C 
HETATM   33  O3  UNL     1      -3.828   7.110  33.410  1.00  0.00    -0.265 OA
BRANCH  32  34
HETATM   34  O4  UNL     1      -1.791   8.079  33.219  1.00  0.00    -0.311 OA
BRANCH  34  35
HETATM   35  C14 UNL     1      -1.596   8.915  32.124  1.00  0.00     0.060 C 
HETATM   36  C15 UNL     1      -2.756   9.836  31.821  1.00  0.00     0.045 C 
HETATM   37  C16 UNL     1      -1.221   8.167  30.869  1.00  0.00     0.045 C 
HETATM   38  C17 UNL     1      -0.398   9.812  32.455  1.00  0.00     0.045 C 
ENDBRANCH  34  35
ENDBRANCH  32  34
ENDBRANCH  31  32
ENDBRANCH  30  31
ENDBRANCH  29  30
BRANCH  29  39
HETATM   39  C18 UNL     1      -2.208   7.820  37.928  1.00  0.00     0.240 C 
HETATM   40  O5  UNL     1      -2.860   6.780  38.198  1.00  0.00    -0.271 OA
HETATM   41  N3  UNL     1      -2.264   8.902  38.830  1.00  0.00    -0.364 N 
HETATM   42  C19 UNL     1      -3.039   8.873  40.057  1.00  0.00     0.149 C 
ATOM     43  H3  UNL     1      -1.734   9.745  38.609  1.00  0.00     0.161 HD
ENDBRANCH  29  39
ENDBRANCH  27  29
ENDBRANCH   5  25
TORSDOF 16
ENDMDL
MODEL 5
REMARK VINA RESULT: -8.173845630      2.133      9.855
REMARK  16 active torsions:
REMARK  status: ('A' for Active; 'I' for Inactive)
REMARK    1  A    between atoms: C2_2  and  C3_3 
REMARK    2  A    between atoms: C6_6  and  C7_7 
REMARK       I    between atoms: C7_7  and  N1_9 
REMARK    3  A    between atoms: C8_11  and  C9_12 
REMARK       I    between atoms: C9_12  and  N2_14 
REMARK    4  A    between atoms: N2_14  and  C10_16 
REMARK    5  A    between atoms: C10_16  and  C11_17 
REMARK    6  A    between atoms: C10_16  and  C18_26 
REMARK    7  A    between atoms: C11_17  and  C12_18 
REMARK    8  A    between atoms: C12_18  and  C13_19 
REMARK    9  A    between atoms: C13_19  and  O4_21 
REMARK   10  A    between atoms: O4_21  and  C14_22 
REMARK       I    between atoms: C18_26  and  N3_28 
REMARK   11  A    between atoms: N4_33  and  C22_34 
REMARK   12  A    between atoms: C22_34  and  C23_35 
REMARK   13  A    between atoms: C23_35  and  C24_36 
REMARK   14  A    between atoms: C23_35  and  O7_39 
REMARK   15  A    between atoms: C24_36  and  O6_37 
REMARK   16  A    between atoms: O7_39  and  C25_40 
ROOT
HETATM    1  C7  UNL     1       2.937   7.672  39.879  1.00  0.00     0.254 C 
HETATM    2  O1  UNL     1       2.417   6.524  40.034  1.00  0.00    -0.268 OA
HETATM    3  N1  UNL     1       2.506   8.404  38.765  1.00  0.00    -0.328 N 
ATOM      4  H1  UNL     1       2.253   9.377  38.937  1.00  0.00     0.168 HD
HETATM    5  C8  UNL     1       2.393   8.002  37.567  1.00  0.00     0.165 C 
ENDROOT
BRANCH   1   6
HETATM    6  C6  UNL     1       3.913   8.105  40.860  1.00  0.00     0.036 C 
HETATM    7  C4  UNL     1       3.639   8.124  42.171  1.00  0.00    -0.044 C 
HETATM    8  C3  UNL     1       4.842   8.619  42.903  1.00  0.00     0.136 C 
HETATM    9  C5  UNL     1       2.363   7.729  42.825  1.00  0.00     0.046 C 
HETATM   10  N4  UNL     1       5.833   8.740  41.918  1.00  0.00    -0.371 N 
HETATM   11  C20 UNL     1       5.310   8.556  40.627  1.00  0.00     0.119 C 
HETATM   12  C21 UNL     1       6.056   7.410  39.963  1.00  0.00     0.037 C 
BRANCH   8  13
HETATM   13  C2  UNL     1       5.245   7.571  43.873  1.00  0.00    -0.008 C 
HETATM   14  C1  UNL     1       5.194   7.755  45.171  1.00  0.00     0.009 C 
ENDBRANCH   8  13
BRANCH  10  15
HETATM   15  C22 UNL     1       7.173   8.556  42.202  1.00  0.00     0.094 C 
BRANCH  15  16
HETATM   16  C23 UNL     1       8.151   9.679  41.976  1.00  0.00     0.184 C 
BRANCH  16  17
HETATM   17  C24 UNL     1       8.904   9.816  43.303  1.00  0.00     0.201 C 
BRANCH  17  18
HETATM   18  O6  UNL     1       8.982   8.509  43.818  1.00  0.00    -0.398 OA
ATOM     19  H6  UNL     1       8.243   8.432  44.411  1.00  0.00     0.209 HD
ENDBRANCH  17  18
ENDBRANCH  16  17
BRANCH  16  20
HETATM   20  O7  UNL     1       8.895   9.482  40.912  1.00  0.00    -0.369 OA
BRANCH  20  21
HETATM   21  C25 UNL     1       8.861  10.060  39.728  1.00  0.00     0.051 C 
HETATM   22  C26 UNL     1       8.959   9.206  38.487  1.00  0.00     0.045 C 
HETATM   23  C27 UNL     1       7.756  11.099  39.548  1.00  0.00     0.045 C 
HETATM   24  C28 UNL     1      10.146  10.929  39.650  1.00  0.00     0.045 C 
ENDBRANCH  20  21
ENDBRANCH  16  20
ENDBRANCH  15  16
ENDBRANCH  10  15
ENDBRANCH   1   6
BRANCH   5  25
HETATM   25  C9  UNL     1       1.925   8.906  36.535  1.00  0.00     0.257 C 
HETATM   26  O2  UNL     1       2.287  10.117  36.610  1.00  0.00    -0.267 OA
HETATM   27  N2  UNL     1       1.093   8.459  35.475  1.00  0.00    -0.343 N 
ATOM     28  H2  UNL     1       0.830   7.473  35.455  1.00  0.00     0.163 HD
BRANCH  27  29
HETATM   29  C10 UNL     1       0.601   9.306  34.436  1.00  0.00     0.177 C 
BRANCH  29  30
HETATM   30  C11 UNL     1      -0.776   9.816  34.867  1.00  0.00     0.044 C 
BRANCH  30  31
HETATM   31  C12 UNL     1      -1.643   8.670  35.335  1.00  0.00     0.113 C 
BRANCH  31  32
HETATM   32  C13 UNL     1      -2.463   9.108  36.509  1.00  0.00     0.259 C 
HETATM   33  O3  UNL     1      -3.659   9.437  36.428  1.00  0.00    -0.265 OA
BRANCH  32  34
HETATM   34  O4  UNL     1      -1.852   9.151  37.761  1.00  0.00    -0.311 OA
BRANCH  34  35
HETATM   35  C14 UNL     1      -2.123   8.292  38.822  1.00  0.00     0.060 C 
HETATM   36  C15 UNL     1      -2.626   6.926  38.413  1.00  0.00     0.045 C 
HETATM   37  C16 UNL     1      -3.074   8.883  39.832  1.00  0.00     0.045 C 
HETATM   38  C17 UNL     1      -0.801   8.069  39.566  1.00  0.00     0.045 C 
ENDBRANCH  34  35
ENDBRANCH  32  34
ENDBRANCH  31  32
ENDBRANCH  30  31
ENDBRANCH  29  30
BRANCH  29  39
HETATM   39  C18 UNL     1       0.568   8.695  33.112  1.00  0.00     0.240 C 
HETATM   40  O5  UNL     1       1.530   7.991  32.714  1.00  0.00    -0.271 OA
HETATM   41  N3  UNL     1      -0.534   8.875  32.252  1.00  0.00    -0.364 N 
HETATM   42  C19 UNL     1      -0.612   8.285  30.927  1.00  0.00     0.149 C 
ATOM     43  H3  UNL     1      -1.314   9.446  32.576  1.00  0.00     0.161 HD
ENDBRANCH  29  39
ENDBRANCH  27  29
ENDBRANCH   5  25
TORSDOF 16
ENDMDL
