MODEL 1
REMARK VINA RESULT: -5.916891440      0.000      0.000
REMARK  11 active torsions:
REMARK  status: ('A' for Active; 'I' for Inactive)
REMARK    1  A    between atoms: C2_2  and  C3_3 
REMARK    2  A    between atoms: C3_3  and  C4_4 
REMARK    3  A    between atoms: C4_4  and  C5_5 
REMARK    4  A    between atoms: C5_5  and  C6_6 
REMARK    5  A    between atoms: C6_6  and  C7_7 
REMARK    6  A    between atoms: C7_7  and  N1_8 
REMARK    7  A    between atoms: C9_10  and  O1_11 
REMARK    8  A    between atoms: C10_13  and  C11_14 
REMARK    9  A    between atoms: C11_14  and  O2_15 
REMARK   10  A    between atoms: C11_14  and  C12_17 
REMARK   11  A    between atoms: C12_17  and  O3_18 
ROOT
HETATM    1  N1  UNL     1       8.444  -0.442  -0.284  1.00  0.00     0.125 N 
HETATM    2  C8  UNL     1       7.821   0.744  -0.849  1.00  0.00     0.309 C 
HETATM    3  C9  UNL     1       8.869   1.761  -1.245  1.00  0.00     0.182 C 
HETATM    4  C10 UNL     1       9.889   1.955  -0.188  1.00  0.00     0.289 C 
HETATM    5  N2  UNL     1      10.581   0.670   0.054  1.00  0.00     0.160 N 
HETATM    6  C13 UNL     1      11.860   0.622  -0.674  1.00  0.00     0.393 C 
HETATM    7  C14 UNL     1      12.887   1.419  -0.065  1.00  0.00     0.106 C 
HETATM    8  N3  UNL     1      13.709   2.072   0.417  1.00  0.00    -0.194 NA
HETATM    9  S1  UNL     1      12.274  -1.138  -0.285  1.00  0.00    -0.115 SA
HETATM   10  C15 UNL     1      10.547  -1.617   0.169  1.00  0.00     0.145 C 
HETATM   11  C16 UNL     1       9.842  -0.430  -0.503  1.00  0.00     0.469 C 
ENDROOT
BRANCH   4  12
HETATM   12  C11 UNL     1       9.389   2.382   1.170  1.00  0.00     0.177 C 
BRANCH  12  13
HETATM   13  O2  UNL     1      10.277   1.748   2.133  1.00  0.00    -0.391 OA
ATOM     14  H2  UNL     1      10.253   2.300   2.906  1.00  0.00     0.210 HD
ENDBRANCH  12  13
BRANCH  12  15
HETATM   15  C12 UNL     1       9.466   3.823   1.502  1.00  0.00     0.198 C 
BRANCH  15  16
HETATM   16  O3  UNL     1       9.658   4.716   0.495  1.00  0.00    -0.398 OA
ATOM     17  H3  UNL     1      10.139   5.514   0.678  1.00  0.00     0.209 HD
ENDBRANCH  15  16
ENDBRANCH  12  15
ENDBRANCH   4  12
BRANCH   3  18
HETATM   18  O1  UNL     1       8.283   2.889  -1.715  1.00  0.00    -0.392 OA
ATOM     19  H1  UNL     1       7.354   2.748  -1.854  1.00  0.00     0.210 HD
ENDBRANCH   3  18
BRANCH   1  20
HETATM   20  C7  UNL     1       7.860  -1.570  -0.987  1.00  0.00     0.275 C 
BRANCH  20  21
HETATM   21  C6  UNL     1       6.664  -1.078  -1.809  1.00  0.00     0.030 C 
BRANCH  21  22
HETATM   22  C5  UNL     1       6.628  -1.793  -3.148  1.00  0.00     0.002 C 
BRANCH  22  23
HETATM   23  C4  UNL     1       5.472  -1.284  -3.947  1.00  0.00     0.000 C 
BRANCH  23  24
HETATM   24  C3  UNL     1       5.933  -0.558  -5.197  1.00  0.00    -0.000 C 
BRANCH  24  25
HETATM   25  C2  UNL     1       5.572   0.913  -5.139  1.00  0.00    -0.005 C 
HETATM   26  C1  UNL     1       6.592   1.628  -4.301  1.00  0.00     0.005 C 
ENDBRANCH  24  25
ENDBRANCH  23  24
ENDBRANCH  22  23
ENDBRANCH  21  22
ENDBRANCH  20  21
ENDBRANCH   1  20
TORSDOF 11
ENDMDL
MODEL 2
REMARK VINA RESULT: -5.872768480      3.006      4.622
REMARK  11 active torsions:
REMARK  status: ('A' for Active; 'I' for Inactive)
REMARK    1  A    between atoms: C2_2  and  C3_3 
REMARK    2  A    between atoms: C3_3  and  C4_4 
REMARK    3  A    between atoms: C4_4  and  C5_5 
REMARK    4  A    between atoms: C5_5  and  C6_6 
REMARK    5  A    between atoms: C6_6  and  C7_7 
REMARK    6  A    between atoms: C7_7  and  N1_8 
REMARK    7  A    between atoms: C9_10  and  O1_11 
REMARK    8  A    between atoms: C10_13  and  C11_14 
REMARK    9  A    between atoms: C11_14  and  O2_15 
REMARK   10  A    between atoms: C11_14  and  C12_17 
REMARK   11  A    between atoms: C12_17  and  O3_18 
ROOT
HETATM    1  N1  UNL     1       7.205  -1.964   0.258  1.00  0.00     0.125 N 
HETATM    2  C8  UNL     1       6.723  -2.138  -1.103  1.00  0.00     0.309 C 
HETATM    3  C9  UNL     1       7.806  -1.788  -2.101  1.00  0.00     0.182 C 
HETATM    4  C10 UNL     1       8.486  -0.515  -1.767  1.00  0.00     0.289 C 
HETATM    5  N2  UNL     1       9.126  -0.645  -0.440  1.00  0.00     0.160 N 
HETATM    6  C13 UNL     1      10.558  -0.960  -0.580  1.00  0.00     0.393 C 
HETATM    7  C14 UNL     1      11.348   0.170  -0.976  1.00  0.00     0.106 C 
HETATM    8  N3  UNL     1      11.983   1.078  -1.308  1.00  0.00    -0.194 NA
HETATM    9  S1  UNL     1      10.905  -1.230   1.216  1.00  0.00    -0.115 SA
HETATM   10  C15 UNL     1       9.137  -1.489   1.689  1.00  0.00     0.145 C 
HETATM   11  C16 UNL     1       8.607  -1.778   0.278  1.00  0.00     0.469 C 
ENDROOT
BRANCH   4  12
HETATM   12  C11 UNL     1       7.616   0.712  -1.653  1.00  0.00     0.177 C 
BRANCH  12  13
HETATM   13  O2  UNL     1       8.259   1.561  -0.662  1.00  0.00    -0.391 OA
ATOM     14  H2  UNL     1       7.581   2.146  -0.347  1.00  0.00     0.210 HD
ENDBRANCH  12  13
BRANCH  12  15
HETATM   15  C12 UNL     1       7.499   1.578  -2.850  1.00  0.00     0.198 C 
BRANCH  15  16
HETATM   16  O3  UNL     1       8.131   1.200  -3.993  1.00  0.00    -0.398 OA
ATOM     17  H3  UNL     1       9.009   1.522  -4.156  1.00  0.00     0.209 HD
ENDBRANCH  15  16
ENDBRANCH  12  15
ENDBRANCH   4  12
BRANCH   3  18
HETATM   18  O1  UNL     1       7.337  -1.893  -3.368  1.00  0.00    -0.392 OA
ATOM     19  H1  UNL     1       7.975  -2.323  -3.925  1.00  0.00     0.210 HD
ENDBRANCH   3  18
BRANCH   1  20
HETATM   20  C7  UNL     1       6.876  -3.194   0.956  1.00  0.00     0.275 C 
BRANCH  20  21
HETATM   21  C6  UNL     1       5.459  -3.624   0.562  1.00  0.00     0.030 C 
BRANCH  21  22
HETATM   22  C5  UNL     1       5.255  -5.093   0.887  1.00  0.00     0.002 C 
BRANCH  22  23
HETATM   23  C4  UNL     1       6.563  -5.809   0.772  1.00  0.00     0.000 C 
BRANCH  23  24
HETATM   24  C3  UNL     1       6.517  -6.886  -0.295  1.00  0.00    -0.000 C 
BRANCH  24  25
HETATM   25  C2  UNL     1       7.827  -6.958  -1.053  1.00  0.00    -0.005 C 
HETATM   26  C1  UNL     1       8.278  -5.562  -1.375  1.00  0.00     0.005 C 
ENDBRANCH  24  25
ENDBRANCH  23  24
ENDBRANCH  22  23
ENDBRANCH  21  22
ENDBRANCH  20  21
ENDBRANCH   1  20
TORSDOF 11
ENDMDL
MODEL 3
REMARK VINA RESULT: -5.872238456      2.473      3.463
REMARK  11 active torsions:
REMARK  status: ('A' for Active; 'I' for Inactive)
REMARK    1  A    between atoms: C2_2  and  C3_3 
REMARK    2  A    between atoms: C3_3  and  C4_4 
REMARK    3  A    between atoms: C4_4  and  C5_5 
REMARK    4  A    between atoms: C5_5  and  C6_6 
REMARK    5  A    between atoms: C6_6  and  C7_7 
REMARK    6  A    between atoms: C7_7  and  N1_8 
REMARK    7  A    between atoms: C9_10  and  O1_11 
REMARK    8  A    between atoms: C10_13  and  C11_14 
REMARK    9  A    between atoms: C11_14  and  O2_15 
REMARK   10  A    between atoms: C11_14  and  C12_17 
REMARK   11  A    between atoms: C12_17  and  O3_18 
ROOT
HETATM    1  N1  UNL     1       8.654   1.134  -0.173  1.00  0.00     0.125 N 
HETATM    2  C8  UNL     1       9.870   1.923  -0.285  1.00  0.00     0.309 C 
HETATM    3  C9  UNL     1      10.622   1.934   1.029  1.00  0.00     0.182 C 
HETATM    4  C10 UNL     1       9.731   2.199   2.183  1.00  0.00     0.289 C 
HETATM    5  N2  UNL     1       8.711   1.131   2.259  1.00  0.00     0.160 N 
HETATM    6  C13 UNL     1       9.097   0.111   3.249  1.00  0.00     0.393 C 
HETATM    7  C14 UNL     1       8.911   0.542   4.605  1.00  0.00     0.106 C 
HETATM    8  N3  UNL     1       8.774   0.895   5.697  1.00  0.00    -0.194 NA
HETATM    9  S1  UNL     1       7.728  -1.080   2.892  1.00  0.00    -0.115 SA
HETATM   10  C15 UNL     1       7.329  -0.377   1.229  1.00  0.00     0.145 C 
HETATM   11  C16 UNL     1       8.644   0.388   1.029  1.00  0.00     0.469 C 
ENDROOT
BRANCH   4  12
HETATM   12  C11 UNL     1       8.938   3.483   2.148  1.00  0.00     0.177 C 
BRANCH  12  13
HETATM   13  O2  UNL     1       8.088   3.453   3.328  1.00  0.00    -0.391 OA
ATOM     14  H2  UNL     1       7.451   4.146   3.204  1.00  0.00     0.210 HD
ENDBRANCH  12  13
BRANCH  12  15
HETATM   15  C12 UNL     1       9.690   4.752   2.276  1.00  0.00     0.198 C 
BRANCH  15  16
HETATM   16  O3  UNL     1      10.159   5.350   1.150  1.00  0.00    -0.398 OA
ATOM     17  H3  UNL     1      10.609   6.183   1.229  1.00  0.00     0.209 HD
ENDBRANCH  15  16
ENDBRANCH  12  15
ENDBRANCH   4  12
BRANCH   3  18
HETATM   18  O1  UNL     1      11.723   2.718   0.940  1.00  0.00    -0.392 OA
ATOM     19  H1  UNL     1      12.036   2.953   1.806  1.00  0.00     0.210 HD
ENDBRANCH   3  18
BRANCH   1  20
HETATM   20  C7  UNL     1       8.668   0.221  -1.302  1.00  0.00     0.275 C 
BRANCH  20  21
HETATM   21  C6  UNL     1       8.394   1.014  -2.584  1.00  0.00     0.030 C 
BRANCH  21  22
HETATM   22  C5  UNL     1       6.897   1.120  -2.817  1.00  0.00     0.002 C 
BRANCH  22  23
HETATM   23  C4  UNL     1       6.646   1.510  -4.238  1.00  0.00     0.000 C 
BRANCH  23  24
HETATM   24  C3  UNL     1       5.650   0.579  -4.903  1.00  0.00    -0.000 C 
BRANCH  24  25
HETATM   25  C2  UNL     1       5.561  -0.742  -4.166  1.00  0.00    -0.005 C 
HETATM   26  C1  UNL     1       5.863  -1.854  -5.128  1.00  0.00     0.005 C 
ENDBRANCH  24  25
ENDBRANCH  23  24
ENDBRANCH  22  23
ENDBRANCH  21  22
ENDBRANCH  20  21
ENDBRANCH   1  20
TORSDOF 11
ENDMDL
MODEL 4
REMARK VINA RESULT: -5.868358892      2.959      4.746
REMARK  11 active torsions:
REMARK  status: ('A' for Active; 'I' for Inactive)
REMARK    1  A    between atoms: C2_2  and  C3_3 
REMARK    2  A    between atoms: C3_3  and  C4_4 
REMARK    3  A    between atoms: C4_4  and  C5_5 
REMARK    4  A    between atoms: C5_5  and  C6_6 
REMARK    5  A    between atoms: C6_6  and  C7_7 
REMARK    6  A    between atoms: C7_7  and  N1_8 
REMARK    7  A    between atoms: C9_10  and  O1_11 
REMARK    8  A    between atoms: C10_13  and  C11_14 
REMARK    9  A    between atoms: C11_14  and  O2_15 
REMARK   10  A    between atoms: C11_14  and  C12_17 
REMARK   11  A    between atoms: C12_17  and  O3_18 
ROOT
HETATM    1  N1  UNL     1       8.370  -0.342  -0.996  1.00  0.00     0.125 N 
HETATM    2  C8  UNL     1       8.796   0.268   0.253  1.00  0.00     0.309 C 
HETATM    3  C9  UNL     1       9.217  -0.792   1.248  1.00  0.00     0.182 C 
HETATM    4  C10 UNL     1       8.247  -1.909   1.322  1.00  0.00     0.289 C 
HETATM    5  N2  UNL     1       8.153  -2.553  -0.006  1.00  0.00     0.160 N 
HETATM    6  C13 UNL     1       8.995  -3.761  -0.060  1.00  0.00     0.393 C 
HETATM    7  C14 UNL     1       8.430  -4.875   0.646  1.00  0.00     0.106 C 
HETATM    8  N3  UNL     1       7.981  -5.768   1.227  1.00  0.00    -0.194 NA
HETATM    9  S1  UNL     1       8.761  -4.117  -1.859  1.00  0.00    -0.115 SA
HETATM   10  C15 UNL     1       8.186  -2.414  -2.291  1.00  0.00     0.145 C 
HETATM   11  C16 UNL     1       8.712  -1.714  -1.031  1.00  0.00     0.469 C 
ENDROOT
BRANCH   4  12
HETATM   12  C11 UNL     1       6.824  -1.551   1.674  1.00  0.00     0.177 C 
BRANCH  12  13
HETATM   13  O2  UNL     1       5.986  -2.395   0.836  1.00  0.00    -0.391 OA
ATOM     14  H2  UNL     1       5.092  -2.130   1.017  1.00  0.00     0.210 HD
ENDBRANCH  12  13
BRANCH  12  15
HETATM   15  C12 UNL     1       6.369  -1.846   3.053  1.00  0.00     0.198 C 
BRANCH  15  16
HETATM   16  O3  UNL     1       7.228  -1.632   4.084  1.00  0.00    -0.398 OA
ATOM     17  H3  UNL     1       6.871  -1.482   4.951  1.00  0.00     0.209 HD
ENDBRANCH  15  16
ENDBRANCH  12  15
ENDBRANCH   4  12
BRANCH   3  18
HETATM   18  O1  UNL     1       9.558  -0.225   2.431  1.00  0.00    -0.392 OA
ATOM     19  H1  UNL     1      10.327  -0.648   2.794  1.00  0.00     0.210 HD
ENDBRANCH   3  18
BRANCH   1  20
HETATM   20  C7  UNL     1       9.089   0.357  -2.045  1.00  0.00     0.275 C 
BRANCH  20  21
HETATM   21  C6  UNL     1       8.273   1.579  -2.478  1.00  0.00     0.030 C 
BRANCH  21  22
HETATM   22  C5  UNL     1       6.869   1.151  -2.868  1.00  0.00     0.002 C 
BRANCH  22  23
HETATM   23  C4  UNL     1       6.603   1.562  -4.281  1.00  0.00     0.000 C 
BRANCH  23  24
HETATM   24  C3  UNL     1       5.634   0.617  -4.964  1.00  0.00    -0.000 C 
BRANCH  24  25
HETATM   25  C2  UNL     1       5.550  -0.706  -4.228  1.00  0.00    -0.005 C 
HETATM   26  C1  UNL     1       5.862  -1.815  -5.190  1.00  0.00     0.005 C 
ENDBRANCH  24  25
ENDBRANCH  23  24
ENDBRANCH  22  23
ENDBRANCH  21  22
ENDBRANCH  20  21
ENDBRANCH   1  20
TORSDOF 11
ENDMDL
MODEL 5
REMARK VINA RESULT: -5.820827265      3.540      5.508
REMARK  11 active torsions:
REMARK  status: ('A' for Active; 'I' for Inactive)
REMARK    1  A    between atoms: C2_2  and  C3_3 
REMARK    2  A    between atoms: C3_3  and  C4_4 
REMARK    3  A    between atoms: C4_4  and  C5_5 
REMARK    4  A    between atoms: C5_5  and  C6_6 
REMARK    5  A    between atoms: C6_6  and  C7_7 
REMARK    6  A    between atoms: C7_7  and  N1_8 
REMARK    7  A    between atoms: C9_10  and  O1_11 
REMARK    8  A    between atoms: C10_13  and  C11_14 
REMARK    9  A    between atoms: C11_14  and  O2_15 
REMARK   10  A    between atoms: C11_14  and  C12_17 
REMARK   11  A    between atoms: C12_17  and  O3_18 
ROOT
HETATM    1  N1  UNL     1       7.232  -2.594  -0.024  1.00  0.00     0.125 N 
HETATM    2  C8  UNL     1       7.798  -2.986  -1.304  1.00  0.00     0.309 C 
HETATM    3  C9  UNL     1       8.790  -1.950  -1.789  1.00  0.00     0.182 C 
HETATM    4  C10 UNL     1       8.268  -0.570  -1.658  1.00  0.00     0.289 C 
HETATM    5  N2  UNL     1       7.992  -0.293  -0.232  1.00  0.00     0.160 N 
HETATM    6  C13 UNL     1       9.105   0.453   0.380  1.00  0.00     0.393 C 
HETATM    7  C14 UNL     1       9.134   1.836   0.000  1.00  0.00     0.106 C 
HETATM    8  N3  UNL     1       9.166   2.947  -0.317  1.00  0.00    -0.194 NA
HETATM    9  S1  UNL     1       8.478   0.407   2.119  1.00  0.00    -0.115 SA
HETATM   10  C15 UNL     1       7.315  -1.003   1.838  1.00  0.00     0.145 C 
HETATM   11  C16 UNL     1       7.948  -1.509   0.534  1.00  0.00     0.469 C 
ENDROOT
BRANCH   4  12
HETATM   12  C11 UNL     1       6.970  -0.264  -2.365  1.00  0.00     0.177 C 
BRANCH  12  13
HETATM   13  O2  UNL     1       6.091   0.296  -1.350  1.00  0.00    -0.391 OA
ATOM     14  H2  UNL     1       6.200   1.238  -1.408  1.00  0.00     0.210 HD
ENDBRANCH  12  13
BRANCH  12  15
HETATM   15  C12 UNL     1       7.001   0.769  -3.426  1.00  0.00     0.198 C 
BRANCH  15  16
HETATM   16  O3  UNL     1       8.185   1.367  -3.723  1.00  0.00    -0.398 OA
ATOM     17  H3  UNL     1       8.716   1.005  -4.422  1.00  0.00     0.209 HD
ENDBRANCH  15  16
ENDBRANCH  12  15
ENDBRANCH   4  12
BRANCH   3  18
HETATM   18  O1  UNL     1       9.272  -2.287  -3.010  1.00  0.00    -0.392 OA
ATOM     19  H1  UNL     1      10.154  -1.953  -3.124  1.00  0.00     0.210 HD
ENDBRANCH   3  18
BRANCH   1  20
HETATM   20  C7  UNL     1       7.369  -3.752   0.841  1.00  0.00     0.275 C 
BRANCH  20  21
HETATM   21  C6  UNL     1       6.458  -4.870   0.322  1.00  0.00     0.030 C 
BRANCH  21  22
HETATM   22  C5  UNL     1       5.422  -5.224   1.374  1.00  0.00     0.002 C 
BRANCH  22  23
HETATM   23  C4  UNL     1       4.498  -4.065   1.565  1.00  0.00     0.000 C 
BRANCH  23  24
HETATM   24  C3  UNL     1       4.429  -3.639   3.019  1.00  0.00    -0.000 C 
BRANCH  24  25
HETATM   25  C2  UNL     1       5.280  -4.540   3.892  1.00  0.00    -0.005 C 
HETATM   26  C1  UNL     1       6.215  -3.687   4.700  1.00  0.00     0.005 C 
ENDBRANCH  24  25
ENDBRANCH  23  24
ENDBRANCH  22  23
ENDBRANCH  21  22
ENDBRANCH  20  21
ENDBRANCH   1  20
TORSDOF 11
ENDMDL
