MODEL 1
REMARK VINA RESULT: -7.581698694      0.000      0.000
REMARK  6 active torsions:
REMARK  status: ('A' for Active; 'I' for Inactive)
REMARK    1  A    between atoms: N1_2  and  C2_5 
REMARK    2  A    between atoms: C6_9  and  O1_10 
REMARK    3  A    between atoms: C15_20  and  C16_21 
REMARK    4  A    between atoms: C16_21  and  C18_23 
REMARK    5  A    between atoms: C26_31  and  C27_32 
REMARK    6  A    between atoms: C27_32  and  O2_33 
ROOT
HETATM    1  C2  UNL     1      15.295  -7.571  13.446  1.00  0.00     0.197 C 
HETATM    2  C3  UNL     1      14.978  -8.382  14.679  1.00  0.00     0.039 C 
HETATM    3  C4  UNL     1      15.799  -8.055  15.867  1.00  0.00    -0.002 C 
HETATM    4  C5  UNL     1      17.147  -8.756  15.689  1.00  0.00     0.037 C 
HETATM    5  C6  UNL     1      17.689  -8.994  17.086  1.00  0.00     0.118 C 
HETATM    6  C7  UNL     1      17.499  -7.680  17.830  1.00  0.00     0.032 C 
HETATM    7  C8  UNL     1      17.337  -6.525  16.886  1.00  0.00     0.012 C 
HETATM    8  C9  UNL     1      15.973  -6.581  16.153  1.00  0.00    -0.036 C 
HETATM    9  C10 UNL     1      15.005  -6.086  17.199  1.00  0.00     0.016 C 
HETATM   10  C11 UNL     1      16.103  -5.737  14.947  1.00  0.00     0.007 C 
HETATM   11  C12 UNL     1      15.927  -4.287  15.285  1.00  0.00     0.007 C 
HETATM   12  C13 UNL     1      16.246  -3.371  14.138  1.00  0.00     0.006 C 
HETATM   13  C14 UNL     1      15.611  -3.812  12.830  1.00  0.00    -0.005 C 
HETATM   14  C15 UNL     1      16.045  -2.939  11.709  1.00  0.00    -0.006 C 
HETATM   15  C21 UNL     1      17.141  -3.544  10.861  1.00  0.00     0.006 C 
HETATM   16  C22 UNL     1      16.739  -4.952  10.436  1.00  0.00     0.005 C 
HETATM   17  C23 UNL     1      16.848  -5.735  11.769  1.00  0.00    -0.013 C 
HETATM   18  C24 UNL     1      18.224  -5.615  12.210  1.00  0.00     0.010 C 
HETATM   19  C25 UNL     1      15.700  -5.279  12.567  1.00  0.00     0.007 C 
HETATM   20  C26 UNL     1      15.274  -6.092  13.753  1.00  0.00     0.018 C 
ENDROOT
BRANCH  14  21
HETATM   21  C16 UNL     1      14.986  -2.387  10.821  1.00  0.00    -0.010 C 
HETATM   22  C17 UNL     1      15.531  -1.396   9.827  1.00  0.00     0.011 C 
BRANCH  21  23
HETATM   23  C18 UNL     1      13.782  -1.834  11.471  1.00  0.00    -0.010 A 
HETATM   24  C19 UNL     1      12.479  -2.539  11.074  1.00  0.00     0.005 A 
HETATM   25  C20 UNL     1      12.688  -1.109  10.730  1.00  0.00     0.005 A 
ENDBRANCH  21  23
ENDBRANCH  14  21
BRANCH  20  26
HETATM   26  C27 UNL     1      13.813  -5.745  14.013  1.00  0.00     0.176 C 
BRANCH  26  27
HETATM   27  O2  UNL     1      13.095  -5.478  12.850  1.00  0.00    -0.400 OA
ATOM     28  H2  UNL     1      12.813  -4.574  12.781  1.00  0.00     0.209 HD
ENDBRANCH  26  27
ENDBRANCH  20  26
BRANCH   1  29
HETATM   29  N1  UNL     1      14.372  -7.938  12.433  1.00  0.00    -0.074 N 
HETATM   30  C1  UNL     1      13.493  -9.031  12.809  1.00  0.00     0.267 C 
ATOM     31  H12 UNL     1      14.859  -8.151  11.562  1.00  0.00     0.277 HD
ATOM     32  H11 UNL     1      13.829  -7.128  12.131  1.00  0.00     0.277 HD
ENDBRANCH   1  29
BRANCH   5  33
HETATM   33  O1  UNL     1      19.019  -9.354  16.973  1.00  0.00    -0.396 OA
ATOM     34  H1  UNL     1      19.064 -10.301  16.913  1.00  0.00     0.210 HD
ENDBRANCH   5  33
TORSDOF 6
ENDMDL
MODEL 2
REMARK VINA RESULT: -7.074760056      1.189      1.391
REMARK  6 active torsions:
REMARK  status: ('A' for Active; 'I' for Inactive)
REMARK    1  A    between atoms: N1_2  and  C2_5 
REMARK    2  A    between atoms: C6_9  and  O1_10 
REMARK    3  A    between atoms: C15_20  and  C16_21 
REMARK    4  A    between atoms: C16_21  and  C18_23 
REMARK    5  A    between atoms: C26_31  and  C27_32 
REMARK    6  A    between atoms: C27_32  and  O2_33 
ROOT
HETATM    1  C2  UNL     1      14.644  -8.415  14.249  1.00  0.00     0.197 C 
HETATM    2  C3  UNL     1      14.188  -9.171  15.475  1.00  0.00     0.039 C 
HETATM    3  C4  UNL     1      15.057  -9.014  16.662  1.00  0.00    -0.002 C 
HETATM    4  C5  UNL     1      16.254  -9.946  16.469  1.00  0.00     0.037 C 
HETATM    5  C6  UNL     1      16.748 -10.297  17.861  1.00  0.00     0.118 C 
HETATM    6  C7  UNL     1      16.802  -8.980  18.621  1.00  0.00     0.032 C 
HETATM    7  C8  UNL     1      16.851  -7.802  17.692  1.00  0.00     0.012 C 
HETATM    8  C9  UNL     1      15.497  -7.600  16.965  1.00  0.00    -0.036 C 
HETATM    9  C10 UNL     1      14.639  -6.950  18.021  1.00  0.00     0.016 C 
HETATM   10  C11 UNL     1      15.776  -6.778  15.768  1.00  0.00     0.007 C 
HETATM   11  C12 UNL     1      15.868  -5.325  16.124  1.00  0.00     0.007 C 
HETATM   12  C13 UNL     1      16.346  -4.469  14.987  1.00  0.00     0.006 C 
HETATM   13  C14 UNL     1      15.638  -4.770  13.677  1.00  0.00    -0.005 C 
HETATM   14  C15 UNL     1      16.220  -3.977  12.564  1.00  0.00    -0.006 C 
HETATM   15  C21 UNL     1      17.185  -4.760  11.704  1.00  0.00     0.006 C 
HETATM   16  C22 UNL     1      16.533  -6.066  11.264  1.00  0.00     0.005 C 
HETATM   17  C23 UNL     1      16.501  -6.873  12.586  1.00  0.00    -0.013 C 
HETATM   18  C24 UNL     1      17.877  -7.010  13.023  1.00  0.00     0.010 C 
HETATM   19  C25 UNL     1      15.457  -6.225  13.395  1.00  0.00     0.007 C 
HETATM   20  C26 UNL     1      14.894  -6.962  14.574  1.00  0.00     0.018 C 
ENDROOT
BRANCH  14  21
HETATM   21  C16 UNL     1      15.278  -3.230  11.687  1.00  0.00    -0.010 C 
HETATM   22  C17 UNL     1      15.990  -2.310  10.731  1.00  0.00     0.011 C 
BRANCH  21  23
HETATM   23  C18 UNL     1      14.173  -2.508  12.347  1.00  0.00    -0.010 A 
HETATM   24  C19 UNL     1      12.777  -2.938  11.877  1.00  0.00     0.005 A 
HETATM   25  C20 UNL     1      13.252  -1.551  11.633  1.00  0.00     0.005 A 
ENDBRANCH  21  23
ENDBRANCH  14  21
BRANCH  20  26
HETATM   26  C27 UNL     1      13.521  -6.357  14.845  1.00  0.00     0.176 C 
BRANCH  26  27
HETATM   27  O2  UNL     1      12.856  -5.958  13.688  1.00  0.00    -0.400 OA
ATOM     28  H2  UNL     1      11.956  -6.258  13.649  1.00  0.00     0.209 HD
ENDBRANCH  26  27
ENDBRANCH  20  26
BRANCH   1  29
HETATM   29  N1  UNL     1      13.667  -8.595  13.237  1.00  0.00    -0.074 N 
HETATM   30  C1  UNL     1      12.692  -9.629  13.540  1.00  0.00     0.267 C 
ATOM     31  H12 UNL     1      14.111  -8.773  12.336  1.00  0.00     0.277 HD
ATOM     32  H11 UNL     1      13.201  -7.713  13.026  1.00  0.00     0.277 HD
ENDBRANCH   1  29
BRANCH   5  33
HETATM   33  O1  UNL     1      17.990 -10.891  17.737  1.00  0.00    -0.396 OA
ATOM     34  H1  UNL     1      18.522 -10.617  18.475  1.00  0.00     0.210 HD
ENDBRANCH   5  33
TORSDOF 6
ENDMDL
MODEL 3
REMARK VINA RESULT: -6.981520621      2.410      4.059
REMARK  6 active torsions:
REMARK  status: ('A' for Active; 'I' for Inactive)
REMARK    1  A    between atoms: N1_2  and  C2_5 
REMARK    2  A    between atoms: C6_9  and  O1_10 
REMARK    3  A    between atoms: C15_20  and  C16_21 
REMARK    4  A    between atoms: C16_21  and  C18_23 
REMARK    5  A    between atoms: C26_31  and  C27_32 
REMARK    6  A    between atoms: C27_32  and  O2_33 
ROOT
HETATM    1  C2  UNL     1      15.464  -7.617  15.153  1.00  0.00     0.197 C 
HETATM    2  C3  UNL     1      14.874  -8.947  15.560  1.00  0.00     0.039 C 
HETATM    3  C4  UNL     1      13.431  -8.913  15.886  1.00  0.00    -0.002 C 
HETATM    4  C5  UNL     1      13.305  -8.364  17.308  1.00  0.00     0.037 C 
HETATM    5  C6  UNL     1      12.015  -8.933  17.869  1.00  0.00     0.118 C 
HETATM    6  C7  UNL     1      10.971  -8.735  16.780  1.00  0.00     0.032 C 
HETATM    7  C8  UNL     1      11.381  -7.674  15.802  1.00  0.00     0.012 C 
HETATM    8  C9  UNL     1      12.561  -8.148  14.916  1.00  0.00    -0.036 C 
HETATM    9  C10 UNL     1      11.891  -9.055  13.914  1.00  0.00     0.016 C 
HETATM   10  C11 UNL     1      13.191  -6.931  14.360  1.00  0.00     0.007 C 
HETATM   11  C12 UNL     1      12.427  -6.426  13.173  1.00  0.00     0.007 C 
HETATM   12  C13 UNL     1      12.904  -5.086  12.693  1.00  0.00     0.006 C 
HETATM   13  C14 UNL     1      14.416  -5.000  12.573  1.00  0.00    -0.005 C 
HETATM   14  C15 UNL     1      14.842  -3.626  12.201  1.00  0.00    -0.006 C 
HETATM   15  C21 UNL     1      15.338  -2.809  13.373  1.00  0.00     0.006 C 
HETATM   16  C22 UNL     1      16.390  -3.603  14.139  1.00  0.00     0.005 C 
HETATM   17  C23 UNL     1      15.536  -4.707  14.813  1.00  0.00    -0.013 C 
HETATM   18  C24 UNL     1      14.569  -4.028  15.654  1.00  0.00     0.010 C 
HETATM   19  C25 UNL     1      15.160  -5.611  13.715  1.00  0.00     0.007 C 
HETATM   20  C26 UNL     1      14.653  -6.982  14.048  1.00  0.00     0.018 C 
ENDROOT
BRANCH  14  21
HETATM   21  C16 UNL     1      15.797  -3.487  11.068  1.00  0.00    -0.010 C 
HETATM   22  C17 UNL     1      16.826  -4.585  11.046  1.00  0.00     0.011 C 
BRANCH  21  23
HETATM   23  C18 UNL     1      16.457  -2.178  10.901  1.00  0.00    -0.010 A 
HETATM   24  C19 UNL     1      16.017  -1.412   9.646  1.00  0.00     0.005 A 
HETATM   25  C20 UNL     1      17.426  -1.864   9.789  1.00  0.00     0.005 A 
ENDBRANCH  21  23
ENDBRANCH  14  21
BRANCH  20  26
HETATM   26  C27 UNL     1      14.892  -7.842  12.814  1.00  0.00     0.176 C 
BRANCH  26  27
HETATM   27  O2  UNL     1      16.165  -7.687  12.271  1.00  0.00    -0.400 OA
ATOM     28  H2  UNL     1      16.719  -8.450  12.386  1.00  0.00     0.209 HD
ENDBRANCH  26  27
ENDBRANCH  20  26
BRANCH   1  29
HETATM   29  N1  UNL     1      16.819  -7.834  14.789  1.00  0.00    -0.074 N 
HETATM   30  C1  UNL     1      17.766  -7.528  15.847  1.00  0.00     0.267 C 
ATOM     31  H12 UNL     1      17.050  -7.319  13.940  1.00  0.00     0.277 HD
ATOM     32  H11 UNL     1      16.952  -8.787  14.452  1.00  0.00     0.277 HD
ENDBRANCH   1  29
BRANCH   5  33
HETATM   33  O1  UNL     1      11.711  -8.241  19.028  1.00  0.00    -0.396 OA
ATOM     34  H1  UNL     1      12.522  -7.906  19.391  1.00  0.00     0.210 HD
ENDBRANCH   5  33
TORSDOF 6
ENDMDL
MODEL 4
REMARK VINA RESULT: -6.891970576      2.349      3.932
REMARK  6 active torsions:
REMARK  status: ('A' for Active; 'I' for Inactive)
REMARK    1  A    between atoms: N1_2  and  C2_5 
REMARK    2  A    between atoms: C6_9  and  O1_10 
REMARK    3  A    between atoms: C15_20  and  C16_21 
REMARK    4  A    between atoms: C16_21  and  C18_23 
REMARK    5  A    between atoms: C26_31  and  C27_32 
REMARK    6  A    between atoms: C27_32  and  O2_33 
ROOT
HETATM    1  C2  UNL     1      16.556  -6.708  15.858  1.00  0.00     0.197 C 
HETATM    2  C3  UNL     1      16.330  -8.038  16.539  1.00  0.00     0.039 C 
HETATM    3  C4  UNL     1      14.910  -8.385  16.769  1.00  0.00    -0.002 C 
HETATM    4  C5  UNL     1      14.453  -7.614  18.008  1.00  0.00     0.037 C 
HETATM    5  C6  UNL     1      13.323  -8.423  18.618  1.00  0.00     0.118 C 
HETATM    6  C7  UNL     1      12.412  -8.795  17.458  1.00  0.00     0.032 C 
HETATM    7  C8  UNL     1      12.616  -7.892  16.277  1.00  0.00     0.012 C 
HETATM    8  C9  UNL     1      13.984  -8.152  15.597  1.00  0.00    -0.036 C 
HETATM    9  C10 UNL     1      13.736  -9.413  14.807  1.00  0.00     0.016 C 
HETATM   10  C11 UNL     1      14.300  -6.947  14.801  1.00  0.00     0.007 C 
HETATM   11  C12 UNL     1      13.577  -6.967  13.487  1.00  0.00     0.007 C 
HETATM   12  C13 UNL     1      13.702  -5.679  12.726  1.00  0.00     0.006 C 
HETATM   13  C14 UNL     1      15.127  -5.156  12.672  1.00  0.00    -0.005 C 
HETATM   14  C15 UNL     1      15.181  -3.829  12.005  1.00  0.00    -0.006 C 
HETATM   15  C21 UNL     1      15.269  -2.670  12.972  1.00  0.00     0.006 C 
HETATM   16  C22 UNL     1      16.401  -2.916  13.963  1.00  0.00     0.005 C 
HETATM   17  C23 UNL     1      15.825  -4.061  14.834  1.00  0.00    -0.013 C 
HETATM   18  C24 UNL     1      14.606  -3.555  15.434  1.00  0.00     0.010 C 
HETATM   19  C25 UNL     1      15.867  -5.249  13.966  1.00  0.00     0.007 C 
HETATM   20  C26 UNL     1      15.741  -6.606  14.591  1.00  0.00     0.018 C 
ENDROOT
BRANCH  14  21
HETATM   21  C16 UNL     1      16.188  -3.644  10.926  1.00  0.00    -0.010 C 
HETATM   22  C17 UNL     1      17.230  -4.731  10.920  1.00  0.00     0.011 C 
BRANCH  21  23
HETATM   23  C18 UNL     1      16.841  -2.324  10.834  1.00  0.00    -0.010 A 
HETATM   24  C19 UNL     1      16.466  -1.528   9.577  1.00  0.00     0.005 A 
HETATM   25  C20 UNL     1      17.869  -1.969   9.789  1.00  0.00     0.005 A 
ENDBRANCH  21  23
ENDBRANCH  14  21
BRANCH  20  26
HETATM   26  C27 UNL     1      16.371  -7.591  13.614  1.00  0.00     0.176 C 
BRANCH  26  27
HETATM   27  O2  UNL     1      17.595  -7.160  13.109  1.00  0.00    -0.400 OA
ATOM     28  H2  UNL     1      17.537  -6.814  12.226  1.00  0.00     0.209 HD
ENDBRANCH  26  27
ENDBRANCH  20  26
BRANCH   1  29
HETATM   29  N1  UNL     1      17.950  -6.566  15.632  1.00  0.00    -0.074 N 
HETATM   30  C1  UNL     1      18.773  -7.362  16.525  1.00  0.00     0.267 C 
ATOM     31  H12 UNL     1      18.222  -5.583  15.672  1.00  0.00     0.277 HD
ATOM     32  H11 UNL     1      18.178  -6.766  14.658  1.00  0.00     0.277 HD
ENDBRANCH   1  29
BRANCH   5  33
HETATM   33  O1  UNL     1      12.690  -7.631  19.559  1.00  0.00    -0.396 OA
ATOM     34  H1  UNL     1      11.756  -7.794  19.499  1.00  0.00     0.210 HD
ENDBRANCH   5  33
TORSDOF 6
ENDMDL
MODEL 5
REMARK VINA RESULT: -6.810078591      2.422      6.543
REMARK  6 active torsions:
REMARK  status: ('A' for Active; 'I' for Inactive)
REMARK    1  A    between atoms: N1_2  and  C2_5 
REMARK    2  A    between atoms: C6_9  and  O1_10 
REMARK    3  A    between atoms: C15_20  and  C16_21 
REMARK    4  A    between atoms: C16_21  and  C18_23 
REMARK    5  A    between atoms: C26_31  and  C27_32 
REMARK    6  A    between atoms: C27_32  and  O2_33 
ROOT
HETATM    1  C2  UNL     1      16.232  -4.936  14.352  1.00  0.00     0.197 C 
HETATM    2  C3  UNL     1      16.624  -3.495  14.127  1.00  0.00     0.039 C 
HETATM    3  C4  UNL     1      16.082  -2.888  12.890  1.00  0.00    -0.002 C 
HETATM    4  C5  UNL     1      16.965  -3.363  11.734  1.00  0.00     0.037 C 
HETATM    5  C6  UNL     1      16.870  -2.294  10.661  1.00  0.00     0.118 C 
HETATM    6  C7  UNL     1      15.388  -1.973  10.531  1.00  0.00     0.032 C 
HETATM    7  C8  UNL     1      14.530  -3.077  11.074  1.00  0.00     0.012 C 
HETATM    8  C9  UNL     1      14.620  -3.156  12.619  1.00  0.00    -0.036 C 
HETATM    9  C10 UNL     1      13.740  -2.017  13.069  1.00  0.00     0.016 C 
HETATM   10  C11 UNL     1      14.166  -4.510  13.003  1.00  0.00     0.007 C 
HETATM   11  C12 UNL     1      12.669  -4.587  13.029  1.00  0.00     0.007 C 
HETATM   12  C13 UNL     1      12.154  -5.985  13.216  1.00  0.00     0.006 C 
HETATM   13  C14 UNL     1      12.860  -6.734  14.333  1.00  0.00    -0.005 C 
HETATM   14  C15 UNL     1      12.392  -8.142  14.406  1.00  0.00    -0.006 C 
HETATM   15  C21 UNL     1      13.337  -9.127  13.757  1.00  0.00     0.006 C 
HETATM   16  C22 UNL     1      14.748  -8.910  14.293  1.00  0.00     0.005 C 
HETATM   17  C23 UNL     1      15.138  -7.560  13.639  1.00  0.00    -0.013 C 
HETATM   18  C24 UNL     1      15.069  -7.758  12.204  1.00  0.00     0.010 C 
HETATM   19  C25 UNL     1      14.342  -6.553  14.356  1.00  0.00     0.007 C 
HETATM   20  C26 UNL     1      14.735  -5.110  14.250  1.00  0.00     0.018 C 
ENDROOT
BRANCH  14  21
HETATM   21  C16 UNL     1      11.983  -8.662  15.740  1.00  0.00    -0.010 C 
HETATM   22  C17 UNL     1      10.576  -8.267  16.102  1.00  0.00     0.011 C 
BRANCH  21  23
HETATM   23  C18 UNL     1      12.888  -8.391  16.874  1.00  0.00    -0.010 A 
HETATM   24  C19 UNL     1      13.433  -9.655  17.552  1.00  0.00     0.005 A 
HETATM   25  C20 UNL     1      12.556  -8.722  18.307  1.00  0.00     0.005 A 
ENDBRANCH  21  23
ENDBRANCH  14  21
BRANCH  20  26
HETATM   26  C27 UNL     1      14.154  -4.412  15.474  1.00  0.00     0.176 C 
BRANCH  26  27
HETATM   27  O2  UNL     1      14.138  -5.216  16.611  1.00  0.00    -0.400 OA
ATOM     28  H2  UNL     1      14.330  -4.740  17.410  1.00  0.00     0.209 HD
ENDBRANCH  26  27
ENDBRANCH  20  26
BRANCH   1  29
HETATM   29  N1  UNL     1      16.750  -5.338  15.610  1.00  0.00    -0.074 N 
HETATM   30  C1  UNL     1      17.664  -6.463  15.535  1.00  0.00     0.267 C 
ATOM     31  H12 UNL     1      15.993  -5.532  16.265  1.00  0.00     0.277 HD
ATOM     32  H11 UNL     1      17.188  -4.550  16.086  1.00  0.00     0.277 HD
ENDBRANCH   1  29
BRANCH   5  33
HETATM   33  O1  UNL     1      17.407  -2.809   9.495  1.00  0.00    -0.396 OA
ATOM     34  H1  UNL     1      18.082  -2.213   9.195  1.00  0.00     0.210 HD
ENDBRANCH   5  33
TORSDOF 6
ENDMDL
