MODEL 1
REMARK VINA RESULT: -4.971297427      0.000      0.000
REMARK  12 active torsions:
REMARK  status: ('A' for Active; 'I' for Inactive)
REMARK    1  A    between atoms: C3_7  and  N3_8 
REMARK    2  A    between atoms: N3_8  and  N4_10 
REMARK    3  A    between atoms: C5_14  and  N5_15 
REMARK    4  A    between atoms: N5_15  and  C6_17 
REMARK    5  A    between atoms: C6_17  and  O2_18 
REMARK    6  A    between atoms: C6_17  and  C7_20 
REMARK    7  A    between atoms: C7_20  and  O3_21 
REMARK    8  A    between atoms: C7_20  and  C8_23 
REMARK    9  A    between atoms: C8_23  and  O4_24 
REMARK   10  A    between atoms: C8_23  and  C9_26 
REMARK   11  A    between atoms: C9_26  and  O5_27 
REMARK   12  A    between atoms: C9_26  and  O6_29 
ROOT
HETATM    1  C1  UNL     1     -68.041  -7.678   6.346  1.00  0.00     0.163 C 
HETATM    2  N1  UNL     1     -66.692  -8.252   6.251  1.00  0.00    -0.289 N 
HETATM    3  C2  UNL     1     -66.443  -9.117   5.251  1.00  0.00     0.329 A 
HETATM    4  O1  UNL     1     -67.314  -9.443   4.408  1.00  0.00    -0.246 OA
HETATM    5  N2  UNL     1     -65.223  -9.668   5.126  1.00  0.00    -0.292 N 
ATOM      6  H2  UNL     1     -65.028 -10.323   4.369  1.00  0.00     0.172 HD
HETATM    7  C3  UNL     1     -64.274  -9.347   6.001  1.00  0.00     0.141 A 
HETATM    8  C4  UNL     1     -64.493  -8.464   7.039  1.00  0.00     0.098 A 
HETATM    9  C5  UNL     1     -63.521  -8.112   7.965  1.00  0.00     0.122 A 
HETATM   10  N6  UNL     1     -63.793  -7.244   8.959  1.00  0.00    -0.338 N 
ATOM     11  H6  UNL     1     -63.071  -6.993   9.635  1.00  0.00     0.168 HD
HETATM   12  C10 UNL     1     -65.018  -6.717   9.050  1.00  0.00     0.183 A 
HETATM   13  N7  UNL     1     -65.982  -7.048   8.155  1.00  0.00    -0.337 N 
ATOM     14  H7  UNL     1     -66.909  -6.632   8.246  1.00  0.00     0.168 HD
HETATM   15  C11 UNL     1     -65.749  -7.911   7.150  1.00  0.00     0.130 A 
ENDROOT
BRANCH   9  16
HETATM   16  N5  UNL     1     -62.373  -8.657   7.814  1.00  0.00    -0.347 N 
ATOM     17  H5  UNL     1     -61.983  -8.705   6.873  1.00  0.00     0.163 HD
BRANCH  16  18
HETATM   18  C6  UNL     1     -61.590  -9.215   8.914  1.00  0.00     0.250 C 
BRANCH  18  19
HETATM   19  O2  UNL     1     -60.936  -8.070   9.450  1.00  0.00    -0.374 OA
ATOM     20  H2  UNL     1     -60.431  -8.432  10.168  1.00  0.00     0.212 HD
ENDBRANCH  18  19
BRANCH  18  21
HETATM   21  C7  UNL     1     -60.532 -10.140   8.416  1.00  0.00     0.200 C 
BRANCH  21  22
HETATM   22  O3  UNL     1     -59.251  -9.859   8.815  1.00  0.00    -0.388 OA
ATOM     23  H3  UNL     1     -58.578  -9.954   8.153  1.00  0.00     0.210 HD
ENDBRANCH  21  22
BRANCH  21  24
HETATM   24  C8  UNL     1     -60.952 -11.566   8.449  1.00  0.00     0.206 C 
BRANCH  24  25
HETATM   25  O4  UNL     1     -62.392 -11.535   8.337  1.00  0.00    -0.388 OA
ATOM     26  H4  UNL     1     -62.684 -12.370   8.685  1.00  0.00     0.210 HD
ENDBRANCH  24  25
BRANCH  24  27
HETATM   27  C9  UNL     1     -60.450 -12.445   7.355  1.00  0.00     0.285 C 
BRANCH  27  28
HETATM   28  O5  UNL     1     -60.665 -11.966   6.087  1.00  0.00    -0.369 OA
ATOM     29  H5  UNL     1     -60.122 -11.226   5.844  1.00  0.00     0.212 HD
ENDBRANCH  27  28
BRANCH  27  30
HETATM   30  O6  UNL     1     -59.048 -12.580   7.502  1.00  0.00    -0.369 OA
ATOM     31  H6  UNL     1     -58.763 -11.991   8.190  1.00  0.00     0.212 HD
ENDBRANCH  27  30
ENDBRANCH  24  27
ENDBRANCH  21  24
ENDBRANCH  18  21
ENDBRANCH  16  18
ENDBRANCH   9  16
BRANCH   7  32
HETATM   32  N3  UNL     1     -63.094  -9.857   5.908  1.00  0.00    -0.291 N 
ATOM     33  H3  UNL     1     -62.487  -9.855   6.728  1.00  0.00     0.188 HD
BRANCH  32  34
HETATM   34  N4  UNL     1     -62.622 -10.414   4.718  1.00  0.00    -0.344 N 
ATOM     35  H42 UNL     1     -62.290  -9.781   3.990  1.00  0.00     0.176 HD
ATOM     36  H41 UNL     1     -62.602 -11.422   4.564  1.00  0.00     0.176 HD
ENDBRANCH  32  34
ENDBRANCH   7  32
TORSDOF 12
ENDMDL
MODEL 2
REMARK VINA RESULT: -4.910914797      1.673      2.729
REMARK  12 active torsions:
REMARK  status: ('A' for Active; 'I' for Inactive)
REMARK    1  A    between atoms: C3_7  and  N3_8 
REMARK    2  A    between atoms: N3_8  and  N4_10 
REMARK    3  A    between atoms: C5_14  and  N5_15 
REMARK    4  A    between atoms: N5_15  and  C6_17 
REMARK    5  A    between atoms: C6_17  and  O2_18 
REMARK    6  A    between atoms: C6_17  and  C7_20 
REMARK    7  A    between atoms: C7_20  and  O3_21 
REMARK    8  A    between atoms: C7_20  and  C8_23 
REMARK    9  A    between atoms: C8_23  and  O4_24 
REMARK   10  A    between atoms: C8_23  and  C9_26 
REMARK   11  A    between atoms: C9_26  and  O5_27 
REMARK   12  A    between atoms: C9_26  and  O6_29 
ROOT
HETATM    1  C1  UNL     1     -68.883 -10.069   3.852  1.00  0.00     0.163 C 
HETATM    2  N1  UNL     1     -67.522  -9.938   4.389  1.00  0.00    -0.289 N 
HETATM    3  C2  UNL     1     -66.581 -10.786   3.939  1.00  0.00     0.329 A 
HETATM    4  O1  UNL     1     -66.825 -11.674   3.084  1.00  0.00    -0.246 OA
HETATM    5  N2  UNL     1     -65.322 -10.704   4.402  1.00  0.00    -0.292 N 
ATOM      6  H2  UNL     1     -64.603 -11.343   4.064  1.00  0.00     0.172 HD
HETATM    7  C3  UNL     1     -65.025  -9.776   5.309  1.00  0.00     0.141 A 
HETATM    8  C4  UNL     1     -65.965  -8.889   5.795  1.00  0.00     0.098 A 
HETATM    9  C5  UNL     1     -65.681  -7.913   6.740  1.00  0.00     0.122 A 
HETATM   10  N6  UNL     1     -66.640  -7.074   7.178  1.00  0.00    -0.338 N 
ATOM     11  H6  UNL     1     -66.422  -6.360   7.873  1.00  0.00     0.168 HD
HETATM   12  C10 UNL     1     -67.881  -7.187   6.692  1.00  0.00     0.183 A 
HETATM   13  N7  UNL     1     -68.178  -8.135   5.767  1.00  0.00    -0.337 N 
ATOM     14  H7  UNL     1     -69.131  -8.201   5.412  1.00  0.00     0.168 HD
HETATM   15  C11 UNL     1     -67.248  -8.991   5.307  1.00  0.00     0.130 A 
ENDROOT
BRANCH   9  16
HETATM   16  N5  UNL     1     -64.474  -7.865   7.158  1.00  0.00    -0.347 N 
ATOM     17  H5  UNL     1     -63.723  -7.937   6.471  1.00  0.00     0.163 HD
BRANCH  16  18
HETATM   18  C6  UNL     1     -64.109  -7.713   8.565  1.00  0.00     0.250 C 
BRANCH  18  19
HETATM   19  O2  UNL     1     -64.256  -6.314   8.781  1.00  0.00    -0.374 OA
ATOM     20  H2  UNL     1     -64.249  -6.244   9.728  1.00  0.00     0.212 HD
ENDBRANCH  18  19
BRANCH  18  21
HETATM   21  C7  UNL     1     -62.674  -8.050   8.796  1.00  0.00     0.200 C 
BRANCH  21  22
HETATM   22  O3  UNL     1     -61.910  -7.068   9.370  1.00  0.00    -0.388 OA
ATOM     23  H3  UNL     1     -61.017  -6.998   9.056  1.00  0.00     0.210 HD
ENDBRANCH  21  22
BRANCH  21  24
HETATM   24  C8  UNL     1     -62.484  -9.435   9.302  1.00  0.00     0.206 C 
BRANCH  24  25
HETATM   25  O4  UNL     1     -63.668 -10.152   8.889  1.00  0.00    -0.388 OA
ATOM     26  H4  UNL     1     -63.578 -11.017   9.269  1.00  0.00     0.210 HD
ENDBRANCH  24  25
BRANCH  24  27
HETATM   27  C9  UNL     1     -61.312 -10.193   8.776  1.00  0.00     0.285 C 
BRANCH  27  28
HETATM   28  O5  UNL     1     -61.499 -10.753   7.537  1.00  0.00    -0.369 OA
ATOM     29  H5  UNL     1     -61.826 -11.645   7.549  1.00  0.00     0.212 HD
ENDBRANCH  27  28
BRANCH  27  30
HETATM   30  O6  UNL     1     -60.224  -9.296   8.652  1.00  0.00    -0.369 OA
ATOM     31  H6  UNL     1     -59.422  -9.804   8.617  1.00  0.00     0.212 HD
ENDBRANCH  27  30
ENDBRANCH  24  27
ENDBRANCH  21  24
ENDBRANCH  18  21
ENDBRANCH  16  18
ENDBRANCH   9  16
BRANCH   7  32
HETATM   32  N3  UNL     1     -63.827  -9.670   5.774  1.00  0.00    -0.291 N 
ATOM     33  H3  UNL     1     -63.690  -9.275   6.704  1.00  0.00     0.188 HD
BRANCH  32  34
HETATM   34  N4  UNL     1     -62.712 -10.082   5.041  1.00  0.00    -0.344 N 
ATOM     35  H42 UNL     1     -62.857 -10.741   4.277  1.00  0.00     0.176 HD
ATOM     36  H41 UNL     1     -61.773  -9.742   5.251  1.00  0.00     0.176 HD
ENDBRANCH  32  34
ENDBRANCH   7  32
TORSDOF 12
ENDMDL
MODEL 3
REMARK VINA RESULT: -4.902188911      7.618      9.740
REMARK  12 active torsions:
REMARK  status: ('A' for Active; 'I' for Inactive)
REMARK    1  A    between atoms: C3_7  and  N3_8 
REMARK    2  A    between atoms: N3_8  and  N4_10 
REMARK    3  A    between atoms: C5_14  and  N5_15 
REMARK    4  A    between atoms: N5_15  and  C6_17 
REMARK    5  A    between atoms: C6_17  and  O2_18 
REMARK    6  A    between atoms: C6_17  and  C7_20 
REMARK    7  A    between atoms: C7_20  and  O3_21 
REMARK    8  A    between atoms: C7_20  and  C8_23 
REMARK    9  A    between atoms: C8_23  and  O4_24 
REMARK   10  A    between atoms: C8_23  and  C9_26 
REMARK   11  A    between atoms: C9_26  and  O5_27 
REMARK   12  A    between atoms: C9_26  and  O6_29 
ROOT
HETATM    1  C1  UNL     1     -71.386  -4.828   6.286  1.00  0.00     0.163 C 
HETATM    2  N1  UNL     1     -70.480  -5.076   5.158  1.00  0.00    -0.289 N 
HETATM    3  C2  UNL     1     -69.453  -5.924   5.347  1.00  0.00     0.329 A 
HETATM    4  O1  UNL     1     -69.248  -6.502   6.443  1.00  0.00    -0.246 OA
HETATM    5  N2  UNL     1     -68.597  -6.181   4.343  1.00  0.00    -0.292 N 
ATOM      6  H2  UNL     1     -67.817  -6.824   4.480  1.00  0.00     0.172 HD
HETATM    7  C3  UNL     1     -68.781  -5.586   3.167  1.00  0.00     0.141 A 
HETATM    8  C4  UNL     1     -69.823  -4.711   2.935  1.00  0.00     0.098 A 
HETATM    9  C5  UNL     1     -70.037  -4.078   1.719  1.00  0.00     0.122 A 
HETATM   10  N6  UNL     1     -71.072  -3.232   1.551  1.00  0.00    -0.338 N 
ATOM     11  H6  UNL     1     -71.221  -2.771   0.653  1.00  0.00     0.168 HD
HETATM   12  C10 UNL     1     -71.902  -3.002   2.574  1.00  0.00     0.183 A 
HETATM   13  N7  UNL     1     -71.709  -3.611   3.772  1.00  0.00    -0.337 N 
ATOM     14  H7  UNL     1     -72.356  -3.420   4.536  1.00  0.00     0.168 HD
HETATM   15  C11 UNL     1     -70.688  -4.461   3.978  1.00  0.00     0.130 A 
ENDROOT
BRANCH   9  16
HETATM   16  N5  UNL     1     -69.203  -4.347   0.788  1.00  0.00    -0.347 N 
ATOM     17  H5  UNL     1     -68.965  -5.325   0.622  1.00  0.00     0.163 HD
BRANCH  16  18
HETATM   18  C6  UNL     1     -68.572  -3.331  -0.053  1.00  0.00     0.250 C 
BRANCH  18  19
HETATM   19  O2  UNL     1     -69.454  -3.248  -1.166  1.00  0.00    -0.374 OA
ATOM     20  H2  UNL     1     -69.894  -2.418  -1.026  1.00  0.00     0.212 HD
ENDBRANCH  18  19
BRANCH  18  21
HETATM   21  C7  UNL     1     -67.249  -3.793  -0.565  1.00  0.00     0.200 C 
BRANCH  21  22
HETATM   22  O3  UNL     1     -67.098  -3.789  -1.928  1.00  0.00    -0.388 OA
ATOM     23  H3  UNL     1     -66.205  -3.819  -2.248  1.00  0.00     0.210 HD
ENDBRANCH  21  22
BRANCH  21  24
HETATM   24  C8  UNL     1     -66.109  -3.283   0.241  1.00  0.00     0.206 C 
BRANCH  24  25
HETATM   25  O4  UNL     1     -66.627  -3.157   1.584  1.00  0.00    -0.388 OA
ATOM     26  H4  UNL     1     -65.940  -2.720   2.073  1.00  0.00     0.210 HD
ENDBRANCH  24  25
BRANCH  24  27
HETATM   27  C9  UNL     1     -64.897  -4.147   0.323  1.00  0.00     0.285 C 
BRANCH  27  28
HETATM   28  O5  UNL     1     -64.152  -3.986   1.463  1.00  0.00    -0.369 OA
ATOM     29  H5  UNL     1     -64.303  -4.641   2.134  1.00  0.00     0.212 HD
ENDBRANCH  27  28
BRANCH  27  30
HETATM   30  O6  UNL     1     -65.315  -5.500   0.302  1.00  0.00    -0.369 OA
ATOM     31  H6  UNL     1     -65.495  -5.742  -0.598  1.00  0.00     0.212 HD
ENDBRANCH  27  30
ENDBRANCH  24  27
ENDBRANCH  21  24
ENDBRANCH  18  21
ENDBRANCH  16  18
ENDBRANCH   9  16
BRANCH   7  32
HETATM   32  N3  UNL     1     -67.979  -5.812   2.183  1.00  0.00    -0.291 N 
ATOM     33  H3  UNL     1     -67.773  -5.057   1.529  1.00  0.00     0.188 HD
BRANCH  32  34
HETATM   34  N4  UNL     1     -67.384  -7.060   1.987  1.00  0.00    -0.344 N 
ATOM     35  H42 UNL     1     -67.241  -7.657   2.802  1.00  0.00     0.176 HD
ATOM     36  H41 UNL     1     -67.094  -7.381   1.063  1.00  0.00     0.176 HD
ENDBRANCH  32  34
ENDBRANCH   7  32
TORSDOF 12
ENDMDL
MODEL 4
REMARK VINA RESULT: -4.752699303     10.154     12.785
REMARK  12 active torsions:
REMARK  status: ('A' for Active; 'I' for Inactive)
REMARK    1  A    between atoms: C3_7  and  N3_8 
REMARK    2  A    between atoms: N3_8  and  N4_10 
REMARK    3  A    between atoms: C5_14  and  N5_15 
REMARK    4  A    between atoms: N5_15  and  C6_17 
REMARK    5  A    between atoms: C6_17  and  O2_18 
REMARK    6  A    between atoms: C6_17  and  C7_20 
REMARK    7  A    between atoms: C7_20  and  O3_21 
REMARK    8  A    between atoms: C7_20  and  C8_23 
REMARK    9  A    between atoms: C8_23  and  O4_24 
REMARK   10  A    between atoms: C8_23  and  C9_26 
REMARK   11  A    between atoms: C9_26  and  O5_27 
REMARK   12  A    between atoms: C9_26  and  O6_29 
ROOT
HETATM    1  C1  UNL     1     -64.297  -7.049  -8.532  1.00  0.00     0.163 C 
HETATM    2  N1  UNL     1     -64.841  -6.329  -7.373  1.00  0.00    -0.289 N 
HETATM    3  C2  UNL     1     -65.508  -5.183  -7.598  1.00  0.00     0.329 A 
HETATM    4  O1  UNL     1     -65.678  -4.716  -8.751  1.00  0.00    -0.246 OA
HETATM    5  N2  UNL     1     -66.023  -4.490  -6.568  1.00  0.00    -0.292 N 
ATOM      6  H2  UNL     1     -66.530  -3.621  -6.732  1.00  0.00     0.172 HD
HETATM    7  C3  UNL     1     -65.862  -4.953  -5.331  1.00  0.00     0.141 A 
HETATM    8  C4  UNL     1     -65.183  -6.125  -5.061  1.00  0.00     0.098 A 
HETATM    9  C5  UNL     1     -65.002  -6.630  -3.781  1.00  0.00     0.122 A 
HETATM   10  N6  UNL     1     -64.330  -7.780  -3.579  1.00  0.00    -0.338 N 
ATOM     11  H6  UNL     1     -64.202  -8.142  -2.634  1.00  0.00     0.168 HD
HETATM   12  C10 UNL     1     -63.833  -8.441  -4.630  1.00  0.00     0.183 A 
HETATM   13  N7  UNL     1     -64.000  -7.963  -5.889  1.00  0.00    -0.337 N 
ATOM     14  H7  UNL     1     -63.612  -8.486  -6.674  1.00  0.00     0.168 HD
HETATM   15  C11 UNL     1     -64.664  -6.819  -6.131  1.00  0.00     0.130 A 
ENDROOT
BRANCH   9  16
HETATM   16  N5  UNL     1     -65.506  -5.943  -2.827  1.00  0.00    -0.347 N 
ATOM     17  H5  UNL     1     -65.260  -4.955  -2.763  1.00  0.00     0.163 HD
BRANCH  16  18
HETATM   18  C6  UNL     1     -66.413  -6.495  -1.823  1.00  0.00     0.250 C 
BRANCH  18  19
HETATM   19  O2  UNL     1     -67.689  -6.358  -2.439  1.00  0.00    -0.374 OA
ATOM     20  H2  UNL     1     -67.691  -7.060  -3.079  1.00  0.00     0.212 HD
ENDBRANCH  18  19
BRANCH  18  21
HETATM   21  C7  UNL     1     -66.425  -5.664  -0.584  1.00  0.00     0.200 C 
BRANCH  21  22
HETATM   22  O3  UNL     1     -66.118  -6.318   0.581  1.00  0.00    -0.388 OA
ATOM     23  H3  UNL     1     -66.613  -7.109   0.758  1.00  0.00     0.210 HD
ENDBRANCH  21  22
BRANCH  21  24
HETATM   24  C8  UNL     1     -65.817  -4.323  -0.785  1.00  0.00     0.206 C 
BRANCH  24  25
HETATM   25  O4  UNL     1     -66.873  -3.513  -1.347  1.00  0.00    -0.388 OA
ATOM     26  H4  UNL     1     -66.436  -2.742  -1.691  1.00  0.00     0.210 HD
ENDBRANCH  24  25
BRANCH  24  27
HETATM   27  C9  UNL     1     -65.326  -3.613   0.431  1.00  0.00     0.285 C 
BRANCH  27  28
HETATM   28  O5  UNL     1     -66.219  -3.569   1.471  1.00  0.00    -0.369 OA
ATOM     29  H5  UNL     1     -65.948  -4.040   2.250  1.00  0.00     0.212 HD
ENDBRANCH  27  28
BRANCH  27  30
HETATM   30  O6  UNL     1     -64.182  -4.297   0.911  1.00  0.00    -0.369 OA
ATOM     31  H6  UNL     1     -64.423  -4.757   1.707  1.00  0.00     0.212 HD
ENDBRANCH  27  30
ENDBRANCH  24  27
ENDBRANCH  21  24
ENDBRANCH  18  21
ENDBRANCH  16  18
ENDBRANCH   9  16
BRANCH   7  32
HETATM   32  N3  UNL     1     -66.344  -4.313  -4.321  1.00  0.00    -0.291 N 
ATOM     33  H3  UNL     1     -65.742  -4.128  -3.518  1.00  0.00     0.188 HD
BRANCH  32  34
HETATM   34  N4  UNL     1     -67.666  -3.863  -4.294  1.00  0.00    -0.344 N 
ATOM     35  H42 UNL     1     -68.015  -3.352  -5.104  1.00  0.00     0.176 HD
ATOM     36  H41 UNL     1     -68.277  -4.033  -3.495  1.00  0.00     0.176 HD
ENDBRANCH  32  34
ENDBRANCH   7  32
TORSDOF 12
ENDMDL
MODEL 5
REMARK VINA RESULT: -4.731792917      5.623      8.829
REMARK  12 active torsions:
REMARK  status: ('A' for Active; 'I' for Inactive)
REMARK    1  A    between atoms: C3_7  and  N3_8 
REMARK    2  A    between atoms: N3_8  and  N4_10 
REMARK    3  A    between atoms: C5_14  and  N5_15 
REMARK    4  A    between atoms: N5_15  and  C6_17 
REMARK    5  A    between atoms: C6_17  and  O2_18 
REMARK    6  A    between atoms: C6_17  and  C7_20 
REMARK    7  A    between atoms: C7_20  and  O3_21 
REMARK    8  A    between atoms: C7_20  and  C8_23 
REMARK    9  A    between atoms: C8_23  and  O4_24 
REMARK   10  A    between atoms: C8_23  and  C9_26 
REMARK   11  A    between atoms: C9_26  and  O5_27 
REMARK   12  A    between atoms: C9_26  and  O6_29 
ROOT
HETATM    1  C1  UNL     1     -68.051  -8.635   6.161  1.00  0.00     0.163 C 
HETATM    2  N1  UNL     1     -67.867  -8.237   4.759  1.00  0.00    -0.289 N 
HETATM    3  C2  UNL     1     -67.069  -8.996   3.987  1.00  0.00     0.329 A 
HETATM    4  O1  UNL     1     -66.486 -10.021   4.421  1.00  0.00    -0.246 OA
HETATM    5  N2  UNL     1     -66.870  -8.670   2.698  1.00  0.00    -0.292 N 
ATOM      6  H2  UNL     1     -66.268  -9.243   2.108  1.00  0.00     0.172 HD
HETATM    7  C3  UNL     1     -67.470  -7.591   2.203  1.00  0.00     0.141 A 
HETATM    8  C4  UNL     1     -68.295  -6.788   2.965  1.00  0.00     0.098 A 
HETATM    9  C5  UNL     1     -68.934  -5.658   2.473  1.00  0.00     0.122 A 
HETATM   10  N6  UNL     1     -69.728  -4.912   3.265  1.00  0.00    -0.338 N 
ATOM     11  H6  UNL     1     -70.192  -4.082   2.894  1.00  0.00     0.168 HD
HETATM   12  C10 UNL     1     -69.901  -5.269   4.542  1.00  0.00     0.183 A 
HETATM   13  N7  UNL     1     -69.286  -6.370   5.041  1.00  0.00    -0.337 N 
ATOM     14  H7  UNL     1     -69.434  -6.622   6.018  1.00  0.00     0.168 HD
HETATM   15  C11 UNL     1     -68.486  -7.140   4.283  1.00  0.00     0.130 A 
ENDROOT
BRANCH   9  16
HETATM   16  N5  UNL     1     -68.720  -5.379   1.243  1.00  0.00    -0.347 N 
ATOM     17  H5  UNL     1     -68.625  -6.152   0.584  1.00  0.00     0.163 HD
BRANCH  16  18
HETATM   18  C6  UNL     1     -68.605  -4.016   0.730  1.00  0.00     0.250 C 
BRANCH  18  19
HETATM   19  O2  UNL     1     -69.794  -3.865  -0.038  1.00  0.00    -0.374 OA
ATOM     20  H2  UNL     1     -69.473  -3.885  -0.931  1.00  0.00     0.212 HD
ENDBRANCH  18  19
BRANCH  18  21
HETATM   21  C7  UNL     1     -67.451  -3.881  -0.206  1.00  0.00     0.200 C 
BRANCH  21  22
HETATM   22  O3  UNL     1     -67.745  -3.417  -1.461  1.00  0.00    -0.388 OA
ATOM     23  H3  UNL     1     -67.904  -4.079  -2.123  1.00  0.00     0.210 HD
ENDBRANCH  21  22
BRANCH  21  24
HETATM   24  C8  UNL     1     -66.239  -3.325   0.452  1.00  0.00     0.206 C 
BRANCH  24  25
HETATM   25  O4  UNL     1     -66.553  -3.307   1.863  1.00  0.00    -0.388 OA
ATOM     26  H4  UNL     1     -66.570  -4.221   2.123  1.00  0.00     0.210 HD
ENDBRANCH  24  25
BRANCH  24  27
HETATM   27  C9  UNL     1     -64.972  -4.095   0.299  1.00  0.00     0.285 C 
BRANCH  27  28
HETATM   28  O5  UNL     1     -64.111  -4.003   1.364  1.00  0.00    -0.369 OA
ATOM     29  H5  UNL     1     -63.197  -3.893   1.129  1.00  0.00     0.212 HD
ENDBRANCH  27  28
BRANCH  27  30
HETATM   30  O6  UNL     1     -65.299  -5.465   0.162  1.00  0.00    -0.369 OA
ATOM     31  H6  UNL     1     -64.575  -5.903  -0.270  1.00  0.00     0.212 HD
ENDBRANCH  27  30
ENDBRANCH  24  27
ENDBRANCH  21  24
ENDBRANCH  18  21
ENDBRANCH  16  18
ENDBRANCH   9  16
BRANCH   7  32
HETATM   32  N3  UNL     1     -67.301  -7.251   0.971  1.00  0.00    -0.291 N 
ATOM     33  H3  UNL     1     -67.215  -6.262   0.738  1.00  0.00     0.188 HD
BRANCH  32  34
HETATM   34  N4  UNL     1     -67.231  -8.198  -0.053  1.00  0.00    -0.344 N 
ATOM     35  H42 UNL     1     -66.661  -9.029   0.101  1.00  0.00     0.176 HD
ATOM     36  H41 UNL     1     -67.730  -8.077  -0.934  1.00  0.00     0.176 HD
ENDBRANCH  32  34
ENDBRANCH   7  32
TORSDOF 12
ENDMDL
