MODEL 1
REMARK VINA RESULT: -5.641680926      0.000      0.000
REMARK  8 active torsions:
REMARK  status: ('A' for Active; 'I' for Inactive)
REMARK    1  A    between atoms: N1_1  and  C1_5 
REMARK    2  A    between atoms: C3_7  and  N2_8 
REMARK    3  A    between atoms: N2_8  and  C4_10 
REMARK    4  A    between atoms: C5_15  and  C6_16 
REMARK    5  A    between atoms: C6_16  and  N5_17 
REMARK    6  A    between atoms: C6_16  and  C7_21 
REMARK    7  A    between atoms: N6_24  and  C8_25 
REMARK    8  A    between atoms: C9_28  and  O3_29 
ROOT
HETATM    1  C4  UNL     1     -63.090 -10.575   4.934  1.00  0.00     0.700 A 
HETATM    2  N3  UNL     1     -63.854 -10.365   3.855  1.00  0.00    -0.131 N 
ATOM      3  H3  UNL     1     -64.320  -9.494   3.601  1.00  0.00     0.205 HD
HETATM    4  N4  UNL     1     -63.888 -11.500   3.186  1.00  0.00    -0.272 N 
ATOM      5  H4  UNL     1     -64.391 -11.661   2.314  1.00  0.00     0.189 HD
HETATM    6  C5  UNL     1     -63.138 -12.422   3.854  1.00  0.00     0.160 A 
HETATM    7  N6  UNL     1     -62.633 -11.846   4.957  1.00  0.00    -0.124 N 
ENDROOT
BRANCH   1   8
HETATM    8  N2  UNL     1     -62.824  -9.690   5.831  1.00  0.00    -0.211 N 
ATOM      9  H2  UNL     1     -61.902  -9.255   5.813  1.00  0.00     0.178 HD
BRANCH   8  10
HETATM   10  C3  UNL     1     -63.737  -9.279   6.850  1.00  0.00     0.195 C 
HETATM   11  C2  UNL     1     -65.079  -8.806   6.273  1.00  0.00     0.089 C 
HETATM   12  C1  UNL     1     -65.612  -7.982   7.419  1.00  0.00     0.286 C 
HETATM   13  N9  UNL     1     -64.422  -7.221   7.815  1.00  0.00    -0.332 N 
HETATM   14  C10 UNL     1     -63.304  -8.063   7.569  1.00  0.00     0.242 C 
ATOM     15  H9  UNL     1     -64.401  -6.273   8.192  1.00  0.00     0.164 HD
HETATM   16  O5  UNL     1     -62.132  -7.813   7.910  1.00  0.00    -0.271 OA
BRANCH  12  17
HETATM   17  N1  UNL     1     -66.691  -7.105   7.018  1.00  0.00    -0.058 N 
ATOM     18  H13 UNL     1     -67.270  -7.541   6.300  1.00  0.00     0.276 HD
ATOM     19  H12 UNL     1     -67.386  -7.017   7.759  1.00  0.00     0.276 HD
ATOM     20  H11 UNL     1     -66.359  -6.190   6.716  1.00  0.00     0.276 HD
ENDBRANCH  12  17
ENDBRANCH   8  10
ENDBRANCH   1   8
BRANCH   7  21
HETATM   21  C8  UNL     1     -61.788 -12.449   5.951  1.00  0.00     0.365 C 
HETATM   22  N7  UNL     1     -62.316 -12.425   7.277  1.00  0.00    -0.090 NA
HETATM   23  N8  UNL     1     -61.204 -12.200   8.096  1.00  0.00    -0.085 NA
HETATM   24  C9  UNL     1     -60.041 -12.426   7.223  1.00  0.00     0.377 C 
HETATM   25  O4  UNL     1     -60.506 -11.960   5.994  1.00  0.00    -0.304 OA
BRANCH  24  26
HETATM   26  O3  UNL     1     -59.017 -11.625   7.726  1.00  0.00    -0.357 OA
ATOM     27  H3  UNL     1     -59.436 -10.838   8.053  1.00  0.00     0.214 HD
ENDBRANCH  24  26
ENDBRANCH   7  21
BRANCH   6  28
HETATM   28  C6  UNL     1     -62.984 -13.789   3.355  1.00  0.00     0.352 C 
BRANCH  28  29
HETATM   29  N5  UNL     1     -64.184 -14.078   2.557  1.00  0.00    -0.058 N 
ATOM     30  H53 UNL     1     -64.601 -13.247   2.139  1.00  0.00     0.275 HD
ATOM     31  H52 UNL     1     -63.982 -14.569   1.687  1.00  0.00     0.275 HD
ATOM     32  H51 UNL     1     -64.822 -14.587   3.169  1.00  0.00     0.275 HD
ENDBRANCH  28  29
BRANCH  28  33
HETATM   33  C7  UNL     1     -61.832 -13.837   2.397  1.00  0.00     0.212 C 
HETATM   34  O1  UNL     1     -61.338 -14.948   2.086  1.00  0.00    -0.646 OA
HETATM   35  O2  UNL     1     -61.282 -12.713   1.838  1.00  0.00    -0.646 OA
ENDBRANCH  28  33
ENDBRANCH   6  28
TORSDOF 8
ENDMDL
MODEL 2
REMARK VINA RESULT: -5.386813230      8.045      9.577
REMARK  8 active torsions:
REMARK  status: ('A' for Active; 'I' for Inactive)
REMARK    1  A    between atoms: N1_1  and  C1_5 
REMARK    2  A    between atoms: C3_7  and  N2_8 
REMARK    3  A    between atoms: N2_8  and  C4_10 
REMARK    4  A    between atoms: C5_15  and  C6_16 
REMARK    5  A    between atoms: C6_16  and  N5_17 
REMARK    6  A    between atoms: C6_16  and  C7_21 
REMARK    7  A    between atoms: N6_24  and  C8_25 
REMARK    8  A    between atoms: C9_28  and  O3_29 
ROOT
HETATM    1  C4  UNL     1     -67.236  -7.089  -1.126  1.00  0.00     0.700 A 
HETATM    2  N3  UNL     1     -67.401  -8.099  -1.989  1.00  0.00    -0.131 N 
ATOM      3  H3  UNL     1     -68.010  -8.909  -1.867  1.00  0.00     0.205 HD
HETATM    4  N4  UNL     1     -66.627  -7.845  -3.025  1.00  0.00    -0.272 N 
ATOM      5  H4  UNL     1     -66.531  -8.432  -3.854  1.00  0.00     0.189 HD
HETATM    6  C5  UNL     1     -65.976  -6.667  -2.804  1.00  0.00     0.160 A 
HETATM    7  N6  UNL     1     -66.355  -6.187  -1.610  1.00  0.00    -0.124 N 
ENDROOT
BRANCH   1   8
HETATM    8  N2  UNL     1     -67.832  -6.986   0.011  1.00  0.00    -0.211 N 
ATOM      9  H2  UNL     1     -68.738  -6.518   0.034  1.00  0.00     0.178 HD
BRANCH   8  10
HETATM   10  C3  UNL     1     -67.307  -7.486   1.241  1.00  0.00     0.195 C 
HETATM   11  C2  UNL     1     -67.787  -8.913   1.543  1.00  0.00     0.089 C 
HETATM   12  C1  UNL     1     -67.553  -8.989   3.031  1.00  0.00     0.286 C 
HETATM   13  N9  UNL     1     -68.073  -7.692   3.479  1.00  0.00    -0.332 N 
HETATM   14  C10 UNL     1     -67.814  -6.769   2.429  1.00  0.00     0.242 C 
ATOM     15  H9  UNL     1     -68.530  -7.491   4.369  1.00  0.00     0.164 HD
HETATM   16  O5  UNL     1     -67.990  -5.537   2.501  1.00  0.00    -0.271 OA
BRANCH  12  17
HETATM   17  N1  UNL     1     -68.265 -10.085   3.651  1.00  0.00    -0.058 N 
ATOM     18  H13 UNL     1     -67.748 -10.959   3.553  1.00  0.00     0.276 HD
ATOM     19  H12 UNL     1     -68.254 -10.001   4.667  1.00  0.00     0.276 HD
ATOM     20  H11 UNL     1     -69.217 -10.181   3.301  1.00  0.00     0.276 HD
ENDBRANCH  12  17
ENDBRANCH   8  10
ENDBRANCH   1   8
BRANCH   7  21
HETATM   21  C8  UNL     1     -65.918  -4.972  -0.977  1.00  0.00     0.365 C 
HETATM   22  N7  UNL     1     -64.840  -5.134  -0.055  1.00  0.00    -0.090 NA
HETATM   23  N8  UNL     1     -65.126  -4.240   0.984  1.00  0.00    -0.085 NA
HETATM   24  C9  UNL     1     -66.190  -3.372   0.451  1.00  0.00     0.377 C 
HETATM   25  O4  UNL     1     -66.909  -4.256  -0.352  1.00  0.00    -0.304 OA
BRANCH  24  26
HETATM   26  O3  UNL     1     -66.933  -2.953   1.553  1.00  0.00    -0.357 OA
ATOM     27  H3  UNL     1     -67.744  -3.446   1.527  1.00  0.00     0.214 HD
ENDBRANCH  24  26
ENDBRANCH   7  21
BRANCH   6  28
HETATM   28  C6  UNL     1     -65.037  -6.118  -3.783  1.00  0.00     0.352 C 
BRANCH  28  29
HETATM   29  N5  UNL     1     -64.559  -7.254  -4.584  1.00  0.00    -0.058 N 
ATOM     30  H53 UNL     1     -65.313  -7.825  -4.966  1.00  0.00     0.275 HD
ATOM     31  H52 UNL     1     -64.147  -6.976  -5.475  1.00  0.00     0.275 HD
ATOM     32  H51 UNL     1     -63.917  -7.777  -3.988  1.00  0.00     0.275 HD
ENDBRANCH  28  29
BRANCH  28  33
HETATM   33  C7  UNL     1     -65.780  -5.228  -4.734  1.00  0.00     0.212 C 
HETATM   34  O1  UNL     1     -66.761  -5.689  -5.366  1.00  0.00    -0.646 OA
HETATM   35  O2  UNL     1     -65.436  -3.919  -4.950  1.00  0.00    -0.646 OA
ENDBRANCH  28  33
ENDBRANCH   6  28
TORSDOF 8
ENDMDL
MODEL 3
REMARK VINA RESULT: -5.375772073      9.972     11.267
REMARK  8 active torsions:
REMARK  status: ('A' for Active; 'I' for Inactive)
REMARK    1  A    between atoms: N1_1  and  C1_5 
REMARK    2  A    between atoms: C3_7  and  N2_8 
REMARK    3  A    between atoms: N2_8  and  C4_10 
REMARK    4  A    between atoms: C5_15  and  C6_16 
REMARK    5  A    between atoms: C6_16  and  N5_17 
REMARK    6  A    between atoms: C6_16  and  C7_21 
REMARK    7  A    between atoms: N6_24  and  C8_25 
REMARK    8  A    between atoms: C9_28  and  O3_29 
ROOT
HETATM    1  C4  UNL     1     -68.422  -4.920  -2.043  1.00  0.00     0.700 A 
HETATM    2  N3  UNL     1     -69.247  -5.079  -3.085  1.00  0.00    -0.131 N 
ATOM      3  H3  UNL     1     -70.253  -4.906  -3.096  1.00  0.00     0.205 HD
HETATM    4  N4  UNL     1     -68.512  -5.502  -4.093  1.00  0.00    -0.272 N 
ATOM      5  H4  UNL     1     -68.852  -5.717  -5.030  1.00  0.00     0.189 HD
HETATM    6  C5  UNL     1     -67.218  -5.607  -3.674  1.00  0.00     0.160 A 
HETATM    7  N6  UNL     1     -67.156  -5.242  -2.383  1.00  0.00    -0.124 N 
ENDROOT
BRANCH   1   8
HETATM    8  N2  UNL     1     -68.781  -4.516  -0.874  1.00  0.00    -0.211 N 
ATOM      9  H2  UNL     1     -68.810  -5.203  -0.121  1.00  0.00     0.178 HD
BRANCH   8  10
HETATM   10  C3  UNL     1     -69.142  -3.170  -0.565  1.00  0.00     0.195 C 
HETATM   11  C2  UNL     1     -69.043  -2.244  -1.786  1.00  0.00     0.089 C 
HETATM   12  C1  UNL     1     -68.953  -0.894  -1.120  1.00  0.00     0.286 C 
HETATM   13  N9  UNL     1     -67.993  -1.159  -0.043  1.00  0.00    -0.332 N 
HETATM   14  C10 UNL     1     -68.199  -2.507   0.358  1.00  0.00     0.242 C 
ATOM     15  H9  UNL     1     -67.312  -0.504   0.343  1.00  0.00     0.164 HD
HETATM   16  O5  UNL     1     -67.662  -3.049   1.344  1.00  0.00    -0.271 OA
BRANCH  12  17
HETATM   17  N1  UNL     1     -68.472   0.136  -2.015  1.00  0.00    -0.058 N 
ATOM     18  H13 UNL     1     -67.517  -0.057  -2.316  1.00  0.00     0.276 HD
ATOM     19  H12 UNL     1     -68.943   0.086  -2.919  1.00  0.00     0.276 HD
ATOM     20  H11 UNL     1     -68.548   1.070  -1.614  1.00  0.00     0.276 HD
ENDBRANCH  12  17
ENDBRANCH   8  10
ENDBRANCH   1   8
BRANCH   7  21
HETATM   21  C8  UNL     1     -65.991  -5.202  -1.540  1.00  0.00     0.365 C 
HETATM   22  N7  UNL     1     -66.111  -5.936  -0.323  1.00  0.00    -0.090 NA
HETATM   23  N8  UNL     1     -65.434  -5.161   0.626  1.00  0.00    -0.085 NA
HETATM   24  C9  UNL     1     -64.680  -4.173  -0.164  1.00  0.00     0.377 C 
HETATM   25  O4  UNL     1     -65.542  -3.941  -1.235  1.00  0.00    -0.304 OA
BRANCH  24  26
HETATM   26  O3  UNL     1     -64.549  -3.048   0.648  1.00  0.00    -0.357 OA
ATOM     27  H3  UNL     1     -64.495  -2.304   0.060  1.00  0.00     0.214 HD
ENDBRANCH  24  26
ENDBRANCH   7  21
BRANCH   6  28
HETATM   28  C6  UNL     1     -66.156  -6.058  -4.575  1.00  0.00     0.352 C 
BRANCH  28  29
HETATM   29  N5  UNL     1     -66.818  -6.791  -5.663  1.00  0.00    -0.058 N 
ATOM     30  H53 UNL     1     -67.601  -7.363  -5.347  1.00  0.00     0.275 HD
ATOM     31  H52 UNL     1     -67.348  -6.189  -6.293  1.00  0.00     0.275 HD
ATOM     32  H51 UNL     1     -66.090  -7.328  -6.134  1.00  0.00     0.275 HD
ENDBRANCH  28  29
BRANCH  28  33
HETATM   33  C7  UNL     1     -65.513  -4.864  -5.214  1.00  0.00     0.212 C 
HETATM   34  O1  UNL     1     -66.073  -3.745  -5.129  1.00  0.00    -0.646 OA
HETATM   35  O2  UNL     1     -64.327  -4.936  -5.899  1.00  0.00    -0.646 OA
ENDBRANCH  28  33
ENDBRANCH   6  28
TORSDOF 8
ENDMDL
MODEL 4
REMARK VINA RESULT: -5.360156520     10.331     12.437
REMARK  8 active torsions:
REMARK  status: ('A' for Active; 'I' for Inactive)
REMARK    1  A    between atoms: N1_1  and  C1_5 
REMARK    2  A    between atoms: C3_7  and  N2_8 
REMARK    3  A    between atoms: N2_8  and  C4_10 
REMARK    4  A    between atoms: C5_15  and  C6_16 
REMARK    5  A    between atoms: C6_16  and  N5_17 
REMARK    6  A    between atoms: C6_16  and  C7_21 
REMARK    7  A    between atoms: N6_24  and  C8_25 
REMARK    8  A    between atoms: C9_28  and  O3_29 
ROOT
HETATM    1  C4  UNL     1     -68.871  -1.914  -0.492  1.00  0.00     0.700 A 
HETATM    2  N3  UNL     1     -70.114  -1.839  -0.002  1.00  0.00    -0.131 N 
ATOM      3  H3  UNL     1     -70.799  -1.106  -0.190  1.00  0.00     0.205 HD
HETATM    4  N4  UNL     1     -70.284  -2.894   0.770  1.00  0.00    -0.272 N 
ATOM      5  H4  UNL     1     -71.131  -3.122   1.289  1.00  0.00     0.189 HD
HETATM    6  C5  UNL     1     -69.136  -3.631   0.758  1.00  0.00     0.160 A 
HETATM    7  N6  UNL     1     -68.242  -3.018  -0.035  1.00  0.00    -0.124 N 
ENDROOT
BRANCH   1   8
HETATM    8  N2  UNL     1     -68.341  -1.054  -1.291  1.00  0.00    -0.211 N 
ATOM      9  H2  UNL     1     -67.468  -1.306  -1.752  1.00  0.00     0.178 HD
BRANCH   8  10
HETATM   10  C3  UNL     1     -68.899   0.230  -1.573  1.00  0.00     0.195 C 
HETATM   11  C2  UNL     1     -68.835   0.579  -3.066  1.00  0.00     0.089 C 
HETATM   12  C1  UNL     1     -68.973   2.081  -3.020  1.00  0.00     0.286 C 
HETATM   13  N9  UNL     1     -68.068   2.427  -1.918  1.00  0.00    -0.332 N 
HETATM   14  C10 UNL     1     -68.121   1.347  -0.997  1.00  0.00     0.242 C 
ATOM     15  H9  UNL     1     -67.509   3.276  -1.831  1.00  0.00     0.164 HD
HETATM   16  O5  UNL     1     -67.590   1.342   0.131  1.00  0.00    -0.271 OA
BRANCH  12  17
HETATM   17  N1  UNL     1     -68.569   2.715  -4.256  1.00  0.00    -0.058 N 
ATOM     18  H13 UNL     1     -67.641   2.403  -4.541  1.00  0.00     0.276 HD
ATOM     19  H12 UNL     1     -69.112   2.361  -5.043  1.00  0.00     0.276 HD
ATOM     20  H11 UNL     1     -68.615   3.732  -4.207  1.00  0.00     0.276 HD
ENDBRANCH  12  17
ENDBRANCH   8  10
ENDBRANCH   1   8
BRANCH   7  21
HETATM   21  C8  UNL     1     -66.902  -3.443  -0.334  1.00  0.00     0.365 C 
HETATM   22  N7  UNL     1     -66.755  -4.846  -0.553  1.00  0.00    -0.090 NA
HETATM   23  N8  UNL     1     -65.521  -5.167   0.023  1.00  0.00    -0.085 NA
HETATM   24  C9  UNL     1     -64.869  -3.869   0.264  1.00  0.00     0.377 C 
HETATM   25  O4  UNL     1     -65.954  -3.054   0.580  1.00  0.00    -0.304 OA
BRANCH  24  26
HETATM   26  O3  UNL     1     -64.026  -4.057   1.358  1.00  0.00    -0.357 OA
ATOM     27  H3  UNL     1     -64.157  -3.306   1.924  1.00  0.00     0.214 HD
ENDBRANCH  24  26
ENDBRANCH   7  21
BRANCH   6  28
HETATM   28  C6  UNL     1     -69.015  -4.870   1.528  1.00  0.00     0.352 C 
BRANCH  28  29
HETATM   29  N5  UNL     1     -67.790  -4.743   2.330  1.00  0.00    -0.058 N 
ATOM     30  H53 UNL     1     -67.056  -5.394   2.051  1.00  0.00     0.275 HD
ATOM     31  H52 UNL     1     -67.274  -3.884   2.146  1.00  0.00     0.275 HD
ATOM     32  H51 UNL     1     -68.072  -4.845   3.305  1.00  0.00     0.275 HD
ENDBRANCH  28  29
BRANCH  28  33
HETATM   33  C7  UNL     1     -70.144  -4.952   2.510  1.00  0.00     0.212 C 
HETATM   34  O1  UNL     1     -71.121  -5.700   2.262  1.00  0.00    -0.646 OA
HETATM   35  O2  UNL     1     -70.165  -4.239   3.681  1.00  0.00    -0.646 OA
ENDBRANCH  28  33
ENDBRANCH   6  28
TORSDOF 8
ENDMDL
MODEL 5
REMARK VINA RESULT: -5.278757931      8.614     11.359
REMARK  8 active torsions:
REMARK  status: ('A' for Active; 'I' for Inactive)
REMARK    1  A    between atoms: N1_1  and  C1_5 
REMARK    2  A    between atoms: C3_7  and  N2_8 
REMARK    3  A    between atoms: N2_8  and  C4_10 
REMARK    4  A    between atoms: C5_15  and  C6_16 
REMARK    5  A    between atoms: C6_16  and  N5_17 
REMARK    6  A    between atoms: C6_16  and  C7_21 
REMARK    7  A    between atoms: N6_24  and  C8_25 
REMARK    8  A    between atoms: C9_28  and  O3_29 
ROOT
HETATM    1  C4  UNL     1     -68.944  -4.178   1.733  1.00  0.00     0.700 A 
HETATM    2  N3  UNL     1     -70.240  -4.036   2.034  1.00  0.00    -0.131 N 
ATOM      3  H3  UNL     1     -70.787  -4.627   2.661  1.00  0.00     0.205 HD
HETATM    4  N4  UNL     1     -70.673  -2.986   1.366  1.00  0.00    -0.272 N 
ATOM      5  H4  UNL     1     -71.625  -2.619   1.386  1.00  0.00     0.189 HD
HETATM    6  C5  UNL     1     -69.637  -2.472   0.643  1.00  0.00     0.160 A 
HETATM    7  N6  UNL     1     -68.545  -3.219   0.870  1.00  0.00    -0.124 N 
ENDROOT
BRANCH   1   8
HETATM    8  N2  UNL     1     -68.177  -5.103   2.198  1.00  0.00    -0.211 N 
ATOM      9  H2  UNL     1     -67.352  -4.817   2.726  1.00  0.00     0.178 HD
BRANCH   8  10
HETATM   10  C3  UNL     1     -68.407  -6.501   2.023  1.00  0.00     0.195 C 
HETATM   11  C2  UNL     1     -68.621  -7.229   3.358  1.00  0.00     0.089 C 
HETATM   12  C1  UNL     1     -68.320  -8.653   2.963  1.00  0.00     0.286 C 
HETATM   13  N9  UNL     1     -67.110  -8.486   2.151  1.00  0.00    -0.332 N 
HETATM   14  C10 UNL     1     -67.231  -7.228   1.500  1.00  0.00     0.242 C 
ATOM     15  H9  UNL     1     -66.333  -9.143   2.069  1.00  0.00     0.164 HD
HETATM   16  O5  UNL     1     -66.460  -6.801   0.619  1.00  0.00    -0.271 OA
BRANCH  12  17
HETATM   17  N1  UNL     1     -68.075  -9.506   4.106  1.00  0.00    -0.058 N 
ATOM     18  H13 UNL     1     -67.106  -9.822   4.126  1.00  0.00     0.276 HD
ATOM     19  H12 UNL     1     -68.092  -8.970   4.974  1.00  0.00     0.276 HD
ATOM     20  H11 UNL     1     -68.719 -10.296   4.150  1.00  0.00     0.276 HD
ENDBRANCH  12  17
ENDBRANCH   8  10
ENDBRANCH   1   8
BRANCH   7  21
HETATM   21  C8  UNL     1     -67.231  -3.040   0.314  1.00  0.00     0.365 C 
HETATM   22  N7  UNL     1     -67.095  -3.463  -1.043  1.00  0.00    -0.090 NA
HETATM   23  N8  UNL     1     -65.815  -4.025  -1.111  1.00  0.00    -0.085 NA
HETATM   24  C9  UNL     1     -65.153  -3.607   0.136  1.00  0.00     0.377 C 
HETATM   25  O4  UNL     1     -66.214  -3.606   1.041  1.00  0.00    -0.304 OA
BRANCH  24  26
HETATM   26  O3  UNL     1     -64.221  -4.600   0.431  1.00  0.00    -0.357 OA
ATOM     27  H3  UNL     1     -63.478  -4.156   0.822  1.00  0.00     0.214 HD
ENDBRANCH  24  26
ENDBRANCH   7  21
BRANCH   6  28
HETATM   28  C6  UNL     1     -69.809  -1.294  -0.208  1.00  0.00     0.352 C 
BRANCH  28  29
HETATM   29  N5  UNL     1     -69.788  -1.777  -1.596  1.00  0.00    -0.058 N 
ATOM     30  H53 UNL     1     -70.123  -2.735  -1.695  1.00  0.00     0.275 HD
ATOM     31  H52 UNL     1     -70.491  -1.336  -2.188  1.00  0.00     0.275 HD
ATOM     32  H51 UNL     1     -68.835  -1.645  -1.933  1.00  0.00     0.275 HD
ENDBRANCH  28  29
BRANCH  28  33
HETATM   33  C7  UNL     1     -71.179  -0.725   0.009  1.00  0.00     0.212 C 
HETATM   34  O1  UNL     1     -71.344   0.163   0.880  1.00  0.00    -0.646 OA
HETATM   35  O2  UNL     1     -72.276  -1.133  -0.705  1.00  0.00    -0.646 OA
ENDBRANCH  28  33
ENDBRANCH   6  28
TORSDOF 8
ENDMDL
