MODEL 1
REMARK VINA RESULT: -6.527076867      0.000      0.000
REMARK  7 active torsions:
REMARK  status: ('A' for Active; 'I' for Inactive)
REMARK    1  A    between atoms: O1_2  and  C2_3 
REMARK    2  A    between atoms: C2_3  and  O2_4 
REMARK    3  A    between atoms: O2_4  and  C3_5 
REMARK    4  A    between atoms: C6_12  and  N3_13 
REMARK    5  A    between atoms: C8_22  and  N6_23 
REMARK    6  A    between atoms: N6_23  and  C9_26 
REMARK    7  A    between atoms: C9_26  and  C10_27 
ROOT
HETATM    1  C3  UNL     1      15.962  45.649  48.640  1.00  0.00     0.274 C 
HETATM    2  N1  UNL     1      17.081  45.396  47.736  1.00  0.00    -0.353 N 
ATOM      3  H1  UNL     1      17.192  44.490  47.278  1.00  0.00     0.162 HD
HETATM    4  C4  UNL     1      18.004  46.438  47.513  1.00  0.00     0.144 A 
HETATM    5  C5  UNL     1      17.538  47.734  47.541  1.00  0.00     0.151 A 
HETATM    6  N2  UNL     1      18.383  48.763  47.330  1.00  0.00    -0.175 N 
ATOM      7  H2  UNL     1      18.046  49.725  47.349  1.00  0.00     0.186 HD
HETATM    8  C6  UNL     1      19.689  48.491  47.090  1.00  0.00     0.680 A 
HETATM    9  N4  UNL     1      20.184  47.239  47.053  1.00  0.00    -0.154 N 
ATOM     10  H4  UNL     1      21.175  47.081  46.869  1.00  0.00     0.187 HD
HETATM   11  C7  UNL     1      19.359  46.199  47.262  1.00  0.00     0.290 A 
HETATM   12  O3  UNL     1      19.729  44.997  47.246  1.00  0.00    -0.265 OA
HETATM   13  N5  UNL     1      16.159  47.917  47.790  1.00  0.00    -0.343 N 
ATOM     14  H5  UNL     1      15.766  48.841  47.610  1.00  0.00     0.163 HD
HETATM   15  C8  UNL     1      15.265  46.896  48.280  1.00  0.00     0.335 C 
ENDROOT
BRANCH  15  16
HETATM   16  N6  UNL     1      14.571  47.523  49.405  1.00  0.00    -0.046 N 
ATOM     17  H62 UNL     1      14.861  47.112  50.293  1.00  0.00     0.280 HD
ATOM     18  H61 UNL     1      14.897  48.477  49.554  1.00  0.00     0.280 HD
BRANCH  16  19
HETATM   19  C9  UNL     1      13.125  47.479  49.252  1.00  0.00     0.278 C 
BRANCH  19  20
HETATM   20  C10 UNL     1      12.600  46.360  50.123  1.00  0.00     0.080 C 
HETATM   21  N7  UNL     1      12.212  45.269  49.609  1.00  0.00    -0.410 N 
ATOM     22  H72 UNL     1      12.261  45.160  48.596  1.00  0.00     0.155 HD
ATOM     23  H71 UNL     1      11.858  44.514  50.197  1.00  0.00     0.155 HD
ENDBRANCH  19  20
ENDBRANCH  16  19
ENDBRANCH  15  16
BRANCH   1  24
HETATM   24  O2  UNL     1      15.121  44.532  48.652  1.00  0.00    -0.339 OA
BRANCH  24  25
HETATM   25  C2  UNL     1      14.818  43.964  47.469  1.00  0.00     0.339 C 
BRANCH  25  26
HETATM   26  O1  UNL     1      13.492  44.176  47.133  1.00  0.00    -0.372 OA
HETATM   27  C1  UNL     1      13.462  44.838  45.897  1.00  0.00     0.204 C 
ENDBRANCH  25  26
ENDBRANCH  24  25
ENDBRANCH   1  24
BRANCH   8  28
HETATM   28  N3  UNL     1      20.492  49.458  46.909  1.00  0.00    -0.234 N 
ATOM     29  H32 UNL     1      21.121  49.417  46.106  1.00  0.00     0.174 HD
ATOM     30  H31 UNL     1      20.490  50.231  47.574  1.00  0.00     0.174 HD
ENDBRANCH   8  28
TORSDOF 7
ENDMDL
MODEL 2
REMARK VINA RESULT: -6.434605765      2.778      5.636
REMARK  7 active torsions:
REMARK  status: ('A' for Active; 'I' for Inactive)
REMARK    1  A    between atoms: O1_2  and  C2_3 
REMARK    2  A    between atoms: C2_3  and  O2_4 
REMARK    3  A    between atoms: O2_4  and  C3_5 
REMARK    4  A    between atoms: C6_12  and  N3_13 
REMARK    5  A    between atoms: C8_22  and  N6_23 
REMARK    6  A    between atoms: N6_23  and  C9_26 
REMARK    7  A    between atoms: C9_26  and  C10_27 
ROOT
HETATM    1  C3  UNL     1      15.596  44.917  46.704  1.00  0.00     0.274 C 
HETATM    2  N1  UNL     1      15.786  45.414  48.065  1.00  0.00    -0.353 N 
ATOM      3  H1  UNL     1      16.660  45.860  48.344  1.00  0.00     0.162 HD
HETATM    4  C4  UNL     1      14.727  45.260  48.982  1.00  0.00     0.144 A 
HETATM    5  C5  UNL     1      13.438  45.314  48.500  1.00  0.00     0.151 A 
HETATM    6  N2  UNL     1      12.392  45.175  49.340  1.00  0.00    -0.175 N 
ATOM      7  H2  UNL     1      11.435  45.213  48.991  1.00  0.00     0.186 HD
HETATM    8  C6  UNL     1      12.641  44.985  50.659  1.00  0.00     0.680 A 
HETATM    9  N4  UNL     1      13.886  44.928  51.170  1.00  0.00    -0.154 N 
ATOM     10  H4  UNL     1      14.027  44.784  52.170  1.00  0.00     0.187 HD
HETATM   11  C7  UNL     1      14.942  45.063  50.350  1.00  0.00     0.290 A 
HETATM   12  O3  UNL     1      16.138  45.024  50.736  1.00  0.00    -0.265 OA
HETATM   13  N5  UNL     1      13.278  45.523  47.111  1.00  0.00    -0.343 N 
ATOM     14  H5  UNL     1      12.347  45.770  46.776  1.00  0.00     0.163 HD
HETATM   15  C8  UNL     1      14.333  45.415  46.133  1.00  0.00     0.335 C 
ENDROOT
BRANCH  15  16
HETATM   16  N6  UNL     1      13.781  44.548  45.091  1.00  0.00    -0.046 N 
ATOM     17  H62 UNL     1      12.763  44.612  45.059  1.00  0.00     0.280 HD
ATOM     18  H61 UNL     1      13.994  44.908  44.161  1.00  0.00     0.280 HD
BRANCH  16  19
HETATM   19  C9  UNL     1      14.218  43.168  45.234  1.00  0.00     0.278 C 
BRANCH  19  20
HETATM   20  C10 UNL     1      12.990  42.310  45.432  1.00  0.00     0.080 C 
HETATM   21  N7  UNL     1      12.566  42.048  46.597  1.00  0.00    -0.410 N 
ATOM     22  H72 UNL     1      13.070  42.428  47.399  1.00  0.00     0.155 HD
ATOM     23  H71 UNL     1      11.736  41.469  46.730  1.00  0.00     0.155 HD
ENDBRANCH  19  20
ENDBRANCH  16  19
ENDBRANCH  15  16
BRANCH   1  24
HETATM   24  O2  UNL     1      16.716  45.247  45.935  1.00  0.00    -0.339 OA
BRANCH  24  25
HETATM   25  C2  UNL     1      17.760  44.397  45.952  1.00  0.00     0.339 C 
BRANCH  25  26
HETATM   26  O1  UNL     1      18.432  44.448  47.162  1.00  0.00    -0.372 OA
HETATM   27  C1  UNL     1      19.280  45.566  47.135  1.00  0.00     0.204 C 
ENDBRANCH  25  26
ENDBRANCH  24  25
ENDBRANCH   1  24
BRANCH   8  28
HETATM   28  N3  UNL     1      11.661  44.836  51.451  1.00  0.00    -0.234 N 
ATOM     29  H32 UNL     1      10.743  45.163  51.148  1.00  0.00     0.174 HD
ATOM     30  H31 UNL     1      11.825  44.410  52.363  1.00  0.00     0.174 HD
ENDBRANCH   8  28
TORSDOF 7
ENDMDL
MODEL 3
REMARK VINA RESULT: -6.341036846      1.715      1.753
REMARK  7 active torsions:
REMARK  status: ('A' for Active; 'I' for Inactive)
REMARK    1  A    between atoms: O1_2  and  C2_3 
REMARK    2  A    between atoms: C2_3  and  O2_4 
REMARK    3  A    between atoms: O2_4  and  C3_5 
REMARK    4  A    between atoms: C6_12  and  N3_13 
REMARK    5  A    between atoms: C8_22  and  N6_23 
REMARK    6  A    between atoms: N6_23  and  C9_26 
REMARK    7  A    between atoms: C9_26  and  C10_27 
ROOT
HETATM    1  C3  UNL     1      17.323  45.647  48.617  1.00  0.00     0.274 C 
HETATM    2  N1  UNL     1      18.340  45.511  47.577  1.00  0.00    -0.353 N 
ATOM      3  H1  UNL     1      18.517  44.611  47.131  1.00  0.00     0.162 HD
HETATM    4  C4  UNL     1      19.068  46.659  47.207  1.00  0.00     0.144 A 
HETATM    5  C5  UNL     1      18.431  47.879  47.265  1.00  0.00     0.151 A 
HETATM    6  N2  UNL     1      19.086  49.005  46.917  1.00  0.00    -0.175 N 
ATOM      7  H2  UNL     1      18.621  49.912  46.958  1.00  0.00     0.186 HD
HETATM    8  C6  UNL     1      20.375  48.905  46.511  1.00  0.00     0.680 A 
HETATM    9  N4  UNL     1      21.034  47.732  46.438  1.00  0.00    -0.154 N 
ATOM     10  H4  UNL     1      22.004  47.704  46.126  1.00  0.00     0.187 HD
HETATM   11  C7  UNL     1      20.399  46.599  46.781  1.00  0.00     0.290 A 
HETATM   12  O3  UNL     1      20.931  45.460  46.745  1.00  0.00    -0.265 OA
HETATM   13  N5  UNL     1      17.084  47.882  47.693  1.00  0.00    -0.343 N 
ATOM     14  H5  UNL     1      16.544  48.735  47.546  1.00  0.00     0.163 HD
HETATM   15  C8  UNL     1      16.415  46.770  48.324  1.00  0.00     0.335 C 
ENDROOT
BRANCH  15  16
HETATM   16  N6  UNL     1      15.791  47.343  49.516  1.00  0.00    -0.046 N 
ATOM     17  H62 UNL     1      16.111  46.872  50.363  1.00  0.00     0.280 HD
ATOM     18  H61 UNL     1      16.149  48.279  49.706  1.00  0.00     0.280 HD
BRANCH  16  19
HETATM   19  C9  UNL     1      14.339  47.342  49.431  1.00  0.00     0.278 C 
BRANCH  19  20
HETATM   20  C10 UNL     1      13.794  47.766  50.776  1.00  0.00     0.080 C 
HETATM   21  N7  UNL     1      14.575  48.149  51.697  1.00  0.00    -0.410 N 
ATOM     22  H72 UNL     1      15.579  48.165  51.514  1.00  0.00     0.155 HD
ATOM     23  H71 UNL     1      14.207  48.435  52.605  1.00  0.00     0.155 HD
ENDBRANCH  19  20
ENDBRANCH  16  19
ENDBRANCH  15  16
BRANCH   1  24
HETATM   24  O2  UNL     1      16.657  44.427  48.769  1.00  0.00    -0.339 OA
BRANCH  24  25
HETATM   25  C2  UNL     1      15.707  44.116  47.867  1.00  0.00     0.339 C 
BRANCH  25  26
HETATM   26  O1  UNL     1      16.249  43.485  46.760  1.00  0.00    -0.372 OA
HETATM   27  C1  UNL     1      15.363  42.472  46.365  1.00  0.00     0.204 C 
ENDBRANCH  25  26
ENDBRANCH  24  25
ENDBRANCH   1  24
BRANCH   8  28
HETATM   28  N3  UNL     1      21.002  49.964  46.199  1.00  0.00    -0.234 N 
ATOM     29  H32 UNL     1      21.049  50.716  46.887  1.00  0.00     0.174 HD
ATOM     30  H31 UNL     1      21.424  50.032  45.273  1.00  0.00     0.174 HD
ENDBRANCH   8  28
TORSDOF 7
ENDMDL
MODEL 4
REMARK VINA RESULT: -6.253543531      2.619      5.032
REMARK  7 active torsions:
REMARK  status: ('A' for Active; 'I' for Inactive)
REMARK    1  A    between atoms: O1_2  and  C2_3 
REMARK    2  A    between atoms: C2_3  and  O2_4 
REMARK    3  A    between atoms: O2_4  and  C3_5 
REMARK    4  A    between atoms: C6_12  and  N3_13 
REMARK    5  A    between atoms: C8_22  and  N6_23 
REMARK    6  A    between atoms: N6_23  and  C9_26 
REMARK    7  A    between atoms: C9_26  and  C10_27 
ROOT
HETATM    1  C3  UNL     1      15.588  44.484  48.054  1.00  0.00     0.274 C 
HETATM    2  N1  UNL     1      16.223  45.590  48.767  1.00  0.00    -0.353 N 
ATOM      3  H1  UNL     1      17.229  45.747  48.704  1.00  0.00     0.162 HD
HETATM    4  C4  UNL     1      15.406  46.434  49.546  1.00  0.00     0.144 A 
HETATM    5  C5  UNL     1      14.114  46.658  49.123  1.00  0.00     0.151 A 
HETATM    6  N2  UNL     1      13.296  47.461  49.833  1.00  0.00    -0.175 N 
ATOM      7  H2  UNL     1      12.339  47.631  49.527  1.00  0.00     0.186 HD
HETATM    8  C6  UNL     1      13.775  48.038  50.963  1.00  0.00     0.680 A 
HETATM    9  N4  UNL     1      15.031  47.845  51.410  1.00  0.00    -0.154 N 
ATOM     10  H4  UNL     1      15.349  48.300  52.265  1.00  0.00     0.187 HD
HETATM   11  C7  UNL     1      15.862  47.048  50.717  1.00  0.00     0.290 A 
HETATM   12  O3  UNL     1      17.049  46.811  51.056  1.00  0.00    -0.265 OA
HETATM   13  N5  UNL     1      13.708  46.020  47.929  1.00  0.00    -0.343 N 
ATOM     14  H5  UNL     1      12.839  46.335  47.498  1.00  0.00     0.163 HD
HETATM   15  C8  UNL     1      14.430  44.956  47.274  1.00  0.00     0.335 C 
ENDROOT
BRANCH  15  16
HETATM   16  N6  UNL     1      13.425  43.920  47.036  1.00  0.00    -0.046 N 
ATOM     17  H62 UNL     1      13.476  43.187  47.744  1.00  0.00     0.280 HD
ATOM     18  H61 UNL     1      12.486  44.266  47.231  1.00  0.00     0.280 HD
BRANCH  16  19
HETATM   19  C9  UNL     1      13.514  43.364  45.695  1.00  0.00     0.278 C 
BRANCH  19  20
HETATM   20  C10 UNL     1      13.860  41.898  45.822  1.00  0.00     0.080 C 
HETATM   21  N7  UNL     1      15.057  41.531  46.017  1.00  0.00    -0.410 N 
ATOM     22  H72 UNL     1      15.783  42.245  46.087  1.00  0.00     0.155 HD
ATOM     23  H71 UNL     1      15.290  40.542  46.103  1.00  0.00     0.155 HD
ENDBRANCH  19  20
ENDBRANCH  16  19
ENDBRANCH  15  16
BRANCH   1  24
HETATM   24  O2  UNL     1      16.547  43.832  47.274  1.00  0.00    -0.339 OA
BRANCH  24  25
HETATM   25  C2  UNL     1      17.514  44.583  46.712  1.00  0.00     0.339 C 
BRANCH  25  26
HETATM   26  O1  UNL     1      18.703  44.481  47.413  1.00  0.00    -0.372 OA
HETATM   27  C1  UNL     1      19.446  45.646  47.171  1.00  0.00     0.204 C 
ENDBRANCH  25  26
ENDBRANCH  24  25
ENDBRANCH   1  24
BRANCH   8  28
HETATM   28  N3  UNL     1      13.003  48.780  51.645  1.00  0.00    -0.234 N 
ATOM     29  H32 UNL     1      13.135  49.790  51.589  1.00  0.00     0.174 HD
ATOM     30  H31 UNL     1      12.292  48.344  52.231  1.00  0.00     0.174 HD
ENDBRANCH   8  28
TORSDOF 7
ENDMDL
MODEL 5
REMARK VINA RESULT: -6.224055588      2.754      6.443
REMARK  7 active torsions:
REMARK  status: ('A' for Active; 'I' for Inactive)
REMARK    1  A    between atoms: O1_2  and  C2_3 
REMARK    2  A    between atoms: C2_3  and  O2_4 
REMARK    3  A    between atoms: O2_4  and  C3_5 
REMARK    4  A    between atoms: C6_12  and  N3_13 
REMARK    5  A    between atoms: C8_22  and  N6_23 
REMARK    6  A    between atoms: N6_23  and  C9_26 
REMARK    7  A    between atoms: C9_26  and  C10_27 
ROOT
HETATM    1  C3  UNL     1      19.912  48.008  47.364  1.00  0.00     0.274 C 
HETATM    2  N1  UNL     1      18.499  47.899  47.007  1.00  0.00    -0.353 N 
ATOM      3  H1  UNL     1      18.012  48.671  46.550  1.00  0.00     0.162 HD
HETATM    4  C4  UNL     1      17.828  46.698  47.311  1.00  0.00     0.144 A 
HETATM    5  C5  UNL     1      18.547  45.524  47.270  1.00  0.00     0.151 A 
HETATM    6  N2  UNL     1      17.947  44.350  47.550  1.00  0.00    -0.175 N 
ATOM      7  H2  UNL     1      18.473  43.476  47.522  1.00  0.00     0.186 HD
HETATM    8  C6  UNL     1      16.629  44.354  47.868  1.00  0.00     0.680 A 
HETATM    9  N4  UNL     1      15.890  45.480  47.917  1.00  0.00    -0.154 N 
ATOM     10  H4  UNL     1      14.901  45.436  48.161  1.00  0.00     0.187 HD
HETATM   11  C7  UNL     1      16.469  46.660  47.642  1.00  0.00     0.290 A 
HETATM   12  O3  UNL     1      15.861  47.760  47.663  1.00  0.00    -0.265 OA
HETATM   13  N5  UNL     1      19.914  45.618  46.921  1.00  0.00    -0.343 N 
ATOM     14  H5  UNL     1      20.402  44.753  46.687  1.00  0.00     0.163 HD
HETATM   15  C8  UNL     1      20.671  46.846  46.872  1.00  0.00     0.335 C 
ENDROOT
BRANCH  15  16
HETATM   16  N6  UNL     1      21.879  46.565  47.648  1.00  0.00    -0.046 N 
ATOM     17  H62 UNL     1      22.641  46.255  47.044  1.00  0.00     0.280 HD
ATOM     18  H61 UNL     1      22.295  47.424  48.005  1.00  0.00     0.280 HD
BRANCH  16  19
HETATM   19  C9  UNL     1      21.635  45.612  48.719  1.00  0.00     0.278 C 
BRANCH  19  20
HETATM   20  C10 UNL     1      21.365  46.395  49.984  1.00  0.00     0.080 C 
HETATM   21  N7  UNL     1      22.093  47.384  50.299  1.00  0.00    -0.410 N 
ATOM     22  H72 UNL     1      22.864  47.642  49.682  1.00  0.00     0.155 HD
ATOM     23  H71 UNL     1      21.911  47.913  51.152  1.00  0.00     0.155 HD
ENDBRANCH  19  20
ENDBRANCH  16  19
ENDBRANCH  15  16
BRANCH   1  24
HETATM   24  O2  UNL     1      20.409  49.228  46.898  1.00  0.00    -0.339 OA
BRANCH  24  25
HETATM   25  C2  UNL     1      20.697  49.327  45.586  1.00  0.00     0.339 C 
BRANCH  25  26
HETATM   26  O1  UNL     1      19.557  49.570  44.837  1.00  0.00    -0.372 OA
HETATM   27  C1  UNL     1      19.935  50.317  43.711  1.00  0.00     0.204 C 
ENDBRANCH  25  26
ENDBRANCH  24  25
ENDBRANCH   1  24
BRANCH   8  28
HETATM   28  N3  UNL     1      16.064  43.253  48.149  1.00  0.00    -0.234 N 
ATOM     29  H32 UNL     1      15.129  43.084  47.777  1.00  0.00     0.174 HD
ATOM     30  H31 UNL     1      16.554  42.586  48.745  1.00  0.00     0.174 HD
ENDBRANCH   8  28
TORSDOF 7
ENDMDL
