MODEL 1
REMARK VINA RESULT: -7.582282000      0.000      0.000
REMARK  6 active torsions:
REMARK  status: ('A' for Active; 'I' for Inactive)
REMARK    1  A    between atoms: N1_1  and  C1_4 
REMARK    2  A    between atoms: C3_11  and  C4_12 
REMARK    3  A    between atoms: N8_22  and  C7_23 
REMARK    4  A    between atoms: C7_23  and  C8_24 
REMARK    5  A    between atoms: C8_24  and  C9_25 
REMARK    6  A    between atoms: C9_25  and  N9_26 
ROOT
HETATM    1  C4  UNL     1      14.093  47.105  49.361  1.00  0.00     0.127 A 
HETATM    2  N5  UNL     1      12.745  47.218  49.129  1.00  0.00    -0.307 N 
ATOM      3  H5  UNL     1      12.169  47.593  49.883  1.00  0.00     0.170 HD
HETATM    4  C5  UNL     1      12.132  46.881  48.006  1.00  0.00     0.279 A 
HETATM    5  O1  UNL     1      10.899  47.004  47.842  1.00  0.00    -0.265 OA
HETATM    6  C6  UNL     1      12.911  46.375  46.988  1.00  0.00     0.163 A 
HETATM    7  N6  UNL     1      12.636  45.934  45.727  1.00  0.00    -0.278 N 
ATOM      8  H6  UNL     1      11.720  45.901  45.281  1.00  0.00     0.189 HD
HETATM    9  N7  UNL     1      13.782  45.559  45.199  1.00  0.00    -0.238 N 
ATOM     10  H7  UNL     1      13.896  45.181  44.258  1.00  0.00     0.208 HD
HETATM   11  N8  UNL     1      14.771  45.746  46.074  1.00  0.00    -0.260 N 
HETATM   12  C10 UNL     1      14.245  46.254  47.197  1.00  0.00     0.159 A 
HETATM   13  N10 UNL     1      14.827  46.615  48.368  1.00  0.00    -0.324 N 
ATOM     14  H10 UNL     1      15.835  46.510  48.487  1.00  0.00     0.169 HD
ENDROOT
BRANCH   1  15
HETATM   15  C3  UNL     1      14.619  47.519  50.651  1.00  0.00     0.095 A 
HETATM   16  C1  UNL     1      13.904  48.199  51.625  1.00  0.00     0.131 A 
HETATM   17  N2  UNL     1      14.725  48.421  52.706  1.00  0.00    -0.284 N 
HETATM   18  N3  UNL     1      15.902  47.906  52.427  1.00  0.00    -0.285 N 
ATOM     19  H2  UNL     1      14.466  48.898  53.568  1.00  0.00     0.188 HD
HETATM   20  C2  UNL     1      15.858  47.352  51.180  1.00  0.00     0.148 A 
ATOM     21  H3  UNL     1      16.716  47.920  53.043  1.00  0.00     0.188 HD
HETATM   22  N4  UNL     1      16.968  46.720  50.595  1.00  0.00    -0.080 NA
BRANCH  16  23
HETATM   23  N1  UNL     1      12.707  48.609  51.660  1.00  0.00    -0.384 N 
ATOM     24  H12 UNL     1      12.280  49.488  51.367  1.00  0.00     0.157 HD
ATOM     25  H11 UNL     1      11.980  48.001  52.038  1.00  0.00     0.157 HD
ENDBRANCH  16  23
ENDBRANCH   1  15
BRANCH  11  26
HETATM   26  C7  UNL     1      16.184  45.463  45.889  1.00  0.00     0.154 C 
BRANCH  26  27
HETATM   27  C8  UNL     1      16.452  44.156  46.636  1.00  0.00     0.049 C 
BRANCH  27  28
HETATM   28  C9  UNL     1      17.517  44.359  47.694  1.00  0.00     0.231 C 
BRANCH  28  29
HETATM   29  N9  UNL     1      17.018  44.065  49.002  1.00  0.00    -0.079 N 
ATOM     30  H93 UNL     1      16.212  43.441  48.962  1.00  0.00     0.274 HD
ATOM     31  H92 UNL     1      17.658  43.463  49.520  1.00  0.00     0.274 HD
ATOM     32  H91 UNL     1      16.804  44.917  49.520  1.00  0.00     0.274 HD
ENDBRANCH  28  29
ENDBRANCH  27  28
ENDBRANCH  26  27
ENDBRANCH  11  26
TORSDOF 6
ENDMDL
MODEL 2
REMARK VINA RESULT: -7.555012173      3.798      5.731
REMARK  6 active torsions:
REMARK  status: ('A' for Active; 'I' for Inactive)
REMARK    1  A    between atoms: N1_1  and  C1_4 
REMARK    2  A    between atoms: C3_11  and  C4_12 
REMARK    3  A    between atoms: N8_22  and  C7_23 
REMARK    4  A    between atoms: C7_23  and  C8_24 
REMARK    5  A    between atoms: C8_24  and  C9_25 
REMARK    6  A    between atoms: C9_25  and  N9_26 
ROOT
HETATM    1  C4  UNL     1      18.536  46.472  47.751  1.00  0.00     0.127 A 
HETATM    2  N5  UNL     1      18.792  45.797  48.918  1.00  0.00    -0.307 N 
ATOM      3  H5  UNL     1      19.747  45.823  49.276  1.00  0.00     0.170 HD
HETATM    4  C5  UNL     1      17.899  45.115  49.619  1.00  0.00     0.279 A 
HETATM    5  O1  UNL     1      18.182  44.517  50.679  1.00  0.00    -0.265 OA
HETATM    6  C6  UNL     1      16.610  45.081  49.135  1.00  0.00     0.163 A 
HETATM    7  N6  UNL     1      15.459  44.496  49.575  1.00  0.00    -0.278 N 
ATOM      8  H6  UNL     1      15.347  43.931  50.417  1.00  0.00     0.189 HD
HETATM    9  N7  UNL     1      14.522  44.802  48.703  1.00  0.00    -0.238 N 
ATOM     10  H7  UNL     1      13.547  44.504  48.763  1.00  0.00     0.208 HD
HETATM   11  N8  UNL     1      15.032  45.557  47.730  1.00  0.00    -0.260 N 
HETATM   12  C10 UNL     1      16.335  45.741  47.984  1.00  0.00     0.159 A 
HETATM   13  N10 UNL     1      17.286  46.427  47.302  1.00  0.00    -0.324 N 
ATOM     14  H10 UNL     1      17.041  46.912  46.438  1.00  0.00     0.169 HD
ENDROOT
BRANCH   1  15
HETATM   15  C3  UNL     1      19.624  47.178  47.096  1.00  0.00     0.095 A 
HETATM   16  C1  UNL     1      19.705  48.553  46.940  1.00  0.00     0.131 A 
HETATM   17  N2  UNL     1      20.871  48.856  46.275  1.00  0.00    -0.284 N 
HETATM   18  N3  UNL     1      21.495  47.727  46.023  1.00  0.00    -0.285 N 
ATOM     19  H2  UNL     1      21.193  49.790  46.023  1.00  0.00     0.188 HD
HETATM   20  C2  UNL     1      20.751  46.693  46.516  1.00  0.00     0.148 A 
ATOM     21  H3  UNL     1      22.388  47.639  45.539  1.00  0.00     0.188 HD
HETATM   22  N4  UNL     1      21.155  45.352  46.402  1.00  0.00    -0.080 NA
BRANCH  16  23
HETATM   23  N1  UNL     1      18.929  49.489  47.291  1.00  0.00    -0.384 N 
ATOM     24  H12 UNL     1      18.920  50.484  47.069  1.00  0.00     0.157 HD
ATOM     25  H11 UNL     1      18.144  49.282  47.910  1.00  0.00     0.157 HD
ENDBRANCH  16  23
ENDBRANCH   1  15
BRANCH  11  26
HETATM   26  C7  UNL     1      14.339  46.106  46.577  1.00  0.00     0.154 C 
BRANCH  26  27
HETATM   27  C8  UNL     1      13.600  44.933  45.932  1.00  0.00     0.049 C 
BRANCH  27  28
HETATM   28  C9  UNL     1      14.564  44.068  45.146  1.00  0.00     0.231 C 
BRANCH  28  29
HETATM   29  N9  UNL     1      13.868  43.156  44.291  1.00  0.00    -0.079 N 
ATOM     30  H93 UNL     1      12.940  42.940  44.651  1.00  0.00     0.274 HD
ATOM     31  H92 UNL     1      13.597  43.600  43.413  1.00  0.00     0.274 HD
ATOM     32  H91 UNL     1      14.412  42.309  44.128  1.00  0.00     0.274 HD
ENDBRANCH  28  29
ENDBRANCH  27  28
ENDBRANCH  26  27
ENDBRANCH  11  26
TORSDOF 6
ENDMDL
MODEL 3
REMARK VINA RESULT: -7.486357964      1.197      1.334
REMARK  6 active torsions:
REMARK  status: ('A' for Active; 'I' for Inactive)
REMARK    1  A    between atoms: N1_1  and  C1_4 
REMARK    2  A    between atoms: C3_11  and  C4_12 
REMARK    3  A    between atoms: N8_22  and  C7_23 
REMARK    4  A    between atoms: C7_23  and  C8_24 
REMARK    5  A    between atoms: C8_24  and  C9_25 
REMARK    6  A    between atoms: C9_25  and  N9_26 
ROOT
HETATM    1  C4  UNL     1      14.038  46.760  49.429  1.00  0.00     0.127 A 
HETATM    2  N5  UNL     1      12.724  47.050  49.157  1.00  0.00    -0.307 N 
ATOM      3  H5  UNL     1      12.172  47.469  49.906  1.00  0.00     0.170 HD
HETATM    4  C5  UNL     1      12.116  46.830  48.002  1.00  0.00     0.279 A 
HETATM    5  O1  UNL     1      10.915  47.113  47.804  1.00  0.00    -0.265 OA
HETATM    6  C6  UNL     1      12.863  46.265  46.993  1.00  0.00     0.163 A 
HETATM    7  N6  UNL     1      12.582  45.905  45.707  1.00  0.00    -0.278 N 
ATOM      8  H6  UNL     1      11.686  46.002  45.230  1.00  0.00     0.189 HD
HETATM    9  N7  UNL     1      13.691  45.407  45.203  1.00  0.00    -0.238 N 
ATOM     10  H7  UNL     1      13.792  45.049  44.252  1.00  0.00     0.208 HD
HETATM   11  N8  UNL     1      14.663  45.438  46.116  1.00  0.00    -0.260 N 
HETATM   12  C10 UNL     1      14.162  45.971  47.239  1.00  0.00     0.159 A 
HETATM   13  N10 UNL     1      14.742  46.216  48.442  1.00  0.00    -0.324 N 
ATOM     14  H10 UNL     1      15.724  45.981  48.589  1.00  0.00     0.169 HD
ENDROOT
BRANCH   1  15
HETATM   15  C3  UNL     1      14.564  47.061  50.750  1.00  0.00     0.095 A 
HETATM   16  C1  UNL     1      14.138  48.102  51.561  1.00  0.00     0.131 A 
HETATM   17  N2  UNL     1      14.860  48.076  52.731  1.00  0.00    -0.284 N 
HETATM   18  N3  UNL     1      15.702  47.069  52.662  1.00  0.00    -0.285 N 
ATOM     19  H2  UNL     1      14.759  48.723  53.513  1.00  0.00     0.188 HD
HETATM   20  C2  UNL     1      15.536  46.438  51.462  1.00  0.00     0.148 A 
ATOM     21  H3  UNL     1      16.369  46.803  53.386  1.00  0.00     0.188 HD
HETATM   22  N4  UNL     1      16.296  45.317  51.088  1.00  0.00    -0.080 NA
BRANCH  16  23
HETATM   23  N1  UNL     1      13.256  48.994  51.394  1.00  0.00    -0.384 N 
ATOM     24  H12 UNL     1      13.037  49.840  51.920  1.00  0.00     0.157 HD
ATOM     25  H11 UNL     1      12.611  48.919  50.608  1.00  0.00     0.157 HD
ENDBRANCH  16  23
ENDBRANCH   1  15
BRANCH  11  26
HETATM   26  C7  UNL     1      16.035  44.986  45.966  1.00  0.00     0.154 C 
BRANCH  26  27
HETATM   27  C8  UNL     1      16.090  43.594  46.597  1.00  0.00     0.049 C 
BRANCH  27  28
HETATM   28  C9  UNL     1      15.056  42.684  45.966  1.00  0.00     0.231 C 
BRANCH  28  29
HETATM   29  N9  UNL     1      15.452  41.312  46.041  1.00  0.00    -0.079 N 
ATOM     30  H93 UNL     1      15.053  40.852  46.859  1.00  0.00     0.274 HD
ATOM     31  H92 UNL     1      15.005  40.754  45.314  1.00  0.00     0.274 HD
ATOM     32  H91 UNL     1      16.467  41.215  46.016  1.00  0.00     0.274 HD
ENDBRANCH  28  29
ENDBRANCH  27  28
ENDBRANCH  26  27
ENDBRANCH  11  26
TORSDOF 6
ENDMDL
MODEL 4
REMARK VINA RESULT: -7.468524472      3.566      5.971
REMARK  6 active torsions:
REMARK  status: ('A' for Active; 'I' for Inactive)
REMARK    1  A    between atoms: N1_1  and  C1_4 
REMARK    2  A    between atoms: C3_11  and  C4_12 
REMARK    3  A    between atoms: N8_22  and  C7_23 
REMARK    4  A    between atoms: C7_23  and  C8_24 
REMARK    5  A    between atoms: C8_24  and  C9_25 
REMARK    6  A    between atoms: C9_25  and  N9_26 
ROOT
HETATM    1  C4  UNL     1      16.370  45.740  47.659  1.00  0.00     0.127 A 
HETATM    2  N5  UNL     1      16.287  45.298  48.955  1.00  0.00    -0.307 N 
ATOM      3  H5  UNL     1      15.372  44.996  49.291  1.00  0.00     0.170 HD
HETATM    4  C5  UNL     1      17.298  45.231  49.807  1.00  0.00     0.279 A 
HETATM    5  O1  UNL     1      17.172  44.820  50.980  1.00  0.00    -0.265 OA
HETATM    6  C6  UNL     1      18.533  45.639  49.352  1.00  0.00     0.163 A 
HETATM    7  N6  UNL     1      19.768  45.709  49.928  1.00  0.00    -0.278 N 
ATOM      8  H6  UNL     1      20.009  45.447  50.884  1.00  0.00     0.189 HD
HETATM    9  N7  UNL     1      20.586  46.182  49.013  1.00  0.00    -0.238 N 
ATOM     10  H7  UNL     1      21.584  46.347  49.150  1.00  0.00     0.208 HD
HETATM   11  N8  UNL     1      19.921  46.413  47.880  1.00  0.00    -0.260 N 
HETATM   12  C10 UNL     1      18.637  46.080  48.075  1.00  0.00     0.159 A 
HETATM   13  N10 UNL     1      17.569  46.129  47.240  1.00  0.00    -0.324 N 
ATOM     14  H10 UNL     1      17.687  46.466  46.284  1.00  0.00     0.169 HD
ENDROOT
BRANCH   1  15
HETATM   15  C3  UNL     1      15.166  45.754  46.845  1.00  0.00     0.095 A 
HETATM   16  C1  UNL     1      14.026  46.494  47.117  1.00  0.00     0.131 A 
HETATM   17  N2  UNL     1      13.096  46.258  46.132  1.00  0.00    -0.284 N 
HETATM   18  N3  UNL     1      13.623  45.408  45.279  1.00  0.00    -0.285 N 
ATOM     19  H2  UNL     1      12.165  46.668  46.074  1.00  0.00     0.188 HD
HETATM   20  C2  UNL     1      14.885  45.090  45.696  1.00  0.00     0.148 A 
ATOM     21  H3  UNL     1      13.165  45.046  44.442  1.00  0.00     0.188 HD
HETATM   22  N4  UNL     1      15.711  44.199  44.989  1.00  0.00    -0.080 NA
BRANCH  16  23
HETATM   23  N1  UNL     1      13.742  47.289  48.061  1.00  0.00    -0.384 N 
ATOM     24  H12 UNL     1      13.139  48.110  48.100  1.00  0.00     0.157 HD
ATOM     25  H11 UNL     1      14.156  47.141  48.982  1.00  0.00     0.157 HD
ENDBRANCH  16  23
ENDBRANCH   1  15
BRANCH  11  26
HETATM   26  C7  UNL     1      20.450  46.933  46.632  1.00  0.00     0.154 C 
BRANCH  26  27
HETATM   27  C8  UNL     1      20.322  48.454  46.722  1.00  0.00     0.049 C 
BRANCH  27  28
HETATM   28  C9  UNL     1      20.885  49.109  45.477  1.00  0.00     0.231 C 
BRANCH  28  29
HETATM   29  N9  UNL     1      21.600  50.306  45.795  1.00  0.00    -0.079 N 
ATOM     30  H93 UNL     1      21.053  50.920  46.398  1.00  0.00     0.274 HD
ATOM     31  H92 UNL     1      22.379  50.120  46.426  1.00  0.00     0.274 HD
ATOM     32  H91 UNL     1      21.909  50.790  44.952  1.00  0.00     0.274 HD
ENDBRANCH  28  29
ENDBRANCH  27  28
ENDBRANCH  26  27
ENDBRANCH  11  26
TORSDOF 6
ENDMDL
MODEL 5
REMARK VINA RESULT: -7.403816628      3.470      6.275
REMARK  6 active torsions:
REMARK  status: ('A' for Active; 'I' for Inactive)
REMARK    1  A    between atoms: N1_1  and  C1_4 
REMARK    2  A    between atoms: C3_11  and  C4_12 
REMARK    3  A    between atoms: N8_22  and  C7_23 
REMARK    4  A    between atoms: C7_23  and  C8_24 
REMARK    5  A    between atoms: C8_24  and  C9_25 
REMARK    6  A    between atoms: C9_25  and  N9_26 
ROOT
HETATM    1  C4  UNL     1      16.407  44.818  47.433  1.00  0.00     0.127 A 
HETATM    2  N5  UNL     1      16.238  44.760  48.794  1.00  0.00    -0.307 N 
ATOM      3  H5  UNL     1      15.325  44.470  49.141  1.00  0.00     0.170 HD
HETATM    4  C5  UNL     1      17.167  45.051  49.692  1.00  0.00     0.279 A 
HETATM    5  O1  UNL     1      16.964  44.982  50.923  1.00  0.00    -0.265 OA
HETATM    6  C6  UNL     1      18.401  45.442  49.221  1.00  0.00     0.163 A 
HETATM    7  N6  UNL     1      19.564  45.808  49.831  1.00  0.00    -0.278 N 
ATOM      8  H6  UNL     1      19.735  45.858  50.836  1.00  0.00     0.189 HD
HETATM    9  N7  UNL     1      20.423  46.084  48.874  1.00  0.00    -0.238 N 
ATOM     10  H7  UNL     1      21.386  46.388  49.022  1.00  0.00     0.208 HD
HETATM   11  N8  UNL     1      19.852  45.906  47.682  1.00  0.00    -0.260 N 
HETATM   12  C10 UNL     1      18.588  45.506  47.881  1.00  0.00     0.159 A 
HETATM   13  N10 UNL     1      17.604  45.198  46.999  1.00  0.00    -0.324 N 
ATOM     14  H10 UNL     1      17.784  45.257  45.996  1.00  0.00     0.169 HD
ENDROOT
BRANCH   1  15
HETATM   15  C3  UNL     1      15.290  44.468  46.572  1.00  0.00     0.095 A 
HETATM   16  C1  UNL     1      15.017  43.195  46.097  1.00  0.00     0.131 A 
HETATM   17  N2  UNL     1      13.885  43.245  45.317  1.00  0.00    -0.284 N 
HETATM   18  N3  UNL     1      13.465  44.490  45.300  1.00  0.00    -0.285 N 
ATOM     19  H2  UNL     1      13.450  42.457  44.837  1.00  0.00     0.188 HD
HETATM   20  C2  UNL     1      14.307  45.251  46.060  1.00  0.00     0.148 A 
ATOM     21  H3  UNL     1      12.643  44.832  44.801  1.00  0.00     0.188 HD
HETATM   22  N4  UNL     1      14.123  46.632  46.239  1.00  0.00    -0.080 NA
BRANCH  16  23
HETATM   23  N1  UNL     1      15.607  42.087  46.263  1.00  0.00    -0.384 N 
ATOM     24  H12 UNL     1      15.315  41.127  46.084  1.00  0.00     0.157 HD
ATOM     25  H11 UNL     1      16.554  42.077  46.643  1.00  0.00     0.157 HD
ENDBRANCH  16  23
ENDBRANCH   1  15
BRANCH  11  26
HETATM   26  C7  UNL     1      20.452  46.101  46.373  1.00  0.00     0.154 C 
BRANCH  26  27
HETATM   27  C8  UNL     1      21.141  47.465  46.425  1.00  0.00     0.049 C 
BRANCH  27  28
HETATM   28  C9  UNL     1      20.113  48.578  46.429  1.00  0.00     0.231 C 
BRANCH  28  29
HETATM   29  N9  UNL     1      20.282  49.440  47.558  1.00  0.00    -0.079 N 
ATOM     30  H93 UNL     1      20.893  49.022  48.260  1.00  0.00     0.274 HD
ATOM     31  H92 UNL     1      20.846  50.257  47.325  1.00  0.00     0.274 HD
ATOM     32  H91 UNL     1      19.384  49.709  47.959  1.00  0.00     0.274 HD
ENDBRANCH  28  29
ENDBRANCH  27  28
ENDBRANCH  26  27
ENDBRANCH  11  26
TORSDOF 6
ENDMDL
