MODEL 1
REMARK VINA RESULT: -9.438563191      0.000      0.000
REMARK  14 active torsions:
REMARK  status: ('A' for Active; 'I' for Inactive)
REMARK    1  A    between atoms: C2_2  and  C3_3 
REMARK    2  A    between atoms: C3_3  and  C4_4 
REMARK    3  A    between atoms: C4_4  and  N1_5 
REMARK       I    between atoms: N1_5  and  C5_6 
REMARK    4  A    between atoms: N1_5  and  C20_28 
REMARK    5  A    between atoms: C5_6  and  C6_8 
REMARK    6  A    between atoms: C9_11  and  C10_12 
REMARK    7  A    between atoms: C10_12  and  O2_13 
REMARK    8  A    between atoms: C10_12  and  N2_15 
REMARK    9  A    between atoms: N2_15  and  C12_17 
REMARK   10  A    between atoms: N5_31  and  C22_32 
REMARK   11  A    between atoms: C22_32  and  C23_33 
REMARK   12  A    between atoms: C23_33  and  C24_34 
REMARK   13  A    between atoms: N6_38  and  C27_39 
REMARK   14  A    between atoms: C27_39  and  C28_40 
ROOT
HETATM    1  N1  UNL     1      14.726  21.352  16.415  1.00  0.00    -0.306 N 
HETATM    2  C5  UNL     1      14.966  22.731  16.145  1.00  0.00     0.264 C 
HETATM    3  O1  UNL     1      14.093  23.366  15.509  1.00  0.00    -0.267 OA
ENDROOT
BRANCH   2   4
HETATM    4  C6  UNL     1      16.149  23.473  16.556  1.00  0.00     0.100 A 
HETATM    5  C7  UNL     1      17.367  23.362  15.930  1.00  0.00     0.025 A 
HETATM    6  C8  UNL     1      18.469  24.066  16.320  1.00  0.00     0.035 A 
HETATM    7  C9  UNL     1      18.412  24.966  17.415  1.00  0.00     0.086 A 
HETATM    8  N3  UNL     1      17.214  25.062  18.011  1.00  0.00    -0.319 N 
HETATM    9  C19 UNL     1      16.112  24.354  17.615  1.00  0.00     0.261 A 
ATOM     10  H3  UNL     1      17.119  25.697  18.803  1.00  0.00     0.169 HD
HETATM   11  O3  UNL     1      15.057  24.560  18.281  1.00  0.00    -0.267 OA
BRANCH   7  12
HETATM   12  C10 UNL     1      19.626  25.609  17.800  1.00  0.00     0.165 C 
BRANCH  12  13
HETATM   13  O2  UNL     1      20.480  24.834  18.422  1.00  0.00    -0.344 OA
ATOM     14  H2  UNL     1      21.389  24.978  18.188  1.00  0.00     0.219 HD
ENDBRANCH  12  13
BRANCH  12  15
HETATM   15  N2  UNL     1      20.121  26.921  17.662  1.00  0.00    -0.359 N 
HETATM   16  C11 UNL     1      20.523  27.754  18.777  1.00  0.00     0.152 C 
BRANCH  15  17
HETATM   17  C12 UNL     1      20.205  27.487  16.308  1.00  0.00     0.090 C 
HETATM   18  C13 UNL     1      21.120  28.631  16.175  1.00  0.00     0.030 C 
HETATM   19  C14 UNL     1      21.867  28.379  14.859  1.00  0.00    -0.012 C 
HETATM   20  C15 UNL     1      20.851  28.304  13.775  1.00  0.00     0.005 C 
HETATM   21  C18 UNL     1      22.173  26.889  15.090  1.00  0.00     0.011 C 
HETATM   22  C16 UNL     1      20.197  26.931  13.958  1.00  0.00     0.007 C 
HETATM   23  C17 UNL     1      20.757  26.459  15.323  1.00  0.00     0.009 C 
ENDBRANCH  15  17
ENDBRANCH  12  15
ENDBRANCH   7  12
ENDBRANCH   2   4
BRANCH   1  24
HETATM   24  C4  UNL     1      15.693  20.642  17.161  1.00  0.00     0.133 C 
BRANCH  24  25
HETATM   25  C3  UNL     1      15.819  20.854  18.625  1.00  0.00     0.020 C 
BRANCH  25  26
HETATM   26  C2  UNL     1      17.274  21.289  18.860  1.00  0.00    -0.003 C 
HETATM   27  C1  UNL     1      17.415  22.001  20.174  1.00  0.00     0.005 C 
ENDBRANCH  25  26
ENDBRANCH  24  25
ENDBRANCH   1  24
BRANCH   1  28
HETATM   28  C20 UNL     1      13.492  20.825  15.954  1.00  0.00     0.148 A 
HETATM   29  C21 UNL     1      12.501  20.611  16.929  1.00  0.00     0.155 A 
HETATM   30  N4  UNL     1      12.733  20.935  18.287  1.00  0.00    -0.080 NA
HETATM   31  N5  UNL     1      11.295  20.100  16.623  1.00  0.00    -0.285 N 
HETATM   32  C26 UNL     1      10.999  19.774  15.358  1.00  0.00     0.333 A 
HETATM   33  O4  UNL     1       9.842  19.291  15.120  1.00  0.00    -0.246 OA
HETATM   34  N6  UNL     1      11.906  19.959  14.397  1.00  0.00    -0.264 N 
HETATM   35  C30 UNL     1      13.138  20.478  14.690  1.00  0.00     0.282 A 
HETATM   36  O5  UNL     1      13.980  20.648  13.766  1.00  0.00    -0.265 OA
BRANCH  31  37
HETATM   37  C22 UNL     1      10.284  19.905  17.668  1.00  0.00     0.135 C 
BRANCH  37  38
HETATM   38  C23 UNL     1      10.314  18.440  18.060  1.00  0.00     0.020 C 
BRANCH  38  39
HETATM   39  C24 UNL     1      10.634  18.230  19.519  1.00  0.00    -0.003 C 
HETATM   40  C25 UNL     1      12.017  17.613  19.686  1.00  0.00     0.005 C 
ENDBRANCH  38  39
ENDBRANCH  37  38
ENDBRANCH  31  37
BRANCH  34  41
HETATM   41  C27 UNL     1      11.602  19.611  13.048  1.00  0.00     0.137 C 
BRANCH  41  42
HETATM   42  C28 UNL     1      11.769  18.155  12.709  1.00  0.00     0.016 C 
HETATM   43  C29 UNL     1      10.705  17.827  11.653  1.00  0.00     0.006 C 
ENDBRANCH  41  42
ENDBRANCH  34  41
ENDBRANCH   1  28
TORSDOF 14
ENDMDL
MODEL 2
REMARK VINA RESULT: -9.358124303      1.687      3.971
REMARK  14 active torsions:
REMARK  status: ('A' for Active; 'I' for Inactive)
REMARK    1  A    between atoms: C2_2  and  C3_3 
REMARK    2  A    between atoms: C3_3  and  C4_4 
REMARK    3  A    between atoms: C4_4  and  N1_5 
REMARK       I    between atoms: N1_5  and  C5_6 
REMARK    4  A    between atoms: N1_5  and  C20_28 
REMARK    5  A    between atoms: C5_6  and  C6_8 
REMARK    6  A    between atoms: C9_11  and  C10_12 
REMARK    7  A    between atoms: C10_12  and  O2_13 
REMARK    8  A    between atoms: C10_12  and  N2_15 
REMARK    9  A    between atoms: N2_15  and  C12_17 
REMARK   10  A    between atoms: N5_31  and  C22_32 
REMARK   11  A    between atoms: C22_32  and  C23_33 
REMARK   12  A    between atoms: C23_33  and  C24_34 
REMARK   13  A    between atoms: N6_38  and  C27_39 
REMARK   14  A    between atoms: C27_39  and  C28_40 
ROOT
HETATM    1  N1  UNL     1      15.067  21.899  16.477  1.00  0.00    -0.306 N 
HETATM    2  C5  UNL     1      15.051  23.302  16.226  1.00  0.00     0.264 C 
HETATM    3  O1  UNL     1      13.974  23.819  15.848  1.00  0.00    -0.267 OA
ENDROOT
BRANCH   2   4
HETATM    4  C6  UNL     1      16.191  24.195  16.381  1.00  0.00     0.100 A 
HETATM    5  C7  UNL     1      17.185  24.322  15.442  1.00  0.00     0.025 A 
HETATM    6  C8  UNL     1      18.247  25.166  15.595  1.00  0.00     0.035 A 
HETATM    7  C9  UNL     1      18.381  25.971  16.754  1.00  0.00     0.086 A 
HETATM    8  N3  UNL     1      17.398  25.835  17.658  1.00  0.00    -0.319 N 
HETATM    9  C19 UNL     1      16.336  24.987  17.499  1.00  0.00     0.261 A 
ATOM     10  H3  UNL     1      17.445  26.394  18.509  1.00  0.00     0.169 HD
HETATM   11  O3  UNL     1      15.493  24.978  18.443  1.00  0.00    -0.267 OA
BRANCH   7  12
HETATM   12  C10 UNL     1      19.555  26.773  16.865  1.00  0.00     0.165 C 
BRANCH  12  13
HETATM   13  O2  UNL     1      19.541  27.863  16.137  1.00  0.00    -0.344 OA
ATOM     14  H2  UNL     1      19.401  28.665  16.628  1.00  0.00     0.219 HD
ENDBRANCH  12  13
BRANCH  12  15
HETATM   15  N2  UNL     1      20.755  26.650  17.593  1.00  0.00    -0.359 N 
HETATM   16  C11 UNL     1      21.971  27.367  17.273  1.00  0.00     0.152 C 
BRANCH  15  17
HETATM   17  C12 UNL     1      20.779  25.715  18.727  1.00  0.00     0.090 C 
HETATM   18  C13 UNL     1      22.124  25.365  19.208  1.00  0.00     0.030 C 
HETATM   19  C14 UNL     1      22.010  25.397  20.737  1.00  0.00    -0.012 C 
HETATM   20  C15 UNL     1      20.966  24.411  21.128  1.00  0.00     0.005 C 
HETATM   21  C18 UNL     1      21.233  26.720  20.849  1.00  0.00     0.011 C 
HETATM   22  C16 UNL     1      19.643  25.090  20.765  1.00  0.00     0.007 C 
HETATM   23  C17 UNL     1      20.100  26.326  19.951  1.00  0.00     0.009 C 
ENDBRANCH  15  17
ENDBRANCH  12  15
ENDBRANCH   7  12
ENDBRANCH   2   4
BRANCH   1  24
HETATM   24  C4  UNL     1      16.270  21.319  16.935  1.00  0.00     0.133 C 
BRANCH  24  25
HETATM   25  C3  UNL     1      16.469  21.038  18.380  1.00  0.00     0.020 C 
BRANCH  25  26
HETATM   26  C2  UNL     1      17.645  21.925  18.820  1.00  0.00    -0.003 C 
HETATM   27  C1  UNL     1      17.857  21.838  20.303  1.00  0.00     0.005 C 
ENDBRANCH  25  26
ENDBRANCH  24  25
ENDBRANCH   1  24
BRANCH   1  28
HETATM   28  C20 UNL     1      13.839  21.212  16.297  1.00  0.00     0.148 A 
HETATM   29  C21 UNL     1      13.504  20.867  14.975  1.00  0.00     0.155 A 
HETATM   30  N4  UNL     1      14.371  21.174  13.899  1.00  0.00    -0.080 NA
HETATM   31  N5  UNL     1      12.359  20.230  14.670  1.00  0.00    -0.285 N 
HETATM   32  C26 UNL     1      11.490  19.901  15.635  1.00  0.00     0.333 A 
HETATM   33  O4  UNL     1      10.418  19.299  15.294  1.00  0.00    -0.246 OA
HETATM   34  N6  UNL     1      11.763  20.206  16.904  1.00  0.00    -0.264 N 
HETATM   35  C30 UNL     1      12.923  20.854  17.233  1.00  0.00     0.282 A 
HETATM   36  O5  UNL     1      13.164  21.130  18.440  1.00  0.00    -0.265 OA
BRANCH  31  37
HETATM   37  C22 UNL     1      12.054  19.876  13.279  1.00  0.00     0.135 C 
BRANCH  37  38
HETATM   38  C23 UNL     1      12.583  18.475  13.042  1.00  0.00     0.020 C 
BRANCH  38  39
HETATM   39  C24 UNL     1      11.580  17.576  12.362  1.00  0.00    -0.003 C 
HETATM   40  C25 UNL     1      12.213  16.240  11.995  1.00  0.00     0.005 C 
ENDBRANCH  38  39
ENDBRANCH  37  38
ENDBRANCH  31  37
BRANCH  34  41
HETATM   41  C27 UNL     1      10.843  19.863  17.939  1.00  0.00     0.137 C 
BRANCH  41  42
HETATM   42  C28 UNL     1      11.021  18.489  18.523  1.00  0.00     0.016 C 
HETATM   43  C29 UNL     1      11.243  18.680  20.029  1.00  0.00     0.006 C 
ENDBRANCH  41  42
ENDBRANCH  34  41
ENDBRANCH   1  28
TORSDOF 14
ENDMDL
MODEL 3
REMARK VINA RESULT: -9.338479351      1.600      2.730
REMARK  14 active torsions:
REMARK  status: ('A' for Active; 'I' for Inactive)
REMARK    1  A    between atoms: C2_2  and  C3_3 
REMARK    2  A    between atoms: C3_3  and  C4_4 
REMARK    3  A    between atoms: C4_4  and  N1_5 
REMARK       I    between atoms: N1_5  and  C5_6 
REMARK    4  A    between atoms: N1_5  and  C20_28 
REMARK    5  A    between atoms: C5_6  and  C6_8 
REMARK    6  A    between atoms: C9_11  and  C10_12 
REMARK    7  A    between atoms: C10_12  and  O2_13 
REMARK    8  A    between atoms: C10_12  and  N2_15 
REMARK    9  A    between atoms: N2_15  and  C12_17 
REMARK   10  A    between atoms: N5_31  and  C22_32 
REMARK   11  A    between atoms: C22_32  and  C23_33 
REMARK   12  A    between atoms: C23_33  and  C24_34 
REMARK   13  A    between atoms: N6_38  and  C27_39 
REMARK   14  A    between atoms: C27_39  and  C28_40 
ROOT
HETATM    1  N1  UNL     1      15.265  21.889  16.336  1.00  0.00    -0.306 N 
HETATM    2  C5  UNL     1      15.227  23.291  16.080  1.00  0.00     0.264 C 
HETATM    3  O1  UNL     1      14.157  23.781  15.650  1.00  0.00    -0.267 OA
ENDROOT
BRANCH   2   4
HETATM    4  C6  UNL     1      16.335  24.212  16.286  1.00  0.00     0.100 A 
HETATM    5  C7  UNL     1      17.340  24.403  15.369  1.00  0.00     0.025 A 
HETATM    6  C8  UNL     1      18.373  25.273  15.569  1.00  0.00     0.035 A 
HETATM    7  C9  UNL     1      18.463  26.039  16.759  1.00  0.00     0.086 A 
HETATM    8  N3  UNL     1      17.471  25.840  17.641  1.00  0.00    -0.319 N 
HETATM    9  C19 UNL     1      16.438  24.967  17.434  1.00  0.00     0.261 A 
ATOM     10  H3  UNL     1      17.488  26.368  18.513  1.00  0.00     0.169 HD
HETATM   11  O3  UNL     1      15.582  24.898  18.363  1.00  0.00    -0.267 OA
BRANCH   7  12
HETATM   12  C10 UNL     1      19.610  26.871  16.918  1.00  0.00     0.165 C 
BRANCH  12  13
HETATM   13  O2  UNL     1      19.566  27.995  16.245  1.00  0.00    -0.344 OA
ATOM     14  H2  UNL     1      20.000  28.727  16.668  1.00  0.00     0.219 HD
ENDBRANCH  12  13
BRANCH  12  15
HETATM   15  N2  UNL     1      20.808  26.752  17.650  1.00  0.00    -0.359 N 
HETATM   16  C11 UNL     1      22.013  27.500  17.356  1.00  0.00     0.152 C 
BRANCH  15  17
HETATM   17  C12 UNL     1      20.844  25.787  18.759  1.00  0.00     0.090 C 
HETATM   18  C13 UNL     1      22.195  25.435  19.225  1.00  0.00     0.030 C 
HETATM   19  C14 UNL     1      22.086  25.426  20.755  1.00  0.00    -0.012 C 
HETATM   20  C15 UNL     1      21.052  24.421  21.123  1.00  0.00     0.005 C 
HETATM   21  C18 UNL     1      21.299  26.739  20.904  1.00  0.00     0.011 C 
HETATM   22  C16 UNL     1      19.722  25.099  20.784  1.00  0.00     0.007 C 
HETATM   23  C17 UNL     1      20.165  26.360  20.000  1.00  0.00     0.009 C 
ENDBRANCH  15  17
ENDBRANCH  12  15
ENDBRANCH   7  12
ENDBRANCH   2   4
BRANCH   1  24
HETATM   24  C4  UNL     1      16.458  21.340  16.853  1.00  0.00     0.133 C 
BRANCH  24  25
HETATM   25  C3  UNL     1      16.595  21.068  18.306  1.00  0.00     0.020 C 
BRANCH  25  26
HETATM   26  C2  UNL     1      17.744  21.966  18.793  1.00  0.00    -0.003 C 
HETATM   27  C1  UNL     1      17.900  21.877  20.284  1.00  0.00     0.005 C 
ENDBRANCH  25  26
ENDBRANCH  24  25
ENDBRANCH   1  24
BRANCH   1  28
HETATM   28  C20 UNL     1      14.063  21.172  16.100  1.00  0.00     0.148 A 
HETATM   29  C21 UNL     1      13.239  20.950  17.217  1.00  0.00     0.155 A 
HETATM   30  N4  UNL     1      13.594  21.444  18.495  1.00  0.00    -0.080 NA
HETATM   31  N5  UNL     1      12.082  20.268  17.129  1.00  0.00    -0.285 N 
HETATM   32  C26 UNL     1      11.676  19.775  15.951  1.00  0.00     0.333 A 
HETATM   33  O4  UNL     1      10.572  19.135  15.921  1.00  0.00    -0.246 OA
HETATM   34  N6  UNL     1      12.423  19.960  14.862  1.00  0.00    -0.264 N 
HETATM   35  C30 UNL     1      13.603  20.651  14.933  1.00  0.00     0.282 A 
HETATM   36  O5  UNL     1      14.293  20.818  13.891  1.00  0.00    -0.265 OA
BRANCH  31  37
HETATM   37  C22 UNL     1      11.245  20.070  18.317  1.00  0.00     0.135 C 
BRANCH  37  38
HETATM   38  C23 UNL     1      11.683  18.771  18.967  1.00  0.00     0.020 C 
BRANCH  38  39
HETATM   39  C24 UNL     1      11.594  18.811  20.473  1.00  0.00    -0.003 C 
HETATM   40  C25 UNL     1      11.599  17.402  21.052  1.00  0.00     0.005 C 
ENDBRANCH  38  39
ENDBRANCH  37  38
ENDBRANCH  31  37
BRANCH  34  41
HETATM   41  C27 UNL     1      12.001  19.435  13.605  1.00  0.00     0.137 C 
BRANCH  41  42
HETATM   42  C28 UNL     1      10.750  20.052  13.041  1.00  0.00     0.016 C 
HETATM   43  C29 UNL     1      10.398  19.251  11.781  1.00  0.00     0.006 C 
ENDBRANCH  41  42
ENDBRANCH  34  41
ENDBRANCH   1  28
TORSDOF 14
ENDMDL
MODEL 4
REMARK VINA RESULT: -9.296774267      1.245      3.392
REMARK  14 active torsions:
REMARK  status: ('A' for Active; 'I' for Inactive)
REMARK    1  A    between atoms: C2_2  and  C3_3 
REMARK    2  A    between atoms: C3_3  and  C4_4 
REMARK    3  A    between atoms: C4_4  and  N1_5 
REMARK       I    between atoms: N1_5  and  C5_6 
REMARK    4  A    between atoms: N1_5  and  C20_28 
REMARK    5  A    between atoms: C5_6  and  C6_8 
REMARK    6  A    between atoms: C9_11  and  C10_12 
REMARK    7  A    between atoms: C10_12  and  O2_13 
REMARK    8  A    between atoms: C10_12  and  N2_15 
REMARK    9  A    between atoms: N2_15  and  C12_17 
REMARK   10  A    between atoms: N5_31  and  C22_32 
REMARK   11  A    between atoms: C22_32  and  C23_33 
REMARK   12  A    between atoms: C23_33  and  C24_34 
REMARK   13  A    between atoms: N6_38  and  C27_39 
REMARK   14  A    between atoms: C27_39  and  C28_40 
ROOT
HETATM    1  N1  UNL     1      14.422  21.530  16.365  1.00  0.00    -0.306 N 
HETATM    2  C5  UNL     1      14.427  22.944  16.173  1.00  0.00     0.264 C 
HETATM    3  O1  UNL     1      13.371  23.486  15.775  1.00  0.00    -0.267 OA
ENDROOT
BRANCH   2   4
HETATM    4  C6  UNL     1      15.567  23.818  16.411  1.00  0.00     0.100 A 
HETATM    5  C7  UNL     1      16.593  23.984  15.512  1.00  0.00     0.025 A 
HETATM    6  C8  UNL     1      17.654  24.811  15.742  1.00  0.00     0.035 A 
HETATM    7  C9  UNL     1      17.754  25.556  16.944  1.00  0.00     0.086 A 
HETATM    8  N3  UNL     1      16.741  25.381  17.808  1.00  0.00    -0.319 N 
HETATM    9  C19 UNL     1      15.680  24.551  17.571  1.00  0.00     0.261 A 
ATOM     10  H3  UNL     1      16.764  25.896  18.688  1.00  0.00     0.169 HD
HETATM   11  O3  UNL     1      14.806  24.502  18.485  1.00  0.00    -0.267 OA
BRANCH   7  12
HETATM   12  C10 UNL     1      18.929  26.342  17.134  1.00  0.00     0.165 C 
BRANCH  12  13
HETATM   13  O2  UNL     1      19.248  26.551  18.388  1.00  0.00    -0.344 OA
ATOM     14  H2  UNL     1      18.755  26.033  19.014  1.00  0.00     0.219 HD
ENDBRANCH  12  13
BRANCH  12  15
HETATM   15  N2  UNL     1      19.840  26.961  16.257  1.00  0.00    -0.359 N 
HETATM   16  C11 UNL     1      19.452  27.870  15.198  1.00  0.00     0.152 C 
BRANCH  15  17
HETATM   17  C12 UNL     1      21.267  26.642  16.408  1.00  0.00     0.090 C 
HETATM   18  C13 UNL     1      22.021  26.576  15.147  1.00  0.00     0.030 C 
HETATM   19  C14 UNL     1      23.342  27.295  15.446  1.00  0.00    -0.012 C 
HETATM   20  C15 UNL     1      24.000  26.571  16.568  1.00  0.00     0.005 C 
HETATM   21  C18 UNL     1      22.744  28.508  16.179  1.00  0.00     0.011 C 
HETATM   22  C16 UNL     1      23.205  26.984  17.809  1.00  0.00     0.007 C 
HETATM   23  C17 UNL     1      21.985  27.727  17.208  1.00  0.00     0.009 C 
ENDBRANCH  15  17
ENDBRANCH  12  15
ENDBRANCH   7  12
ENDBRANCH   2   4
BRANCH   1  24
HETATM   24  C4  UNL     1      15.602  20.921  16.846  1.00  0.00     0.133 C 
BRANCH  24  25
HETATM   25  C3  UNL     1      15.834  20.777  18.306  1.00  0.00     0.020 C 
BRANCH  25  26
HETATM   26  C2  UNL     1      17.185  21.455  18.583  1.00  0.00    -0.003 C 
HETATM   27  C1  UNL     1      17.232  22.007  19.978  1.00  0.00     0.005 C 
ENDBRANCH  25  26
ENDBRANCH  24  25
ENDBRANCH   1  24
BRANCH   1  28
HETATM   28  C20 UNL     1      13.197  20.864  16.108  1.00  0.00     0.148 A 
HETATM   29  C21 UNL     1      12.918  20.566  14.761  1.00  0.00     0.155 A 
HETATM   30  N4  UNL     1      13.836  20.899  13.736  1.00  0.00    -0.080 NA
HETATM   31  N5  UNL     1      11.782  19.952  14.385  1.00  0.00    -0.285 N 
HETATM   32  C26 UNL     1      10.868  19.601  15.299  1.00  0.00     0.333 A 
HETATM   33  O4  UNL     1       9.807  19.022  14.891  1.00  0.00    -0.246 OA
HETATM   34  N6  UNL     1      11.087  19.861  16.589  1.00  0.00    -0.264 N 
HETATM   35  C30 UNL     1      12.237  20.485  16.990  1.00  0.00     0.282 A 
HETATM   36  O5  UNL     1      12.426  20.719  18.215  1.00  0.00    -0.265 OA
BRANCH  31  37
HETATM   37  C22 UNL     1      11.536  19.647  12.971  1.00  0.00     0.135 C 
BRANCH  37  38
HETATM   38  C23 UNL     1      11.827  18.173  12.769  1.00  0.00     0.020 C 
BRANCH  38  39
HETATM   39  C24 UNL     1      10.912  17.528  11.757  1.00  0.00    -0.003 C 
HETATM   40  C25 UNL     1      10.127  18.583  10.988  1.00  0.00     0.005 C 
ENDBRANCH  38  39
ENDBRANCH  37  38
ENDBRANCH  31  37
BRANCH  34  41
HETATM   41  C27 UNL     1      10.118  19.494  17.569  1.00  0.00     0.137 C 
BRANCH  41  42
HETATM   42  C28 UNL     1      10.168  18.057  18.012  1.00  0.00     0.016 C 
HETATM   43  C29 UNL     1      10.496  18.073  19.510  1.00  0.00     0.006 C 
ENDBRANCH  41  42
ENDBRANCH  34  41
ENDBRANCH   1  28
TORSDOF 14
ENDMDL
MODEL 5
REMARK VINA RESULT: -9.271588305      0.842      3.010
REMARK  14 active torsions:
REMARK  status: ('A' for Active; 'I' for Inactive)
REMARK    1  A    between atoms: C2_2  and  C3_3 
REMARK    2  A    between atoms: C3_3  and  C4_4 
REMARK    3  A    between atoms: C4_4  and  N1_5 
REMARK       I    between atoms: N1_5  and  C5_6 
REMARK    4  A    between atoms: N1_5  and  C20_28 
REMARK    5  A    between atoms: C5_6  and  C6_8 
REMARK    6  A    between atoms: C9_11  and  C10_12 
REMARK    7  A    between atoms: C10_12  and  O2_13 
REMARK    8  A    between atoms: C10_12  and  N2_15 
REMARK    9  A    between atoms: N2_15  and  C12_17 
REMARK   10  A    between atoms: N5_31  and  C22_32 
REMARK   11  A    between atoms: C22_32  and  C23_33 
REMARK   12  A    between atoms: C23_33  and  C24_34 
REMARK   13  A    between atoms: N6_38  and  C27_39 
REMARK   14  A    between atoms: C27_39  and  C28_40 
ROOT
HETATM    1  N1  UNL     1      14.662  21.394  16.755  1.00  0.00    -0.306 N 
HETATM    2  C5  UNL     1      14.881  22.768  16.437  1.00  0.00     0.264 C 
HETATM    3  O1  UNL     1      13.960  23.390  15.859  1.00  0.00    -0.267 OA
ENDROOT
BRANCH   2   4
HETATM    4  C6  UNL     1      16.093  23.516  16.739  1.00  0.00     0.100 A 
HETATM    5  C7  UNL     1      17.273  23.349  16.057  1.00  0.00     0.025 A 
HETATM    6  C8  UNL     1      18.403  24.059  16.343  1.00  0.00     0.035 A 
HETATM    7  C9  UNL     1      18.416  25.025  17.381  1.00  0.00     0.086 A 
HETATM    8  N3  UNL     1      17.253  25.175  18.034  1.00  0.00    -0.319 N 
HETATM    9  C19 UNL     1      16.123  24.460  17.741  1.00  0.00     0.261 A 
ATOM     10  H3  UNL     1      17.208  25.859  18.788  1.00  0.00     0.169 HD
HETATM   11  O3  UNL     1      15.108  24.723  18.448  1.00  0.00    -0.267 OA
BRANCH   7  12
HETATM   12  C10 UNL     1      19.656  25.672  17.661  1.00  0.00     0.165 C 
BRANCH  12  13
HETATM   13  O2  UNL     1      20.609  24.870  18.068  1.00  0.00    -0.344 OA
ATOM     14  H2  UNL     1      20.544  23.980  17.743  1.00  0.00     0.219 HD
ENDBRANCH  12  13
BRANCH  12  15
HETATM   15  N2  UNL     1      20.093  27.010  17.600  1.00  0.00    -0.359 N 
HETATM   16  C11 UNL     1      20.463  27.792  18.761  1.00  0.00     0.152 C 
BRANCH  15  17
HETATM   17  C12 UNL     1      20.147  27.657  16.282  1.00  0.00     0.090 C 
HETATM   18  C13 UNL     1      21.250  28.616  16.111  1.00  0.00     0.030 C 
HETATM   19  C14 UNL     1      21.795  28.335  14.705  1.00  0.00    -0.012 C 
HETATM   20  C15 UNL     1      20.677  28.541  13.744  1.00  0.00     0.005 C 
HETATM   21  C18 UNL     1      21.824  26.800  14.809  1.00  0.00     0.011 C 
HETATM   22  C16 UNL     1      19.789  27.306  13.919  1.00  0.00     0.007 C 
HETATM   23  C17 UNL     1      20.383  26.628  15.179  1.00  0.00     0.009 C 
ENDBRANCH  15  17
ENDBRANCH  12  15
ENDBRANCH   7  12
ENDBRANCH   2   4
BRANCH   1  24
HETATM   24  C4  UNL     1      15.684  20.699  17.437  1.00  0.00     0.133 C 
BRANCH  24  25
HETATM   25  C3  UNL     1      15.881  20.891  18.897  1.00  0.00     0.020 C 
BRANCH  25  26
HETATM   26  C2  UNL     1      17.336  21.359  19.064  1.00  0.00    -0.003 C 
HETATM   27  C1  UNL     1      17.501  22.156  20.325  1.00  0.00     0.005 C 
ENDBRANCH  25  26
ENDBRANCH  24  25
ENDBRANCH   1  24
BRANCH   1  28
HETATM   28  C20 UNL     1      13.395  20.860  16.404  1.00  0.00     0.148 A 
HETATM   29  C21 UNL     1      13.170  20.636  15.034  1.00  0.00     0.155 A 
HETATM   30  N4  UNL     1      14.174  20.911  14.075  1.00  0.00    -0.080 NA
HETATM   31  N5  UNL     1      12.004  20.149  14.571  1.00  0.00    -0.285 N 
HETATM   32  C26 UNL     1      11.008  19.859  15.418  1.00  0.00     0.333 A 
HETATM   33  O4  UNL     1       9.922  19.401  14.929  1.00  0.00    -0.246 OA
HETATM   34  N6  UNL     1      11.174  20.054  16.727  1.00  0.00    -0.264 N 
HETATM   35  C30 UNL     1      12.353  20.548  17.216  1.00  0.00     0.282 A 
HETATM   36  O5  UNL     1      12.491  20.721  18.458  1.00  0.00    -0.265 OA
BRANCH  31  37
HETATM   37  C22 UNL     1      11.814  19.918  13.135  1.00  0.00     0.135 C 
BRANCH  37  38
HETATM   38  C23 UNL     1      12.012  18.435  12.886  1.00  0.00     0.020 C 
BRANCH  38  39
HETATM   39  C24 UNL     1      10.956  17.846  11.983  1.00  0.00    -0.003 C 
HETATM   40  C25 UNL     1      10.258  18.939  11.184  1.00  0.00     0.005 C 
ENDBRANCH  38  39
ENDBRANCH  37  38
ENDBRANCH  31  37
BRANCH  34  41
HETATM   41  C27 UNL     1      10.118  19.751  17.637  1.00  0.00     0.137 C 
BRANCH  41  42
HETATM   42  C28 UNL     1      10.009  18.304  18.033  1.00  0.00     0.016 C 
HETATM   43  C29 UNL     1      10.414  18.222  19.510  1.00  0.00     0.006 C 
ENDBRANCH  41  42
ENDBRANCH  34  41
ENDBRANCH   1  28
TORSDOF 14
ENDMDL
