MODEL 1
REMARK VINA RESULT: -9.146558375      0.000      0.000
REMARK  21 active torsions:
REMARK  status: ('A' for Active; 'I' for Inactive)
REMARK    1  A    between atoms: N1_2  and  C2_5 
REMARK    2  A    between atoms: C2_5  and  C3_6 
REMARK    3  A    between atoms: C4_8  and  O2_9 
REMARK    4  A    between atoms: O2_9  and  C5_10 
REMARK    5  A    between atoms: C6_11  and  O3_12 
REMARK    6  A    between atoms: C7_14  and  C8_15 
REMARK    7  A    between atoms: C8_15  and  O4_16 
REMARK    8  A    between atoms: C9_19  and  O6_20 
REMARK    9  A    between atoms: O6_20  and  C10_21 
REMARK   10  A    between atoms: C11_23  and  O8_24 
REMARK   11  A    between atoms: O8_24  and  C12_25 
REMARK   12  A    between atoms: C13_27  and  C14_28 
REMARK   13  A    between atoms: C14_28  and  O10_29 
REMARK   14  A    between atoms: C15_31  and  O11_32 
REMARK   15  A    between atoms: C16_34  and  N2_35 
REMARK   16  A    between atoms: C17_39  and  O12_40 
REMARK   17  A    between atoms: C18_42  and  N3_43 
REMARK   18  A    between atoms: C20_48  and  N4_49 
REMARK   19  A    between atoms: C21_53  and  O13_54 
REMARK   20  A    between atoms: C22_56  and  O14_57 
REMARK   21  A    between atoms: C24_60  and  C25_61 
ROOT
HETATM    1  C10 UNL     1      10.489   1.147   1.807  1.00  0.00     0.296 C 
HETATM    2  O7  UNL     1      10.806  -0.185   2.097  1.00  0.00    -0.327 OA
HETATM    3  C11 UNL     1       9.999  -0.647   3.114  1.00  0.00     0.296 C 
HETATM    4  C18 UNL     1      10.253   0.055   4.430  1.00  0.00     0.240 C 
HETATM    5  C19 UNL     1      10.161   1.542   4.192  1.00  0.00     0.075 C 
HETATM    6  C20 UNL     1      10.996   1.962   3.002  1.00  0.00     0.240 C 
ENDROOT
BRANCH   1   7
HETATM    7  O6  UNL     1      11.054   1.583   0.635  1.00  0.00    -0.327 OA
BRANCH   7   8
HETATM    8  C9  UNL     1      10.220   2.479  -0.070  1.00  0.00     0.294 C 
HETATM    9  O5  UNL     1       9.235   1.736  -0.654  1.00  0.00    -0.348 OA
HETATM   10  C7  UNL     1       8.454   2.380  -1.566  1.00  0.00     0.179 C 
HETATM   11  C6  UNL     1       8.917   3.737  -1.969  1.00  0.00     0.181 C 
HETATM   12  C5  UNL     1      10.397   3.737  -2.239  1.00  0.00     0.189 C 
HETATM   13  C21 UNL     1      11.114   3.202  -1.047  1.00  0.00     0.205 C 
BRANCH  10  14
HETATM   14  C8  UNL     1       8.265   1.473  -2.762  1.00  0.00     0.198 C 
BRANCH  14  15
HETATM   15  O4  UNL     1       9.244   0.517  -2.885  1.00  0.00    -0.398 OA
ATOM     16  H4  UNL     1       9.227   0.062  -3.718  1.00  0.00     0.209 HD
ENDBRANCH  14  15
ENDBRANCH  10  14
BRANCH  11  17
HETATM   17  O3  UNL     1       8.606   4.701  -1.018  1.00  0.00    -0.390 OA
ATOM     18  H3  UNL     1       7.709   4.592  -0.725  1.00  0.00     0.210 HD
ENDBRANCH  11  17
BRANCH  12  19
HETATM   19  O2  UNL     1      10.711   3.057  -3.414  1.00  0.00    -0.348 OA
BRANCH  19  20
HETATM   20  C4  UNL     1      10.325   3.759  -4.554  1.00  0.00     0.289 C 
HETATM   21  O1  UNL     1      10.879   5.022  -4.499  1.00  0.00    -0.351 OA
HETATM   22  C3  UNL     1      11.119   5.581  -5.731  1.00  0.00     0.157 C 
HETATM   23  C24 UNL     1      12.234   4.859  -6.479  1.00  0.00     0.048 C 
HETATM   24  C23 UNL     1      12.111   3.366  -6.264  1.00  0.00     0.046 C 
HETATM   25  C22 UNL     1      10.721   2.991  -5.796  1.00  0.00     0.173 C 
BRANCH  22  26
HETATM   26  C2  UNL     1      11.647   7.000  -5.481  1.00  0.00     0.264 C 
BRANCH  26  27
HETATM   27  N1  UNL     1      11.915   7.205  -4.073  1.00  0.00    -0.077 N 
HETATM   28  C1  UNL     1      12.782   8.350  -3.955  1.00  0.00     0.267 C 
ATOM     29  H12 UNL     1      12.291   6.374  -3.616  1.00  0.00     0.276 HD
ATOM     30  H11 UNL     1      11.065   7.291  -3.515  1.00  0.00     0.276 HD
ENDBRANCH  26  27
ENDBRANCH  22  26
BRANCH  23  31
HETATM   31  C25 UNL     1      12.213   5.205  -7.946  1.00  0.00     0.229 C 
HETATM   32  F1  UNL     1      13.514   5.465  -8.328  1.00  0.00    -0.255 F 
ENDBRANCH  23  31
BRANCH  25  33
HETATM   33  O14 UNL     1       9.793   3.149  -6.822  1.00  0.00    -0.391 OA
ATOM     34  H14 UNL     1      10.210   3.188  -7.674  1.00  0.00     0.210 HD
ENDBRANCH  25  33
ENDBRANCH  19  20
ENDBRANCH  12  19
BRANCH  13  35
HETATM   35  O13 UNL     1      12.184   2.381  -1.381  1.00  0.00    -0.388 OA
ATOM     36  H13 UNL     1      12.711   2.135  -0.630  1.00  0.00     0.210 HD
ENDBRANCH  13  35
ENDBRANCH   7   8
ENDBRANCH   1   7
BRANCH   6  37
HETATM   37  N4  UNL     1      12.379   1.614   3.298  1.00  0.00    -0.070 N 
ATOM     38  H43 UNL     1      12.628   0.696   2.929  1.00  0.00     0.274 HD
ATOM     39  H42 UNL     1      13.037   2.176   2.759  1.00  0.00     0.274 HD
ATOM     40  H41 UNL     1      12.552   1.682   4.301  1.00  0.00     0.274 HD
ENDBRANCH   6  37
BRANCH   3  41
HETATM   41  O8  UNL     1      10.130  -2.025   3.243  1.00  0.00    -0.327 OA
BRANCH  41  42
HETATM   42  C12 UNL     1      11.198  -2.524   2.520  1.00  0.00     0.294 C 
HETATM   43  O9  UNL     1      10.677  -3.453   1.598  1.00  0.00    -0.348 OA
HETATM   44  C13 UNL     1      11.657  -3.650   0.631  1.00  0.00     0.179 C 
HETATM   45  C15 UNL     1      12.927  -4.175   1.219  1.00  0.00     0.182 C 
HETATM   46  C16 UNL     1      12.680  -4.490   2.688  1.00  0.00     0.247 C 
HETATM   47  C17 UNL     1      12.234  -3.205   3.369  1.00  0.00     0.206 C 
BRANCH  44  48
HETATM   48  C14 UNL     1      11.114  -4.550  -0.460  1.00  0.00     0.198 C 
BRANCH  48  49
HETATM   49  O10 UNL     1      11.656  -4.228  -1.681  1.00  0.00    -0.398 OA
ATOM     50  H10 UNL     1      11.476  -3.323  -1.906  1.00  0.00     0.209 HD
ENDBRANCH  48  49
ENDBRANCH  44  48
BRANCH  45  51
HETATM   51  O11 UNL     1      13.965  -3.242   1.083  1.00  0.00    -0.391 OA
ATOM     52  H11 UNL     1      13.917  -2.800   0.244  1.00  0.00     0.210 HD
ENDBRANCH  45  51
BRANCH  46  53
HETATM   53  N2  UNL     1      13.941  -4.942   3.233  1.00  0.00    -0.070 N 
ATOM     54  H23 UNL     1      14.605  -5.240   2.518  1.00  0.00     0.274 HD
ATOM     55  H22 UNL     1      14.504  -4.186   3.625  1.00  0.00     0.274 HD
ATOM     56  H21 UNL     1      13.722  -5.673   3.910  1.00  0.00     0.274 HD
ENDBRANCH  46  53
BRANCH  47  57
HETATM   57  O12 UNL     1      13.360  -2.371   3.419  1.00  0.00    -0.388 OA
ATOM     58  H12 UNL     1      14.128  -2.913   3.276  1.00  0.00     0.210 HD
ENDBRANCH  47  57
ENDBRANCH  41  42
ENDBRANCH   3  41
BRANCH   4  59
HETATM   59  N3  UNL     1      11.545  -0.244   4.971  1.00  0.00    -0.070 N 
ATOM     60  H33 UNL     1      12.057  -0.886   4.365  1.00  0.00     0.274 HD
ATOM     61  H32 UNL     1      12.163   0.565   4.912  1.00  0.00     0.274 HD
ATOM     62  H31 UNL     1      11.497  -0.600   5.926  1.00  0.00     0.274 HD
ENDBRANCH   4  59
TORSDOF 21
ENDMDL
MODEL 2
REMARK VINA RESULT: -9.116854486      1.571      2.067
REMARK  21 active torsions:
REMARK  status: ('A' for Active; 'I' for Inactive)
REMARK    1  A    between atoms: N1_2  and  C2_5 
REMARK    2  A    between atoms: C2_5  and  C3_6 
REMARK    3  A    between atoms: C4_8  and  O2_9 
REMARK    4  A    between atoms: O2_9  and  C5_10 
REMARK    5  A    between atoms: C6_11  and  O3_12 
REMARK    6  A    between atoms: C7_14  and  C8_15 
REMARK    7  A    between atoms: C8_15  and  O4_16 
REMARK    8  A    between atoms: C9_19  and  O6_20 
REMARK    9  A    between atoms: O6_20  and  C10_21 
REMARK   10  A    between atoms: C11_23  and  O8_24 
REMARK   11  A    between atoms: O8_24  and  C12_25 
REMARK   12  A    between atoms: C13_27  and  C14_28 
REMARK   13  A    between atoms: C14_28  and  O10_29 
REMARK   14  A    between atoms: C15_31  and  O11_32 
REMARK   15  A    between atoms: C16_34  and  N2_35 
REMARK   16  A    between atoms: C17_39  and  O12_40 
REMARK   17  A    between atoms: C18_42  and  N3_43 
REMARK   18  A    between atoms: C20_48  and  N4_49 
REMARK   19  A    between atoms: C21_53  and  O13_54 
REMARK   20  A    between atoms: C22_56  and  O14_57 
REMARK   21  A    between atoms: C24_60  and  C25_61 
ROOT
HETATM    1  C10 UNL     1      11.902  -0.190   0.752  1.00  0.00     0.296 C 
HETATM    2  O7  UNL     1      12.993  -1.045   0.949  1.00  0.00    -0.327 OA
HETATM    3  C11 UNL     1      12.549  -2.280   1.371  1.00  0.00     0.296 C 
HETATM    4  C18 UNL     1      11.903  -2.236   2.738  1.00  0.00     0.240 C 
HETATM    5  C19 UNL     1      10.837  -1.167   2.718  1.00  0.00     0.075 C 
HETATM    6  C20 UNL     1      11.371   0.131   2.153  1.00  0.00     0.240 C 
ENDROOT
BRANCH   1   7
HETATM    7  O6  UNL     1      12.242   0.955   0.076  1.00  0.00    -0.327 OA
BRANCH   7   8
HETATM    8  C9  UNL     1      11.116   1.726  -0.287  1.00  0.00     0.294 C 
HETATM    9  O5  UNL     1      10.176   0.863  -0.770  1.00  0.00    -0.348 OA
HETATM   10  C7  UNL     1       9.098   1.426  -1.385  1.00  0.00     0.179 C 
HETATM   11  C6  UNL     1       9.196   2.889  -1.646  1.00  0.00     0.181 C 
HETATM   12  C5  UNL     1      10.545   3.241  -2.208  1.00  0.00     0.189 C 
HETATM   13  C21 UNL     1      11.607   2.737  -1.292  1.00  0.00     0.205 C 
BRANCH  10  14
HETATM   14  C8  UNL     1       8.806   0.648  -2.650  1.00  0.00     0.198 C 
BRANCH  14  15
HETATM   15  O4  UNL     1       7.978   1.312  -3.522  1.00  0.00    -0.398 OA
ATOM     16  H4  UNL     1       7.104   1.455  -3.180  1.00  0.00     0.209 HD
ENDBRANCH  14  15
ENDBRANCH  10  14
BRANCH  11  17
HETATM   17  O3  UNL     1       8.943   3.643  -0.507  1.00  0.00    -0.390 OA
ATOM     18  H3  UNL     1       8.223   4.242  -0.665  1.00  0.00     0.210 HD
ENDBRANCH  11  17
BRANCH  12  19
HETATM   19  O2  UNL     1      10.697   2.791  -3.518  1.00  0.00    -0.348 OA
BRANCH  19  20
HETATM   20  C4  UNL     1      10.253   3.722  -4.456  1.00  0.00     0.289 C 
HETATM   21  O1  UNL     1      10.856   4.935  -4.187  1.00  0.00    -0.351 OA
HETATM   22  C3  UNL     1      11.025   5.732  -5.293  1.00  0.00     0.157 C 
HETATM   23  C24 UNL     1      12.054   5.157  -6.261  1.00  0.00     0.048 C 
HETATM   24  C23 UNL     1      11.892   3.655  -6.348  1.00  0.00     0.046 C 
HETATM   25  C22 UNL     1      10.527   3.220  -5.857  1.00  0.00     0.173 C 
BRANCH  22  26
HETATM   26  C2  UNL     1      11.622   7.057  -4.801  1.00  0.00     0.264 C 
BRANCH  26  27
HETATM   27  N1  UNL     1      12.031   6.949  -3.416  1.00  0.00    -0.077 N 
HETATM   28  C1  UNL     1      12.416   8.265  -2.970  1.00  0.00     0.267 C 
ATOM     29  H12 UNL     1      12.761   6.251  -3.271  1.00  0.00     0.276 HD
ATOM     30  H11 UNL     1      11.318   6.522  -2.824  1.00  0.00     0.276 HD
ENDBRANCH  26  27
ENDBRANCH  22  26
BRANCH  23  31
HETATM   31  C25 UNL     1      11.937   5.800  -7.619  1.00  0.00     0.229 C 
HETATM   32  F1  UNL     1      13.068   5.462  -8.336  1.00  0.00    -0.255 F 
ENDBRANCH  23  31
BRANCH  25  33
HETATM   33  O14 UNL     1       9.532   3.607  -6.750  1.00  0.00    -0.391 OA
ATOM     34  H14 UNL     1       9.503   3.042  -7.513  1.00  0.00     0.210 HD
ENDBRANCH  25  33
ENDBRANCH  19  20
ENDBRANCH  12  19
BRANCH  13  35
HETATM   35  O13 UNL     1      12.702   2.212  -1.969  1.00  0.00    -0.388 OA
ATOM     36  H13 UNL     1      13.501   2.702  -1.816  1.00  0.00     0.210 HD
ENDBRANCH  13  35
ENDBRANCH   7   8
ENDBRANCH   1   7
BRANCH   6  37
HETATM   37  N4  UNL     1      12.461   0.565   3.017  1.00  0.00    -0.070 N 
ATOM     38  H43 UNL     1      12.878   1.438   2.695  1.00  0.00     0.274 HD
ATOM     39  H42 UNL     1      12.123   0.886   3.924  1.00  0.00     0.274 HD
ATOM     40  H41 UNL     1      13.154  -0.178   3.110  1.00  0.00     0.274 HD
ENDBRANCH   6  37
BRANCH   3  41
HETATM   41  O8  UNL     1      13.588  -3.203   1.332  1.00  0.00    -0.327 OA
BRANCH  41  42
HETATM   42  C12 UNL     1      13.151  -4.478   1.020  1.00  0.00     0.294 C 
HETATM   43  O9  UNL     1      12.064  -4.338   0.136  1.00  0.00    -0.348 OA
HETATM   44  C13 UNL     1      11.885  -5.574  -0.477  1.00  0.00     0.179 C 
HETATM   45  C15 UNL     1      11.598  -6.655   0.515  1.00  0.00     0.182 C 
HETATM   46  C16 UNL     1      11.424  -6.014   1.885  1.00  0.00     0.247 C 
HETATM   47  C17 UNL     1      12.710  -5.273   2.216  1.00  0.00     0.206 C 
BRANCH  44  48
HETATM   48  C14 UNL     1      10.803  -5.461  -1.532  1.00  0.00     0.198 C 
BRANCH  48  49
HETATM   49  O10 UNL     1      10.716  -6.613  -2.275  1.00  0.00    -0.398 OA
ATOM     50  H10 UNL     1       9.923  -6.624  -2.797  1.00  0.00     0.209 HD
ENDBRANCH  48  49
ENDBRANCH  44  48
BRANCH  45  51
HETATM   51  O11 UNL     1      12.635  -7.599   0.540  1.00  0.00    -0.391 OA
ATOM     52  H11 UNL     1      12.420  -8.324   1.114  1.00  0.00     0.210 HD
ENDBRANCH  45  51
BRANCH  46  53
HETATM   53  N2  UNL     1      11.204  -7.093   2.822  1.00  0.00    -0.070 N 
ATOM     54  H23 UNL     1      10.509  -6.871   3.535  1.00  0.00     0.274 HD
ATOM     55  H22 UNL     1      10.717  -7.890   2.411  1.00  0.00     0.274 HD
ATOM     56  H21 UNL     1      12.116  -7.335   3.210  1.00  0.00     0.274 HD
ENDBRANCH  46  53
BRANCH  47  57
HETATM   57  O12 UNL     1      13.683  -6.254   2.457  1.00  0.00    -0.388 OA
ATOM     58  H12 UNL     1      14.520  -5.908   2.169  1.00  0.00     0.210 HD
ENDBRANCH  47  57
ENDBRANCH  41  42
ENDBRANCH   3  41
BRANCH   4  59
HETATM   59  N3  UNL     1      12.840  -1.930   3.778  1.00  0.00    -0.070 N 
ATOM     60  H33 UNL     1      12.970  -2.727   4.401  1.00  0.00     0.274 HD
ATOM     61  H32 UNL     1      13.787  -1.855   3.408  1.00  0.00     0.274 HD
ATOM     62  H31 UNL     1      12.583  -1.093   4.301  1.00  0.00     0.274 HD
ENDBRANCH   4  59
TORSDOF 21
ENDMDL
MODEL 3
REMARK VINA RESULT: -9.115469427      1.509      1.980
REMARK  21 active torsions:
REMARK  status: ('A' for Active; 'I' for Inactive)
REMARK    1  A    between atoms: N1_2  and  C2_5 
REMARK    2  A    between atoms: C2_5  and  C3_6 
REMARK    3  A    between atoms: C4_8  and  O2_9 
REMARK    4  A    between atoms: O2_9  and  C5_10 
REMARK    5  A    between atoms: C6_11  and  O3_12 
REMARK    6  A    between atoms: C7_14  and  C8_15 
REMARK    7  A    between atoms: C8_15  and  O4_16 
REMARK    8  A    between atoms: C9_19  and  O6_20 
REMARK    9  A    between atoms: O6_20  and  C10_21 
REMARK   10  A    between atoms: C11_23  and  O8_24 
REMARK   11  A    between atoms: O8_24  and  C12_25 
REMARK   12  A    between atoms: C13_27  and  C14_28 
REMARK   13  A    between atoms: C14_28  and  O10_29 
REMARK   14  A    between atoms: C15_31  and  O11_32 
REMARK   15  A    between atoms: C16_34  and  N2_35 
REMARK   16  A    between atoms: C17_39  and  O12_40 
REMARK   17  A    between atoms: C18_42  and  N3_43 
REMARK   18  A    between atoms: C20_48  and  N4_49 
REMARK   19  A    between atoms: C21_53  and  O13_54 
REMARK   20  A    between atoms: C22_56  and  O14_57 
REMARK   21  A    between atoms: C24_60  and  C25_61 
ROOT
HETATM    1  C10 UNL     1      10.814   1.054   1.840  1.00  0.00     0.296 C 
HETATM    2  O7  UNL     1      11.037  -0.302   2.108  1.00  0.00    -0.327 OA
HETATM    3  C11 UNL     1      10.125  -0.751   3.040  1.00  0.00     0.296 C 
HETATM    4  C18 UNL     1      10.304  -0.104   4.395  1.00  0.00     0.240 C 
HETATM    5  C19 UNL     1      10.308   1.393   4.203  1.00  0.00     0.075 C 
HETATM    6  C20 UNL     1      11.261   1.803   3.100  1.00  0.00     0.240 C 
ENDROOT
BRANCH   1   7
HETATM    7  O6  UNL     1      11.497   1.494   0.734  1.00  0.00    -0.327 OA
BRANCH   7   8
HETATM    8  C9  UNL     1      10.702   2.302  -0.109  1.00  0.00     0.294 C 
HETATM    9  O5  UNL     1       9.544   1.620  -0.345  1.00  0.00    -0.348 OA
HETATM   10  C7  UNL     1       8.734   2.125  -1.318  1.00  0.00     0.179 C 
HETATM   11  C6  UNL     1       9.320   3.217  -2.143  1.00  0.00     0.181 C 
HETATM   12  C5  UNL     1      10.726   2.879  -2.554  1.00  0.00     0.189 C 
HETATM   13  C21 UNL     1      11.532   2.564  -1.341  1.00  0.00     0.205 C 
BRANCH  10  14
HETATM   14  C8  UNL     1       8.239   0.979  -2.173  1.00  0.00     0.198 C 
BRANCH  14  15
HETATM   15  O4  UNL     1       7.848   1.364  -3.432  1.00  0.00    -0.398 OA
ATOM     16  H4  UNL     1       8.554   1.725  -3.954  1.00  0.00     0.209 HD
ENDBRANCH  14  15
ENDBRANCH  10  14
BRANCH  11  17
HETATM   17  O3  UNL     1       9.297   4.441  -1.485  1.00  0.00    -0.390 OA
ATOM     18  H3  UNL     1       8.716   5.042  -1.936  1.00  0.00     0.210 HD
ENDBRANCH  11  17
BRANCH  12  19
HETATM   19  O2  UNL     1      10.759   1.864  -3.509  1.00  0.00    -0.348 OA
BRANCH  19  20
HETATM   20  C4  UNL     1      10.725   2.357  -4.812  1.00  0.00     0.289 C 
HETATM   21  O1  UNL     1       9.455   2.834  -5.066  1.00  0.00    -0.351 OA
HETATM   22  C3  UNL     1       9.415   3.852  -5.988  1.00  0.00     0.157 C 
HETATM   23  C24 UNL     1      10.054   5.130  -5.456  1.00  0.00     0.048 C 
HETATM   24  C23 UNL     1      11.296   4.790  -4.662  1.00  0.00     0.046 C 
HETATM   25  C22 UNL     1      11.802   3.403  -5.000  1.00  0.00     0.173 C 
BRANCH  22  26
HETATM   26  C2  UNL     1       7.936   4.195  -6.208  1.00  0.00     0.264 C 
BRANCH  26  27
HETATM   27  N1  UNL     1       7.156   3.876  -5.030  1.00  0.00    -0.077 N 
HETATM   28  C1  UNL     1       6.237   4.964  -4.806  1.00  0.00     0.267 C 
ATOM     29  H12 UNL     1       7.735   3.670  -4.215  1.00  0.00     0.276 HD
ATOM     30  H11 UNL     1       6.691   2.970  -5.096  1.00  0.00     0.276 HD
ENDBRANCH  26  27
ENDBRANCH  22  26
BRANCH  23  31
HETATM   31  C25 UNL     1      10.366   6.085  -6.579  1.00  0.00     0.229 C 
HETATM   32  F1  UNL     1      11.653   6.548  -6.382  1.00  0.00    -0.255 F 
ENDBRANCH  23  31
BRANCH  25  33
HETATM   33  O14 UNL     1      12.338   3.371  -6.284  1.00  0.00    -0.391 OA
ATOM     34  H14 UNL     1      13.277   3.515  -6.279  1.00  0.00     0.210 HD
ENDBRANCH  25  33
ENDBRANCH  19  20
ENDBRANCH  12  19
BRANCH  13  35
HETATM   35  O13 UNL     1      12.411   1.504  -1.533  1.00  0.00    -0.388 OA
ATOM     36  H13 UNL     1      12.720   1.127  -0.718  1.00  0.00     0.210 HD
ENDBRANCH  13  35
ENDBRANCH   7   8
ENDBRANCH   1   7
BRANCH   6  37
HETATM   37  N4  UNL     1      12.594   1.371   3.496  1.00  0.00    -0.070 N 
ATOM     38  H43 UNL     1      12.662   1.218   4.502  1.00  0.00     0.274 HD
ATOM     39  H42 UNL     1      12.795   0.421   3.186  1.00  0.00     0.274 HD
ATOM     40  H41 UNL     1      13.293   2.036   3.163  1.00  0.00     0.274 HD
ENDBRANCH   6  37
BRANCH   3  41
HETATM   41  O8  UNL     1      10.173  -2.137   3.130  1.00  0.00    -0.327 OA
BRANCH  41  42
HETATM   42  C12 UNL     1      11.221  -2.677   2.407  1.00  0.00     0.294 C 
HETATM   43  O9  UNL     1      10.661  -3.557   1.461  1.00  0.00    -0.348 OA
HETATM   44  C13 UNL     1      11.640  -3.786   0.500  1.00  0.00     0.179 C 
HETATM   45  C15 UNL     1      12.873  -4.391   1.089  1.00  0.00     0.182 C 
HETATM   46  C16 UNL     1      12.594  -4.723   2.549  1.00  0.00     0.247 C 
HETATM   47  C17 UNL     1      12.209  -3.431   3.252  1.00  0.00     0.206 C 
BRANCH  44  48
HETATM   48  C14 UNL     1      11.062  -4.633  -0.616  1.00  0.00     0.198 C 
BRANCH  48  49
HETATM   49  O10 UNL     1      11.496  -4.195  -1.844  1.00  0.00    -0.398 OA
ATOM     50  H10 UNL     1      10.872  -3.593  -2.231  1.00  0.00     0.209 HD
ENDBRANCH  48  49
ENDBRANCH  44  48
BRANCH  45  51
HETATM   51  O11 UNL     1      13.962  -3.513   0.983  1.00  0.00    -0.391 OA
ATOM     52  H11 UNL     1      14.592  -3.668   1.676  1.00  0.00     0.210 HD
ENDBRANCH  45  51
BRANCH  46  53
HETATM   53  N2  UNL     1      13.823  -5.253   3.096  1.00  0.00    -0.070 N 
ATOM     54  H23 UNL     1      13.687  -6.107   3.638  1.00  0.00     0.274 HD
ATOM     55  H22 UNL     1      14.442  -5.648   2.388  1.00  0.00     0.274 HD
ATOM     56  H21 UNL     1      14.253  -4.499   3.632  1.00  0.00     0.274 HD
ENDBRANCH  46  53
BRANCH  47  57
HETATM   57  O12 UNL     1      13.378  -2.659   3.331  1.00  0.00    -0.388 OA
ATOM     58  H12 UNL     1      13.446  -2.155   2.528  1.00  0.00     0.210 HD
ENDBRANCH  47  57
ENDBRANCH  41  42
ENDBRANCH   3  41
BRANCH   4  59
HETATM   59  N3  UNL     1      11.529  -0.489   5.029  1.00  0.00    -0.070 N 
ATOM     60  H33 UNL     1      11.848   0.231   5.679  1.00  0.00     0.274 HD
ATOM     61  H32 UNL     1      11.377  -1.250   5.690  1.00  0.00     0.274 HD
ATOM     62  H31 UNL     1      12.259  -0.726   4.357  1.00  0.00     0.274 HD
ENDBRANCH   4  59
TORSDOF 21
ENDMDL
MODEL 4
REMARK VINA RESULT: -8.953738749      2.741      4.152
REMARK  21 active torsions:
REMARK  status: ('A' for Active; 'I' for Inactive)
REMARK    1  A    between atoms: N1_2  and  C2_5 
REMARK    2  A    between atoms: C2_5  and  C3_6 
REMARK    3  A    between atoms: C4_8  and  O2_9 
REMARK    4  A    between atoms: O2_9  and  C5_10 
REMARK    5  A    between atoms: C6_11  and  O3_12 
REMARK    6  A    between atoms: C7_14  and  C8_15 
REMARK    7  A    between atoms: C8_15  and  O4_16 
REMARK    8  A    between atoms: C9_19  and  O6_20 
REMARK    9  A    between atoms: O6_20  and  C10_21 
REMARK   10  A    between atoms: C11_23  and  O8_24 
REMARK   11  A    between atoms: O8_24  and  C12_25 
REMARK   12  A    between atoms: C13_27  and  C14_28 
REMARK   13  A    between atoms: C14_28  and  O10_29 
REMARK   14  A    between atoms: C15_31  and  O11_32 
REMARK   15  A    between atoms: C16_34  and  N2_35 
REMARK   16  A    between atoms: C17_39  and  O12_40 
REMARK   17  A    between atoms: C18_42  and  N3_43 
REMARK   18  A    between atoms: C20_48  and  N4_49 
REMARK   19  A    between atoms: C21_53  and  O13_54 
REMARK   20  A    between atoms: C22_56  and  O14_57 
REMARK   21  A    between atoms: C24_60  and  C25_61 
ROOT
HETATM    1  C10 UNL     1      11.637  -1.128   3.374  1.00  0.00     0.296 C 
HETATM    2  O7  UNL     1      12.511  -1.518   2.352  1.00  0.00    -0.327 OA
HETATM    3  C11 UNL     1      12.861  -2.841   2.516  1.00  0.00     0.296 C 
HETATM    4  C18 UNL     1      13.676  -3.083   3.767  1.00  0.00     0.240 C 
HETATM    5  C19 UNL     1      12.925  -2.490   4.935  1.00  0.00     0.075 C 
HETATM    6  C20 UNL     1      12.489  -1.070   4.646  1.00  0.00     0.240 C 
ENDROOT
BRANCH   1   7
HETATM    7  O6  UNL     1      11.037   0.080   3.125  1.00  0.00    -0.327 OA
BRANCH   7   8
HETATM    8  C9  UNL     1      11.571   0.730   1.990  1.00  0.00     0.294 C 
HETATM    9  O5  UNL     1      11.737   2.044   2.320  1.00  0.00    -0.348 OA
HETATM   10  C7  UNL     1      12.031   2.891   1.294  1.00  0.00     0.179 C 
HETATM   11  C6  UNL     1      11.911   2.314  -0.074  1.00  0.00     0.181 C 
HETATM   12  C5  UNL     1      10.643   1.518  -0.207  1.00  0.00     0.189 C 
HETATM   13  C21 UNL     1      10.591   0.489   0.870  1.00  0.00     0.205 C 
BRANCH  10  14
HETATM   14  C8  UNL     1      11.195   4.143   1.450  1.00  0.00     0.198 C 
BRANCH  14  15
HETATM   15  O4  UNL     1      10.207   4.027   2.397  1.00  0.00    -0.398 OA
ATOM     16  H4  UNL     1      10.064   3.135   2.689  1.00  0.00     0.209 HD
ENDBRANCH  14  15
ENDBRANCH  10  14
BRANCH  11  17
HETATM   17  O3  UNL     1      13.006   1.526  -0.408  1.00  0.00    -0.390 OA
ATOM     18  H3  UNL     1      13.094   1.474  -1.352  1.00  0.00     0.210 HD
ENDBRANCH  11  17
BRANCH  12  19
HETATM   19  O2  UNL     1       9.515   2.336  -0.233  1.00  0.00    -0.348 OA
BRANCH  19  20
HETATM   20  C4  UNL     1       8.707   2.094  -1.342  1.00  0.00     0.289 C 
HETATM   21  O1  UNL     1       8.206   3.300  -1.791  1.00  0.00    -0.351 OA
HETATM   22  C3  UNL     1       7.938   3.327  -3.138  1.00  0.00     0.157 C 
HETATM   23  C24 UNL     1       9.211   3.264  -3.976  1.00  0.00     0.048 C 
HETATM   24  C23 UNL     1      10.186   2.291  -3.352  1.00  0.00     0.046 C 
HETATM   25  C22 UNL     1       9.486   1.344  -2.400  1.00  0.00     0.173 C 
BRANCH  22  26
HETATM   26  C2  UNL     1       7.316   4.696  -3.441  1.00  0.00     0.264 C 
BRANCH  26  27
HETATM   27  N1  UNL     1       5.989   4.542  -4.001  1.00  0.00    -0.077 N 
HETATM   28  C1  UNL     1       5.983   5.183  -5.293  1.00  0.00     0.267 C 
ATOM     29  H12 UNL     1       5.255   4.888  -3.383  1.00  0.00     0.276 HD
ATOM     30  H11 UNL     1       5.685   3.569  -4.039  1.00  0.00     0.276 HD
ENDBRANCH  26  27
ENDBRANCH  22  26
BRANCH  23  31
HETATM   31  C25 UNL     1       8.900   2.890  -5.402  1.00  0.00     0.229 C 
HETATM   32  F1  UNL     1       9.391   3.897  -6.210  1.00  0.00    -0.255 F 
ENDBRANCH  23  31
BRANCH  25  33
HETATM   33  O14 UNL     1       8.683   0.445  -3.096  1.00  0.00    -0.391 OA
ATOM     34  H14 UNL     1       9.195  -0.120  -3.664  1.00  0.00     0.210 HD
ENDBRANCH  25  33
ENDBRANCH  19  20
ENDBRANCH  12  19
BRANCH  13  35
HETATM   35  O13 UNL     1       9.318   0.326   1.404  1.00  0.00    -0.388 OA
ATOM     36  H13 UNL     1       8.643   0.750   0.887  1.00  0.00     0.210 HD
ENDBRANCH  13  35
ENDBRANCH   7   8
ENDBRANCH   1   7
BRANCH   6  37
HETATM   37  N4  UNL     1      13.694  -0.286   4.410  1.00  0.00    -0.070 N 
ATOM     38  H43 UNL     1      13.716   0.105   3.468  1.00  0.00     0.274 HD
ATOM     39  H42 UNL     1      13.688   0.588   4.935  1.00  0.00     0.274 HD
ATOM     40  H41 UNL     1      14.524  -0.846   4.610  1.00  0.00     0.274 HD
ENDBRANCH   6  37
BRANCH   3  41
HETATM   41  O8  UNL     1      13.522  -3.306   1.384  1.00  0.00    -0.327 OA
BRANCH  41  42
HETATM   42  C12 UNL     1      13.119  -4.580   1.024  1.00  0.00     0.294 C 
HETATM   43  O9  UNL     1      12.083  -4.435   0.081  1.00  0.00    -0.348 OA
HETATM   44  C13 UNL     1      11.956  -5.661  -0.564  1.00  0.00     0.179 C 
HETATM   45  C15 UNL     1      11.626  -6.764   0.389  1.00  0.00     0.182 C 
HETATM   46  C16 UNL     1      11.365  -6.152   1.759  1.00  0.00     0.247 C 
HETATM   47  C17 UNL     1      12.620  -5.402   2.177  1.00  0.00     0.206 C 
BRANCH  44  48
HETATM   48  C14 UNL     1      10.935  -5.540  -1.678  1.00  0.00     0.198 C 
BRANCH  48  49
HETATM   49  O10 UNL     1      11.020  -6.604  -2.543  1.00  0.00    -0.398 OA
ATOM     50  H10 UNL     1      10.255  -6.650  -3.104  1.00  0.00     0.209 HD
ENDBRANCH  48  49
ENDBRANCH  44  48
BRANCH  45  51
HETATM   51  O11 UNL     1      12.671  -7.697   0.457  1.00  0.00    -0.391 OA
ATOM     52  H11 UNL     1      12.407  -8.530   0.085  1.00  0.00     0.210 HD
ENDBRANCH  45  51
BRANCH  46  53
HETATM   53  N2  UNL     1      11.104  -7.251   2.661  1.00  0.00    -0.070 N 
ATOM     54  H23 UNL     1      10.368  -7.877   2.332  1.00  0.00     0.274 HD
ATOM     55  H22 UNL     1      11.857  -7.939   2.686  1.00  0.00     0.274 HD
ATOM     56  H21 UNL     1      10.905  -6.840   3.574  1.00  0.00     0.274 HD
ENDBRANCH  46  53
BRANCH  47  57
HETATM   57  O12 UNL     1      13.589  -6.378   2.456  1.00  0.00    -0.388 OA
ATOM     58  H12 UNL     1      14.225  -6.363   1.750  1.00  0.00     0.210 HD
ENDBRANCH  47  57
ENDBRANCH  41  42
ENDBRANCH   3  41
BRANCH   4  59
HETATM   59  N3  UNL     1      14.973  -2.479   3.702  1.00  0.00    -0.070 N 
ATOM     60  H33 UNL     1      15.574  -2.971   3.040  1.00  0.00     0.274 HD
ATOM     61  H32 UNL     1      14.932  -1.570   3.241  1.00  0.00     0.274 HD
ATOM     62  H31 UNL     1      15.417  -2.406   4.617  1.00  0.00     0.274 HD
ENDBRANCH   4  59
TORSDOF 21
ENDMDL
MODEL 5
REMARK VINA RESULT: -8.947912367      2.559      3.497
REMARK  21 active torsions:
REMARK  status: ('A' for Active; 'I' for Inactive)
REMARK    1  A    between atoms: N1_2  and  C2_5 
REMARK    2  A    between atoms: C2_5  and  C3_6 
REMARK    3  A    between atoms: C4_8  and  O2_9 
REMARK    4  A    between atoms: O2_9  and  C5_10 
REMARK    5  A    between atoms: C6_11  and  O3_12 
REMARK    6  A    between atoms: C7_14  and  C8_15 
REMARK    7  A    between atoms: C8_15  and  O4_16 
REMARK    8  A    between atoms: C9_19  and  O6_20 
REMARK    9  A    between atoms: O6_20  and  C10_21 
REMARK   10  A    between atoms: C11_23  and  O8_24 
REMARK   11  A    between atoms: O8_24  and  C12_25 
REMARK   12  A    between atoms: C13_27  and  C14_28 
REMARK   13  A    between atoms: C14_28  and  O10_29 
REMARK   14  A    between atoms: C15_31  and  O11_32 
REMARK   15  A    between atoms: C16_34  and  N2_35 
REMARK   16  A    between atoms: C17_39  and  O12_40 
REMARK   17  A    between atoms: C18_42  and  N3_43 
REMARK   18  A    between atoms: C20_48  and  N4_49 
REMARK   19  A    between atoms: C21_53  and  O13_54 
REMARK   20  A    between atoms: C22_56  and  O14_57 
REMARK   21  A    between atoms: C24_60  and  C25_61 
ROOT
HETATM    1  C10 UNL     1      10.514   1.276   1.777  1.00  0.00     0.296 C 
HETATM    2  O7  UNL     1      10.779  -0.067   2.067  1.00  0.00    -0.327 OA
HETATM    3  C11 UNL     1       9.897  -0.523   3.024  1.00  0.00     0.296 C 
HETATM    4  C18 UNL     1      10.082   0.154   4.363  1.00  0.00     0.240 C 
HETATM    5  C19 UNL     1      10.041   1.647   4.142  1.00  0.00     0.075 C 
HETATM    6  C20 UNL     1      10.961   2.062   3.014  1.00  0.00     0.240 C 
ENDROOT
BRANCH   1   7
HETATM    7  O6  UNL     1      11.163   1.714   0.651  1.00  0.00    -0.327 OA
BRANCH   7   8
HETATM    8  C9  UNL     1      10.278   2.223  -0.324  1.00  0.00     0.294 C 
HETATM    9  O5  UNL     1      10.595   1.624  -1.508  1.00  0.00    -0.348 OA
HETATM   10  C7  UNL     1      10.008   2.142  -2.624  1.00  0.00     0.179 C 
HETATM   11  C6  UNL     1       9.279   3.426  -2.432  1.00  0.00     0.181 C 
HETATM   12  C5  UNL     1      10.089   4.380  -1.599  1.00  0.00     0.189 C 
HETATM   13  C21 UNL     1      10.462   3.720  -0.316  1.00  0.00     0.205 C 
BRANCH  10  14
HETATM   14  C8  UNL     1      11.054   2.247  -3.712  1.00  0.00     0.198 C 
BRANCH  14  15
HETATM   15  O4  UNL     1      12.343   2.222  -3.238  1.00  0.00    -0.398 OA
ATOM     16  H4  UNL     1      12.515   2.877  -2.572  1.00  0.00     0.209 HD
ENDBRANCH  14  15
ENDBRANCH  10  14
BRANCH  11  17
HETATM   17  O3  UNL     1       8.027   3.237  -1.858  1.00  0.00    -0.390 OA
ATOM     18  H3  UNL     1       7.536   2.593  -2.353  1.00  0.00     0.210 HD
ENDBRANCH  11  17
BRANCH  12  19
HETATM   19  O2  UNL     1      11.190   4.874  -2.298  1.00  0.00    -0.348 OA
BRANCH  19  20
HETATM   20  C4  UNL     1      11.073   6.233  -2.582  1.00  0.00     0.289 C 
HETATM   21  O1  UNL     1      10.008   6.741  -1.864  1.00  0.00    -0.351 OA
HETATM   22  C3  UNL     1      10.132   8.072  -1.547  1.00  0.00     0.157 C 
HETATM   23  C24 UNL     1      11.247   8.317  -0.536  1.00  0.00     0.048 C 
HETATM   24  C23 UNL     1      12.434   7.436  -0.859  1.00  0.00     0.046 C 
HETATM   25  C22 UNL     1      12.378   6.940  -2.288  1.00  0.00     0.173 C 
BRANCH  22  26
HETATM   26  C2  UNL     1       8.837   8.483  -0.835  1.00  0.00     0.264 C 
BRANCH  26  27
HETATM   27  N1  UNL     1       7.843   7.434  -0.937  1.00  0.00    -0.077 N 
HETATM   28  C1  UNL     1       6.709   7.973  -1.645  1.00  0.00     0.267 C 
ATOM     29  H12 UNL     1       7.593   7.035  -0.032  1.00  0.00     0.276 HD
ATOM     30  H11 UNL     1       8.209   6.582  -1.362  1.00  0.00     0.276 HD
ENDBRANCH  26  27
ENDBRANCH  22  26
BRANCH  23  31
HETATM   31  C25 UNL     1      11.638   9.772  -0.505  1.00  0.00     0.229 C 
HETATM   32  F1  UNL     1      12.417   9.968   0.618  1.00  0.00    -0.255 F 
ENDBRANCH  23  31
BRANCH  25  33
HETATM   33  O14 UNL     1      12.618   7.979  -3.183  1.00  0.00    -0.391 OA
ATOM     34  H14 UNL     1      13.501   7.948  -3.533  1.00  0.00     0.210 HD
ENDBRANCH  25  33
ENDBRANCH  19  20
ENDBRANCH  12  19
BRANCH  13  35
HETATM   35  O13 UNL     1      11.757   4.018   0.091  1.00  0.00    -0.388 OA
ATOM     36  H13 UNL     1      12.411   3.464  -0.319  1.00  0.00     0.210 HD
ENDBRANCH  13  35
ENDBRANCH   7   8
ENDBRANCH   1   7
BRANCH   6  37
HETATM   37  N4  UNL     1      12.314   1.676   3.394  1.00  0.00    -0.070 N 
ATOM     38  H43 UNL     1      12.409   0.665   3.488  1.00  0.00     0.274 HD
ATOM     39  H42 UNL     1      12.978   1.819   2.633  1.00  0.00     0.274 HD
ATOM     40  H41 UNL     1      12.595   2.167   4.243  1.00  0.00     0.274 HD
ENDBRANCH   6  37
BRANCH   3  41
HETATM   41  O8  UNL     1       9.987  -1.905   3.139  1.00  0.00    -0.327 OA
BRANCH  41  42
HETATM   42  C12 UNL     1      11.076  -2.423   2.461  1.00  0.00     0.294 C 
HETATM   43  O9  UNL     1      10.580  -3.368   1.542  1.00  0.00    -0.348 OA
HETATM   44  C13 UNL     1      11.590  -3.588   0.612  1.00  0.00     0.179 C 
HETATM   45  C15 UNL     1      12.838  -4.107   1.251  1.00  0.00     0.182 C 
HETATM   46  C16 UNL     1      12.543  -4.391   2.717  1.00  0.00     0.247 C 
HETATM   47  C17 UNL     1      12.080  -3.091   3.357  1.00  0.00     0.206 C 
BRANCH  44  48
HETATM   48  C14 UNL     1      11.078  -4.509  -0.479  1.00  0.00     0.198 C 
BRANCH  48  49
HETATM   49  O10 UNL     1      11.606  -4.167  -1.701  1.00  0.00    -0.398 OA
ATOM     50  H10 UNL     1      12.487  -3.826  -1.608  1.00  0.00     0.209 HD
ENDBRANCH  48  49
ENDBRANCH  44  48
BRANCH  45  51
HETATM   51  O11 UNL     1      13.885  -3.181   1.129  1.00  0.00    -0.391 OA
ATOM     52  H11 UNL     1      14.697  -3.615   0.899  1.00  0.00     0.210 HD
ENDBRANCH  45  51
BRANCH  46  53
HETATM   53  N2  UNL     1      13.784  -4.837   3.311  1.00  0.00    -0.070 N 
ATOM     54  H23 UNL     1      14.426  -5.252   2.637  1.00  0.00     0.274 HD
ATOM     55  H22 UNL     1      14.386  -4.069   3.608  1.00  0.00     0.274 HD
ATOM     56  H21 UNL     1      13.533  -5.469   4.072  1.00  0.00     0.274 HD
ENDBRANCH  46  53
BRANCH  47  57
HETATM   57  O12 UNL     1      13.208  -2.260   3.426  1.00  0.00    -0.388 OA
ATOM     58  H12 UNL     1      13.971  -2.792   3.228  1.00  0.00     0.210 HD
ENDBRANCH  47  57
ENDBRANCH  41  42
ENDBRANCH   3  41
BRANCH   4  59
HETATM   59  N3  UNL     1      11.330  -0.184   4.981  1.00  0.00    -0.070 N 
ATOM     60  H33 UNL     1      11.184  -0.567   5.915  1.00  0.00     0.274 HD
ATOM     61  H32 UNL     1      11.752  -0.996   4.534  1.00  0.00     0.274 HD
ATOM     62  H31 UNL     1      11.980   0.602   5.005  1.00  0.00     0.274 HD
ENDBRANCH   4  59
TORSDOF 21
ENDMDL
