MODEL 1
REMARK VINA RESULT: -9.191444178      0.000      0.000
REMARK  19 active torsions:
REMARK  status: ('A' for Active; 'I' for Inactive)
REMARK    1  A    between atoms: C2_7  and  N3_8 
REMARK    2  A    between atoms: C4_10  and  N4_11 
REMARK    3  A    between atoms: C6_16  and  N5_17 
REMARK    4  A    between atoms: N8_28  and  C10_29 
REMARK    5  A    between atoms: C11_30  and  O1_31 
REMARK    6  A    between atoms: C12_33  and  O2_34 
REMARK    7  A    between atoms: C13_36  and  N9_37 
REMARK    8  A    between atoms: N9_37  and  C14_39 
REMARK    9  A    between atoms: C14_39  and  C15_40 
REMARK   10  A    between atoms: C15_40  and  O3_41 
REMARK   11  A    between atoms: O3_41  and  C16_42 
REMARK   12  A    between atoms: C16_42  and  C17_43 
REMARK   13  A    between atoms: C17_43  and  O4_44 
REMARK   14  A    between atoms: O4_44  and  C18_45 
REMARK   15  A    between atoms: C20_48  and  O6_49 
REMARK   16  A    between atoms: C21_51  and  O7_52 
REMARK   17  A    between atoms: C22_54  and  N10_55 
REMARK   18  A    between atoms: N11_60  and  C24_61 
REMARK   19  A    between atoms: C24_61  and  C25_62 
ROOT
HETATM    1  C10 UNL     1      10.510   2.845  -1.879  1.00  0.00     0.362 C 
HETATM    2  C11 UNL     1      10.714   1.433  -1.434  1.00  0.00     0.202 C 
HETATM    3  C12 UNL     1      11.606   1.341  -0.210  1.00  0.00     0.174 C 
HETATM    4  C13 UNL     1      11.330   2.446   0.761  1.00  0.00     0.136 C 
HETATM    5  C23 UNL     1      11.250   3.801   0.091  1.00  0.00     0.302 C 
HETATM    6  N11 UNL     1      10.163   3.750  -0.840  1.00  0.00     0.118 N 
ENDROOT
BRANCH   1   7
HETATM    7  N8  UNL     1       9.721   2.967  -3.090  1.00  0.00    -0.293 N 
HETATM    8  C7  UNL     1       9.884   3.945  -3.995  1.00  0.00     0.157 A 
HETATM    9  N6  UNL     1      10.742   5.009  -4.069  1.00  0.00    -0.174 N 
HETATM   10  C8  UNL     1       8.979   3.751  -4.998  1.00  0.00     0.123 A 
HETATM   11  C2  UNL     1      10.669   5.836  -5.126  1.00  0.00     0.685 A 
ATOM     12  H6  UNL     1      11.427   5.173  -3.331  1.00  0.00     0.186 HD
HETATM   13  N2  UNL     1       9.772   5.638  -6.110  1.00  0.00    -0.175 N 
HETATM   14  C1  UNL     1       8.901   4.610  -6.099  1.00  0.00     0.145 A 
ATOM     15  H2  UNL     1       9.752   6.291  -6.893  1.00  0.00     0.186 HD
HETATM   16  N1  UNL     1       8.043   4.398  -7.014  1.00  0.00    -0.383 N 
ATOM     17  H12 UNL     1       7.986   5.025  -7.817  1.00  0.00     0.157 HD
ATOM     18  H11 UNL     1       7.383   3.620  -7.006  1.00  0.00     0.157 HD
HETATM   19  N7  UNL     1       8.287   2.653  -4.669  1.00  0.00    -0.346 N 
HETATM   20  C9  UNL     1       8.746   2.176  -3.499  1.00  0.00     0.187 A 
ATOM     21  H7  UNL     1       7.532   2.243  -5.219  1.00  0.00     0.167 HD
BRANCH  11  22
HETATM   22  N3  UNL     1      11.557   6.960  -5.230  1.00  0.00    -0.186 N 
HETATM   23  C3  UNL     1      12.209   7.448  -6.427  1.00  0.00     0.176 C 
HETATM   24  C4  UNL     1      12.147   8.954  -6.234  1.00  0.00     0.205 C 
HETATM   25  C5  UNL     1      12.518   9.055  -4.753  1.00  0.00     0.089 C 
HETATM   26  C6  UNL     1      11.953   7.798  -4.124  1.00  0.00     0.301 C 
BRANCH  24  27
HETATM   27  N4  UNL     1      13.071   9.657  -7.074  1.00  0.00    -0.073 N 
ATOM     28  H43 UNL     1      13.020  10.663  -6.910  1.00  0.00     0.274 HD
ATOM     29  H42 UNL     1      14.033   9.490  -6.779  1.00  0.00     0.274 HD
ATOM     30  H41 UNL     1      12.948   9.440  -8.063  1.00  0.00     0.274 HD
ENDBRANCH  24  27
BRANCH  26  31
HETATM   31  N5  UNL     1      10.821   8.115  -3.263  1.00  0.00    -0.058 N 
ATOM     32  H53 UNL     1      11.023   7.902  -2.286  1.00  0.00     0.276 HD
ATOM     33  H52 UNL     1      10.684   9.122  -3.180  1.00  0.00     0.276 HD
ATOM     34  H51 UNL     1       9.971   7.647  -3.578  1.00  0.00     0.276 HD
ENDBRANCH  26  31
ENDBRANCH  11  22
ENDBRANCH   1   7
BRANCH   2  35
HETATM   35  O1  UNL     1       9.496   0.874  -1.069  1.00  0.00    -0.389 OA
ATOM     36  H1  UNL     1       9.562  -0.074  -1.076  1.00  0.00     0.210 HD
ENDBRANCH   2  35
BRANCH   6  37
HETATM   37  C24 UNL     1       8.860   3.697  -0.314  1.00  0.00     0.306 C 
BRANCH  37  38
HETATM   38  C25 UNL     1       8.612   4.862   0.627  1.00  0.00     0.252 C 
HETATM   39  F1  UNL     1       7.973   4.513   1.775  1.00  0.00    -0.254 F 
ENDBRANCH  37  38
ENDBRANCH   6  37
BRANCH   3  40
HETATM   40  O2  UNL     1      12.925   1.418  -0.636  1.00  0.00    -0.391 OA
ATOM     41  H2  UNL     1      13.275   2.253  -0.350  1.00  0.00     0.210 HD
ENDBRANCH   3  40
BRANCH   4  42
HETATM   42  N9  UNL     1      12.116   2.459   1.939  1.00  0.00    -0.411 N 
ATOM     43  H9  UNL     1      13.025   1.996   1.951  1.00  0.00     0.153 HD
BRANCH  42  44
HETATM   44  C14 UNL     1      11.642   3.112   3.093  1.00  0.00     0.140 C 
BRANCH  44  45
HETATM   45  C15 UNL     1      10.190   2.620   3.291  1.00  0.00     0.186 C 
BRANCH  45  46
HETATM   46  O3  UNL     1      10.086   1.907   4.474  1.00  0.00    -0.387 OA
BRANCH  46  47
HETATM   47  C16 UNL     1       9.608   0.628   4.271  1.00  0.00     0.194 C 
BRANCH  47  48
HETATM   48  C17 UNL     1       9.124   0.388   2.878  1.00  0.00     0.197 C 
BRANCH  48  49
HETATM   49  O4  UNL     1       9.687  -0.660   2.207  1.00  0.00    -0.357 OA
BRANCH  49  50
HETATM   50  C18 UNL     1      10.535  -1.434   2.989  1.00  0.00     0.292 C 
HETATM   51  O5  UNL     1      10.087  -2.755   3.052  1.00  0.00    -0.356 OA
HETATM   52  C19 UNL     1      10.877  -3.672   2.422  1.00  0.00     0.205 C 
HETATM   53  C20 UNL     1      11.217  -3.159   1.034  1.00  0.00     0.173 C 
HETATM   54  C21 UNL     1      12.224  -2.045   1.250  1.00  0.00     0.184 C 
HETATM   55  C22 UNL     1      11.955  -1.320   2.554  1.00  0.00     0.269 C 
BRANCH  53  56
HETATM   56  O6  UNL     1      11.707  -4.141   0.198  1.00  0.00    -0.391 OA
ATOM     57  H6  UNL     1      12.350  -3.817  -0.421  1.00  0.00     0.210 HD
ENDBRANCH  53  56
BRANCH  54  58
HETATM   58  O7  UNL     1      13.495  -2.610   1.325  1.00  0.00    -0.391 OA
ATOM     59  H7  UNL     1      13.801  -2.779   0.442  1.00  0.00     0.210 HD
ENDBRANCH  54  58
BRANCH  55  60
HETATM   60  N10 UNL     1      12.838  -1.747   3.621  1.00  0.00    -0.068 N 
ATOM     61 3H10 UNL     1      13.056  -2.742   3.561  1.00  0.00     0.275 HD
ATOM     62 2H10 UNL     1      13.782  -1.380   3.506  1.00  0.00     0.275 HD
ATOM     63 1H10 UNL     1      12.440  -1.497   4.527  1.00  0.00     0.275 HD
ENDBRANCH  55  60
ENDBRANCH  49  50
ENDBRANCH  48  49
ENDBRANCH  47  48
ENDBRANCH  46  47
ENDBRANCH  45  46
ENDBRANCH  44  45
ENDBRANCH  42  44
ENDBRANCH   4  42
TORSDOF 19
ENDMDL
MODEL 2
REMARK VINA RESULT: -9.189971057      1.312      1.793
REMARK  19 active torsions:
REMARK  status: ('A' for Active; 'I' for Inactive)
REMARK    1  A    between atoms: C2_7  and  N3_8 
REMARK    2  A    between atoms: C4_10  and  N4_11 
REMARK    3  A    between atoms: C6_16  and  N5_17 
REMARK    4  A    between atoms: N8_28  and  C10_29 
REMARK    5  A    between atoms: C11_30  and  O1_31 
REMARK    6  A    between atoms: C12_33  and  O2_34 
REMARK    7  A    between atoms: C13_36  and  N9_37 
REMARK    8  A    between atoms: N9_37  and  C14_39 
REMARK    9  A    between atoms: C14_39  and  C15_40 
REMARK   10  A    between atoms: C15_40  and  O3_41 
REMARK   11  A    between atoms: O3_41  and  C16_42 
REMARK   12  A    between atoms: C16_42  and  C17_43 
REMARK   13  A    between atoms: C17_43  and  O4_44 
REMARK   14  A    between atoms: O4_44  and  C18_45 
REMARK   15  A    between atoms: C20_48  and  O6_49 
REMARK   16  A    between atoms: C21_51  and  O7_52 
REMARK   17  A    between atoms: C22_54  and  N10_55 
REMARK   18  A    between atoms: N11_60  and  C24_61 
REMARK   19  A    between atoms: C24_61  and  C25_62 
ROOT
HETATM    1  C10 UNL     1      10.443   2.818  -1.815  1.00  0.00     0.362 C 
HETATM    2  C11 UNL     1      10.759   1.401  -1.464  1.00  0.00     0.202 C 
HETATM    3  C12 UNL     1      11.635   1.298  -0.229  1.00  0.00     0.174 C 
HETATM    4  C13 UNL     1      11.249   2.305   0.810  1.00  0.00     0.136 C 
HETATM    5  C23 UNL     1      11.065   3.692   0.233  1.00  0.00     0.302 C 
HETATM    6  N11 UNL     1      10.002   3.616  -0.725  1.00  0.00     0.118 N 
ENDROOT
BRANCH   1   7
HETATM    7  N8  UNL     1       9.667   2.960  -3.033  1.00  0.00    -0.293 N 
HETATM    8  C7  UNL     1       9.857   3.937  -3.934  1.00  0.00     0.157 A 
HETATM    9  N6  UNL     1      10.736   4.985  -3.997  1.00  0.00    -0.174 N 
HETATM   10  C8  UNL     1       8.957   3.763  -4.945  1.00  0.00     0.123 A 
HETATM   11  C2  UNL     1      10.688   5.816  -5.051  1.00  0.00     0.685 A 
ATOM     12  H6  UNL     1      11.418   5.134  -3.252  1.00  0.00     0.186 HD
HETATM   13  N2  UNL     1       9.797   5.638  -6.044  1.00  0.00    -0.175 N 
HETATM   14  C1  UNL     1       8.905   4.627  -6.043  1.00  0.00     0.145 A 
ATOM     15  H2  UNL     1       9.796   6.293  -6.825  1.00  0.00     0.186 HD
HETATM   16  N1  UNL     1       8.052   4.434  -6.967  1.00  0.00    -0.383 N 
ATOM     17  H12 UNL     1       8.014   5.065  -7.768  1.00  0.00     0.157 HD
ATOM     18  H11 UNL     1       7.378   3.669  -6.967  1.00  0.00     0.157 HD
HETATM   19  N7  UNL     1       8.242   2.677  -4.625  1.00  0.00    -0.346 N 
HETATM   20  C9  UNL     1       8.681   2.188  -3.453  1.00  0.00     0.187 A 
ATOM     21  H7  UNL     1       7.484   2.284  -5.183  1.00  0.00     0.167 HD
BRANCH  11  22
HETATM   22  N3  UNL     1      11.598   6.923  -5.144  1.00  0.00    -0.186 N 
HETATM   23  C3  UNL     1      12.256   7.414  -6.337  1.00  0.00     0.176 C 
HETATM   24  C4  UNL     1      12.225   8.918  -6.124  1.00  0.00     0.205 C 
HETATM   25  C5  UNL     1      12.603   8.993  -4.643  1.00  0.00     0.089 C 
HETATM   26  C6  UNL     1      12.015   7.739  -4.028  1.00  0.00     0.301 C 
BRANCH  24  27
HETATM   27  N4  UNL     1      13.159   9.614  -6.958  1.00  0.00    -0.073 N 
ATOM     28  H43 UNL     1      13.652   8.967  -7.573  1.00  0.00     0.274 HD
ATOM     29  H42 UNL     1      12.676  10.174  -7.660  1.00  0.00     0.274 HD
ATOM     30  H41 UNL     1      13.815  10.183  -6.423  1.00  0.00     0.274 HD
ENDBRANCH  24  27
BRANCH  26  31
HETATM   31  N5  UNL     1      10.892   8.066  -3.158  1.00  0.00    -0.058 N 
ATOM     32  H53 UNL     1      10.704   7.316  -2.493  1.00  0.00     0.276 HD
ATOM     33  H52 UNL     1      11.134   8.805  -2.498  1.00  0.00     0.276 HD
ATOM     34  H51 UNL     1      10.061   8.305  -3.698  1.00  0.00     0.276 HD
ENDBRANCH  26  31
ENDBRANCH  11  22
ENDBRANCH   1   7
BRANCH   2  35
HETATM   35  O1  UNL     1       9.587   0.718  -1.166  1.00  0.00    -0.389 OA
ATOM     36  H1  UNL     1       9.786  -0.047  -0.638  1.00  0.00     0.210 HD
ENDBRANCH   2  35
BRANCH   6  37
HETATM   37  C24 UNL     1       8.700   3.417  -0.234  1.00  0.00     0.306 C 
BRANCH  37  38
HETATM   38  C25 UNL     1       8.494   4.171   1.068  1.00  0.00     0.252 C 
HETATM   39  F1  UNL     1       8.165   3.373   2.118  1.00  0.00    -0.254 F 
ENDBRANCH  37  38
ENDBRANCH   6  37
BRANCH   3  40
HETATM   40  O2  UNL     1      12.949   1.515  -0.618  1.00  0.00    -0.391 OA
ATOM     41  H2  UNL     1      13.361   2.065   0.038  1.00  0.00     0.210 HD
ENDBRANCH   3  40
BRANCH   4  42
HETATM   42  N9  UNL     1      12.011   2.300   2.003  1.00  0.00    -0.411 N 
ATOM     43  H9  UNL     1      12.992   2.021   1.981  1.00  0.00     0.153 HD
BRANCH  42  44
HETATM   44  C14 UNL     1      11.413   2.681   3.220  1.00  0.00     0.140 C 
BRANCH  44  45
HETATM   45  C15 UNL     1      10.531   1.487   3.650  1.00  0.00     0.186 C 
BRANCH  45  46
HETATM   46  O3  UNL     1      11.266   0.314   3.609  1.00  0.00    -0.387 OA
BRANCH  46  47
HETATM   47  C16 UNL     1      10.466  -0.795   3.418  1.00  0.00     0.194 C 
BRANCH  47  48
HETATM   48  C17 UNL     1      10.564  -1.370   2.043  1.00  0.00     0.197 C 
BRANCH  48  49
HETATM   49  O4  UNL     1      10.300  -2.705   1.917  1.00  0.00    -0.357 OA
BRANCH  49  50
HETATM   50  C18 UNL     1      11.297  -3.411   1.255  1.00  0.00     0.292 C 
HETATM   51  O5  UNL     1      12.507  -2.718   1.294  1.00  0.00    -0.356 OA
HETATM   52  C19 UNL     1      13.488  -3.296   2.047  1.00  0.00     0.205 C 
HETATM   53  C20 UNL     1      12.910  -3.685   3.396  1.00  0.00     0.173 C 
HETATM   54  C21 UNL     1      12.034  -4.895   3.127  1.00  0.00     0.184 C 
HETATM   55  C22 UNL     1      11.409  -4.812   1.748  1.00  0.00     0.269 C 
BRANCH  53  56
HETATM   56  O6  UNL     1      13.877  -3.949   4.344  1.00  0.00    -0.391 OA
ATOM     57  H6  UNL     1      14.304  -3.166   4.668  1.00  0.00     0.210 HD
ENDBRANCH  53  56
BRANCH  54  58
HETATM   58  O7  UNL     1      12.835  -6.034   3.168  1.00  0.00    -0.391 OA
ATOM     59  H7  UNL     1      13.175  -6.193   2.296  1.00  0.00     0.210 HD
ENDBRANCH  54  58
BRANCH  55  60
HETATM   60  N10 UNL     1      12.102  -5.629   0.772  1.00  0.00    -0.068 N 
ATOM     61 3H10 UNL     1      12.455  -5.074  -0.008  1.00  0.00     0.275 HD
ATOM     62 2H10 UNL     1      12.994  -5.973   1.126  1.00  0.00     0.275 HD
ATOM     63 1H10 UNL     1      11.498  -6.388   0.457  1.00  0.00     0.275 HD
ENDBRANCH  55  60
ENDBRANCH  49  50
ENDBRANCH  48  49
ENDBRANCH  47  48
ENDBRANCH  46  47
ENDBRANCH  45  46
ENDBRANCH  44  45
ENDBRANCH  42  44
ENDBRANCH   4  42
TORSDOF 19
ENDMDL
MODEL 3
REMARK VINA RESULT: -9.163952657      1.284      1.517
REMARK  19 active torsions:
REMARK  status: ('A' for Active; 'I' for Inactive)
REMARK    1  A    between atoms: C2_7  and  N3_8 
REMARK    2  A    between atoms: C4_10  and  N4_11 
REMARK    3  A    between atoms: C6_16  and  N5_17 
REMARK    4  A    between atoms: N8_28  and  C10_29 
REMARK    5  A    between atoms: C11_30  and  O1_31 
REMARK    6  A    between atoms: C12_33  and  O2_34 
REMARK    7  A    between atoms: C13_36  and  N9_37 
REMARK    8  A    between atoms: N9_37  and  C14_39 
REMARK    9  A    between atoms: C14_39  and  C15_40 
REMARK   10  A    between atoms: C15_40  and  O3_41 
REMARK   11  A    between atoms: O3_41  and  C16_42 
REMARK   12  A    between atoms: C16_42  and  C17_43 
REMARK   13  A    between atoms: C17_43  and  O4_44 
REMARK   14  A    between atoms: O4_44  and  C18_45 
REMARK   15  A    between atoms: C20_48  and  O6_49 
REMARK   16  A    between atoms: C21_51  and  O7_52 
REMARK   17  A    between atoms: C22_54  and  N10_55 
REMARK   18  A    between atoms: N11_60  and  C24_61 
REMARK   19  A    between atoms: C24_61  and  C25_62 
ROOT
HETATM    1  C10 UNL     1      10.446   2.861  -1.804  1.00  0.00     0.362 C 
HETATM    2  C11 UNL     1      10.822   1.451  -1.483  1.00  0.00     0.202 C 
HETATM    3  C12 UNL     1      11.699   1.358  -0.248  1.00  0.00     0.174 C 
HETATM    4  C13 UNL     1      11.267   2.324   0.811  1.00  0.00     0.136 C 
HETATM    5  C23 UNL     1      11.025   3.715   0.264  1.00  0.00     0.302 C 
HETATM    6  N11 UNL     1       9.968   3.615  -0.698  1.00  0.00     0.118 N 
ENDROOT
BRANCH   1   7
HETATM    7  N8  UNL     1       9.667   2.996  -3.021  1.00  0.00    -0.293 N 
HETATM    8  C7  UNL     1       9.852   3.970  -3.925  1.00  0.00     0.157 A 
HETATM    9  N6  UNL     1      10.727   5.021  -3.993  1.00  0.00    -0.174 N 
HETATM   10  C8  UNL     1       8.951   3.790  -4.934  1.00  0.00     0.123 A 
HETATM   11  C2  UNL     1      10.675   5.848  -5.050  1.00  0.00     0.685 A 
ATOM     12  H6  UNL     1      11.410   5.174  -3.251  1.00  0.00     0.186 HD
HETATM   13  N2  UNL     1       9.782   5.664  -6.041  1.00  0.00    -0.175 N 
HETATM   14  C1  UNL     1       8.894   4.650  -6.035  1.00  0.00     0.145 A 
ATOM     15  H2  UNL     1       9.778   6.317  -6.824  1.00  0.00     0.186 HD
HETATM   16  N1  UNL     1       8.040   4.452  -6.957  1.00  0.00    -0.383 N 
ATOM     17  H12 UNL     1       7.998   5.080  -7.760  1.00  0.00     0.157 HD
ATOM     18  H11 UNL     1       7.367   3.685  -6.953  1.00  0.00     0.157 HD
HETATM   19  N7  UNL     1       8.240   2.704  -4.609  1.00  0.00    -0.346 N 
HETATM   20  C9  UNL     1       8.682   2.220  -3.436  1.00  0.00     0.187 A 
ATOM     21  H7  UNL     1       7.482   2.306  -5.164  1.00  0.00     0.167 HD
BRANCH  11  22
HETATM   22  N3  UNL     1      11.581   6.958  -5.149  1.00  0.00    -0.186 N 
HETATM   23  C3  UNL     1      12.238   7.444  -6.345  1.00  0.00     0.176 C 
HETATM   24  C4  UNL     1      12.202   8.950  -6.139  1.00  0.00     0.205 C 
HETATM   25  C5  UNL     1      12.580   9.033  -4.658  1.00  0.00     0.089 C 
HETATM   26  C6  UNL     1      11.996   7.780  -4.038  1.00  0.00     0.301 C 
BRANCH  24  27
HETATM   27  N4  UNL     1      13.134   9.644  -6.976  1.00  0.00    -0.073 N 
ATOM     28  H43 UNL     1      14.014   9.809  -6.486  1.00  0.00     0.274 HD
ATOM     29  H42 UNL     1      13.474   9.040  -7.725  1.00  0.00     0.274 HD
ATOM     30  H41 UNL     1      12.755  10.514  -7.351  1.00  0.00     0.274 HD
ENDBRANCH  24  27
BRANCH  26  31
HETATM   31  N5  UNL     1      10.872   8.109  -3.170  1.00  0.00    -0.058 N 
ATOM     32  H53 UNL     1      11.131   8.805  -2.470  1.00  0.00     0.276 HD
ATOM     33  H52 UNL     1      10.159   8.642  -3.667  1.00  0.00     0.276 HD
ATOM     34  H51 UNL     1      10.479   7.273  -2.737  1.00  0.00     0.276 HD
ENDBRANCH  26  31
ENDBRANCH  11  22
ENDBRANCH   1   7
BRANCH   2  35
HETATM   35  O1  UNL     1       9.680   0.711  -1.205  1.00  0.00    -0.389 OA
ATOM     36  H1  UNL     1       9.849   0.118  -0.482  1.00  0.00     0.210 HD
ENDBRANCH   2  35
BRANCH   6  37
HETATM   37  C24 UNL     1       8.675   3.348  -0.215  1.00  0.00     0.306 C 
BRANCH  37  38
HETATM   38  C25 UNL     1       8.393   4.152   1.042  1.00  0.00     0.252 C 
HETATM   39  F1  UNL     1       8.129   3.388   2.134  1.00  0.00    -0.254 F 
ENDBRANCH  37  38
ENDBRANCH   6  37
BRANCH   3  40
HETATM   40  O2  UNL     1      13.003   1.640  -0.629  1.00  0.00    -0.391 OA
ATOM     41  H2  UNL     1      13.127   1.311  -1.511  1.00  0.00     0.210 HD
ENDBRANCH   3  40
BRANCH   4  42
HETATM   42  N9  UNL     1      12.026   2.326   2.006  1.00  0.00    -0.411 N 
ATOM     43  H9  UNL     1      13.024   2.113   1.978  1.00  0.00     0.153 HD
BRANCH  42  44
HETATM   44  C14 UNL     1      11.403   2.621   3.234  1.00  0.00     0.140 C 
BRANCH  44  45
HETATM   45  C15 UNL     1      10.530   1.390   3.572  1.00  0.00     0.186 C 
BRANCH  45  46
HETATM   46  O3  UNL     1      11.292   0.236   3.509  1.00  0.00    -0.387 OA
BRANCH  46  47
HETATM   47  C16 UNL     1      10.565  -0.843   3.048  1.00  0.00     0.194 C 
BRANCH  47  48
HETATM   48  C17 UNL     1      11.085  -1.408   1.767  1.00  0.00     0.197 C 
BRANCH  48  49
HETATM   49  O4  UNL     1      11.229  -2.766   1.711  1.00  0.00    -0.357 OA
BRANCH  49  50
HETATM   50  C18 UNL     1      11.695  -3.328   2.893  1.00  0.00     0.292 C 
HETATM   51  O5  UNL     1      10.775  -4.244   3.405  1.00  0.00    -0.356 OA
HETATM   52  C19 UNL     1      11.172  -5.550   3.378  1.00  0.00     0.205 C 
HETATM   53  C20 UNL     1      11.720  -5.870   1.998  1.00  0.00     0.173 C 
HETATM   54  C21 UNL     1      13.070  -5.180   1.930  1.00  0.00     0.184 C 
HETATM   55  C22 UNL     1      13.062  -3.898   2.739  1.00  0.00     0.269 C 
BRANCH  53  56
HETATM   56  O6  UNL     1      11.820  -7.224   1.757  1.00  0.00    -0.391 OA
ATOM     57  H6  UNL     1      12.602  -7.460   1.272  1.00  0.00     0.210 HD
ENDBRANCH  53  56
BRANCH  54  58
HETATM   58  O7  UNL     1      14.026  -6.031   2.481  1.00  0.00    -0.391 OA
ATOM     59  H7  UNL     1      13.956  -6.876   2.053  1.00  0.00     0.210 HD
ENDBRANCH  54  58
BRANCH  55  60
HETATM   60  N10 UNL     1      13.686  -4.055   4.038  1.00  0.00    -0.068 N 
ATOM     61 3H10 UNL     1      13.514  -4.978   4.434  1.00  0.00     0.275 HD
ATOM     62 2H10 UNL     1      14.702  -4.107   3.970  1.00  0.00     0.275 HD
ATOM     63 1H10 UNL     1      13.383  -3.308   4.664  1.00  0.00     0.275 HD
ENDBRANCH  55  60
ENDBRANCH  49  50
ENDBRANCH  48  49
ENDBRANCH  47  48
ENDBRANCH  46  47
ENDBRANCH  45  46
ENDBRANCH  44  45
ENDBRANCH  42  44
ENDBRANCH   4  42
TORSDOF 19
ENDMDL
MODEL 4
REMARK VINA RESULT: -8.937456946      3.189      9.967
REMARK  19 active torsions:
REMARK  status: ('A' for Active; 'I' for Inactive)
REMARK    1  A    between atoms: C2_7  and  N3_8 
REMARK    2  A    between atoms: C4_10  and  N4_11 
REMARK    3  A    between atoms: C6_16  and  N5_17 
REMARK    4  A    between atoms: N8_28  and  C10_29 
REMARK    5  A    between atoms: C11_30  and  O1_31 
REMARK    6  A    between atoms: C12_33  and  O2_34 
REMARK    7  A    between atoms: C13_36  and  N9_37 
REMARK    8  A    between atoms: N9_37  and  C14_39 
REMARK    9  A    between atoms: C14_39  and  C15_40 
REMARK   10  A    between atoms: C15_40  and  O3_41 
REMARK   11  A    between atoms: O3_41  and  C16_42 
REMARK   12  A    between atoms: C16_42  and  C17_43 
REMARK   13  A    between atoms: C17_43  and  O4_44 
REMARK   14  A    between atoms: O4_44  and  C18_45 
REMARK   15  A    between atoms: C20_48  and  O6_49 
REMARK   16  A    between atoms: C21_51  and  O7_52 
REMARK   17  A    between atoms: C22_54  and  N10_55 
REMARK   18  A    between atoms: N11_60  and  C24_61 
REMARK   19  A    between atoms: C24_61  and  C25_62 
ROOT
HETATM    1  C10 UNL     1      10.709   0.508  -0.342  1.00  0.00     0.362 C 
HETATM    2  C11 UNL     1      11.787   0.654  -1.366  1.00  0.00     0.202 C 
HETATM    3  C12 UNL     1      11.229   0.925  -2.752  1.00  0.00     0.174 C 
HETATM    4  C13 UNL     1      10.051   1.847  -2.704  1.00  0.00     0.136 C 
HETATM    5  C23 UNL     1       9.047   1.451  -1.643  1.00  0.00     0.302 C 
HETATM    6  N11 UNL     1       9.715   1.523  -0.377  1.00  0.00     0.118 N 
ENDROOT
BRANCH   1   7
HETATM    7  N8  UNL     1      11.202   0.177   0.981  1.00  0.00    -0.293 N 
HETATM    8  C7  UNL     1      11.415  -1.077   1.410  1.00  0.00     0.157 A 
HETATM    9  N6  UNL     1      11.262  -2.301   0.815  1.00  0.00    -0.174 N 
HETATM   10  C8  UNL     1      11.874  -1.015   2.694  1.00  0.00     0.123 A 
HETATM   11  C2  UNL     1      11.567  -3.409   1.511  1.00  0.00     0.685 A 
ATOM     12  H6  UNL     1      10.921  -2.371  -0.144  1.00  0.00     0.186 HD
HETATM   13  N2  UNL     1      12.018  -3.339   2.777  1.00  0.00    -0.175 N 
HETATM   14  C1  UNL     1      12.192  -2.167   3.420  1.00  0.00     0.145 A 
ATOM     15  H2  UNL     1      12.238  -4.206   3.268  1.00  0.00     0.186 HD
HETATM   16  N1  UNL     1      12.616  -2.071   4.616  1.00  0.00    -0.383 N 
ATOM     17  H12 UNL     1      12.848  -2.911   5.146  1.00  0.00     0.157 HD
ATOM     18  H11 UNL     1      12.747  -1.184   5.102  1.00  0.00     0.157 HD
HETATM   19  N7  UNL     1      11.927   0.285   3.009  1.00  0.00    -0.346 N 
HETATM   20  C9  UNL     1      11.514   1.012   1.956  1.00  0.00     0.187 A 
ATOM     21  H7  UNL     1      12.231   0.664   3.906  1.00  0.00     0.167 HD
BRANCH  11  22
HETATM   22  N3  UNL     1      11.418  -4.706   0.912  1.00  0.00    -0.186 N 
HETATM   23  C3  UNL     1      10.660  -5.035  -0.277  1.00  0.00     0.176 C 
HETATM   24  C4  UNL     1      11.544  -6.079  -0.940  1.00  0.00     0.205 C 
HETATM   25  C5  UNL     1      11.948  -6.910   0.279  1.00  0.00     0.089 C 
HETATM   26  C6  UNL     1      12.011  -5.919   1.422  1.00  0.00     0.301 C 
BRANCH  24  27
HETATM   27  N4  UNL     1      10.843  -6.855  -1.918  1.00  0.00    -0.073 N 
ATOM     28  H43 UNL     1       9.844  -6.887  -1.713  1.00  0.00     0.274 HD
ATOM     29  H42 UNL     1      10.812  -6.372  -2.816  1.00  0.00     0.274 HD
ATOM     30  H41 UNL     1      11.226  -7.796  -2.023  1.00  0.00     0.274 HD
ENDBRANCH  24  27
BRANCH  26  31
HETATM   31  N5  UNL     1      13.390  -5.701   1.843  1.00  0.00    -0.058 N 
ATOM     32  H53 UNL     1      13.764  -6.513   2.334  1.00  0.00     0.276 HD
ATOM     33  H52 UNL     1      14.026  -5.692   1.046  1.00  0.00     0.276 HD
ATOM     34  H51 UNL     1      13.479  -4.853   2.402  1.00  0.00     0.276 HD
ENDBRANCH  26  31
ENDBRANCH  11  22
ENDBRANCH   1   7
BRANCH   2  35
HETATM   35  O1  UNL     1      12.590   1.744  -1.052  1.00  0.00    -0.389 OA
ATOM     36  H1  UNL     1      13.273   1.476  -0.448  1.00  0.00     0.210 HD
ENDBRANCH   2  35
BRANCH   6  37
HETATM   37  C24 UNL     1      10.045   2.800   0.109  1.00  0.00     0.306 C 
BRANCH  37  38
HETATM   38  C25 UNL     1       8.894   3.388   0.904  1.00  0.00     0.252 C 
HETATM   39  F1  UNL     1       8.299   2.502   1.746  1.00  0.00    -0.254 F 
ENDBRANCH  37  38
ENDBRANCH   6  37
BRANCH   3  40
HETATM   40  O2  UNL     1      10.844  -0.290  -3.301  1.00  0.00    -0.391 OA
ATOM     41  H2  UNL     1       9.966  -0.483  -2.995  1.00  0.00     0.210 HD
ENDBRANCH   3  40
BRANCH   4  42
HETATM   42  N9  UNL     1       9.447   2.160  -3.945  1.00  0.00    -0.411 N 
ATOM     43  H9  UNL     1       8.476   1.900  -4.121  1.00  0.00     0.153 HD
BRANCH  42  44
HETATM   44  C14 UNL     1      10.187   2.830  -4.939  1.00  0.00     0.140 C 
BRANCH  44  45
HETATM   45  C15 UNL     1       9.178   3.174  -6.058  1.00  0.00     0.186 C 
BRANCH  45  46
HETATM   46  O3  UNL     1       9.335   4.493  -6.451  1.00  0.00    -0.387 OA
BRANCH  46  47
HETATM   47  C16 UNL     1       8.568   5.356  -5.695  1.00  0.00     0.194 C 
BRANCH  47  48
HETATM   48  C17 UNL     1       9.336   6.518  -5.157  1.00  0.00     0.197 C 
BRANCH  48  49
HETATM   49  O4  UNL     1       9.641   6.487  -3.825  1.00  0.00    -0.357 OA
BRANCH  49  50
HETATM   50  C18 UNL     1      10.925   6.028  -3.557  1.00  0.00     0.292 C 
HETATM   51  O5  UNL     1      11.869   7.028  -3.797  1.00  0.00    -0.356 OA
HETATM   52  C19 UNL     1      12.503   7.513  -2.689  1.00  0.00     0.205 C 
HETATM   53  C20 UNL     1      11.463   7.831  -1.628  1.00  0.00     0.173 C 
HETATM   54  C21 UNL     1      10.999   6.487  -1.100  1.00  0.00     0.184 C 
HETATM   55  C22 UNL     1      11.033   5.437  -2.194  1.00  0.00     0.269 C 
BRANCH  53  56
HETATM   56  O6  UNL     1      11.949   8.640  -0.621  1.00  0.00    -0.391 OA
ATOM     57  H6  UNL     1      12.252   8.152   0.135  1.00  0.00     0.210 HD
ENDBRANCH  53  56
BRANCH  54  58
HETATM   58  O7  UNL     1      11.871   6.086  -0.091  1.00  0.00    -0.391 OA
ATOM     59  H7  UNL     1      12.030   5.154  -0.185  1.00  0.00     0.210 HD
ENDBRANCH  54  58
BRANCH  55  60
HETATM   60  N10 UNL     1      12.203   4.586  -2.113  1.00  0.00    -0.068 N 
ATOM     61 3H10 UNL     1      13.061   5.126  -1.998  1.00  0.00     0.275 HD
ATOM     62 2H10 UNL     1      12.237   4.065  -1.237  1.00  0.00     0.275 HD
ATOM     63 1H10 UNL     1      12.245   3.970  -2.925  1.00  0.00     0.275 HD
ENDBRANCH  55  60
ENDBRANCH  49  50
ENDBRANCH  48  49
ENDBRANCH  47  48
ENDBRANCH  46  47
ENDBRANCH  45  46
ENDBRANCH  44  45
ENDBRANCH  42  44
ENDBRANCH   4  42
TORSDOF 19
ENDMDL
MODEL 5
REMARK VINA RESULT: -8.810656256      2.071      2.617
REMARK  19 active torsions:
REMARK  status: ('A' for Active; 'I' for Inactive)
REMARK    1  A    between atoms: C2_7  and  N3_8 
REMARK    2  A    between atoms: C4_10  and  N4_11 
REMARK    3  A    between atoms: C6_16  and  N5_17 
REMARK    4  A    between atoms: N8_28  and  C10_29 
REMARK    5  A    between atoms: C11_30  and  O1_31 
REMARK    6  A    between atoms: C12_33  and  O2_34 
REMARK    7  A    between atoms: C13_36  and  N9_37 
REMARK    8  A    between atoms: N9_37  and  C14_39 
REMARK    9  A    between atoms: C14_39  and  C15_40 
REMARK   10  A    between atoms: C15_40  and  O3_41 
REMARK   11  A    between atoms: O3_41  and  C16_42 
REMARK   12  A    between atoms: C16_42  and  C17_43 
REMARK   13  A    between atoms: C17_43  and  O4_44 
REMARK   14  A    between atoms: O4_44  and  C18_45 
REMARK   15  A    between atoms: C20_48  and  O6_49 
REMARK   16  A    between atoms: C21_51  and  O7_52 
REMARK   17  A    between atoms: C22_54  and  N10_55 
REMARK   18  A    between atoms: N11_60  and  C24_61 
REMARK   19  A    between atoms: C24_61  and  C25_62 
ROOT
HETATM    1  C10 UNL     1      10.708   2.881  -0.970  1.00  0.00     0.362 C 
HETATM    2  C11 UNL     1      11.578   1.940  -0.203  1.00  0.00     0.202 C 
HETATM    3  C12 UNL     1      11.502   2.179   1.294  1.00  0.00     0.174 C 
HETATM    4  C13 UNL     1      10.109   2.506   1.732  1.00  0.00     0.136 C 
HETATM    5  C23 UNL     1       9.454   3.549   0.852  1.00  0.00     0.302 C 
HETATM    6  N11 UNL     1       9.383   3.005  -0.471  1.00  0.00     0.118 N 
ENDROOT
BRANCH   1   7
HETATM    7  N8  UNL     1      10.810   2.729  -2.410  1.00  0.00    -0.293 N 
HETATM    8  C7  UNL     1      10.932   3.757  -3.265  1.00  0.00     0.157 A 
HETATM    9  N6  UNL     1      10.996   5.113  -3.085  1.00  0.00    -0.174 N 
HETATM   10  C8  UNL     1      11.001   3.250  -4.530  1.00  0.00     0.123 A 
HETATM   11  C2  UNL     1      11.125   5.909  -4.159  1.00  0.00     0.685 A 
ATOM     12  H6  UNL     1      10.947   5.513  -2.148  1.00  0.00     0.186 HD
HETATM   13  N2  UNL     1      11.191   5.402  -5.404  1.00  0.00    -0.175 N 
HETATM   14  C1  UNL     1      11.134   4.077  -5.650  1.00  0.00     0.145 A 
ATOM     15  H2  UNL     1      11.288   6.044  -6.191  1.00  0.00     0.186 HD
HETATM   16  N1  UNL     1      11.194   3.570  -6.815  1.00  0.00    -0.383 N 
ATOM     17  H12 UNL     1      11.291   4.174  -7.632  1.00  0.00     0.157 HD
ATOM     18  H11 UNL     1      11.151   2.568  -7.001  1.00  0.00     0.157 HD
HETATM   19  N7  UNL     1      10.919   1.920  -4.405  1.00  0.00    -0.346 N 
HETATM   20  C9  UNL     1      10.803   1.605  -3.103  1.00  0.00     0.187 A 
ATOM     21  H7  UNL     1      10.941   1.252  -5.175  1.00  0.00     0.167 HD
BRANCH  11  22
HETATM   22  N3  UNL     1      11.196   7.335  -4.001  1.00  0.00    -0.186 N 
HETATM   23  C3  UNL     1      12.282   8.204  -4.403  1.00  0.00     0.176 C 
HETATM   24  C4  UNL     1      11.541   9.432  -4.905  1.00  0.00     0.205 C 
HETATM   25  C5  UNL     1      10.469   9.567  -3.821  1.00  0.00     0.089 C 
HETATM   26  C6  UNL     1      10.168   8.146  -3.392  1.00  0.00     0.301 C 
BRANCH  24  27
HETATM   27  N4  UNL     1      12.380  10.589  -4.986  1.00  0.00    -0.073 N 
ATOM     28  H43 UNL     1      12.989  10.543  -5.803  1.00  0.00     0.274 HD
ATOM     29  H42 UNL     1      11.837  11.417  -5.232  1.00  0.00     0.274 HD
ATOM     30  H41 UNL     1      12.920  10.745  -4.135  1.00  0.00     0.274 HD
ENDBRANCH  24  27
BRANCH  26  31
HETATM   31  N5  UNL     1       8.839   7.742  -3.836  1.00  0.00    -0.058 N 
ATOM     32  H53 UNL     1       8.833   7.503  -4.828  1.00  0.00     0.276 HD
ATOM     33  H52 UNL     1       8.578   6.834  -3.453  1.00  0.00     0.276 HD
ATOM     34  H51 UNL     1       8.142   8.454  -3.619  1.00  0.00     0.276 HD
ENDBRANCH  26  31
ENDBRANCH  11  22
ENDBRANCH   1   7
BRANCH   2  35
HETATM   35  O1  UNL     1      11.154   0.633  -0.409  1.00  0.00    -0.389 OA
ATOM     36  H1  UNL     1      11.847   0.131  -0.824  1.00  0.00     0.210 HD
ENDBRANCH   2  35
BRANCH   6  37
HETATM   37  C24 UNL     1       8.484   1.947  -0.691  1.00  0.00     0.306 C 
BRANCH  37  38
HETATM   38  C25 UNL     1       7.639   2.206  -1.925  1.00  0.00     0.252 C 
HETATM   39  F1  UNL     1       7.573   1.148  -2.776  1.00  0.00    -0.254 F 
ENDBRANCH  37  38
ENDBRANCH   6  37
BRANCH   3  40
HETATM   40  O2  UNL     1      12.344   3.238   1.600  1.00  0.00    -0.391 OA
ATOM     41  H2  UNL     1      11.966   3.710   2.332  1.00  0.00     0.210 HD
ENDBRANCH   3  40
BRANCH   4  42
HETATM   42  N9  UNL     1       9.927   2.757   3.113  1.00  0.00    -0.411 N 
ATOM     43  H9  UNL     1      10.344   3.584   3.541  1.00  0.00     0.153 HD
BRANCH  42  44
HETATM   44  C14 UNL     1       9.171   1.863   3.897  1.00  0.00     0.140 C 
BRANCH  44  45
HETATM   45  C15 UNL     1      10.198   0.949   4.605  1.00  0.00     0.186 C 
BRANCH  45  46
HETATM   46  O3  UNL     1       9.840  -0.379   4.446  1.00  0.00    -0.387 OA
BRANCH  46  47
HETATM   47  C16 UNL     1      10.853  -1.126   3.877  1.00  0.00     0.194 C 
BRANCH  47  48
HETATM   48  C17 UNL     1      10.709  -1.295   2.400  1.00  0.00     0.197 C 
BRANCH  48  49
HETATM   49  O4  UNL     1      10.447  -2.559   1.952  1.00  0.00    -0.357 OA
BRANCH  49  50
HETATM   50  C18 UNL     1      11.314  -2.988   0.953  1.00  0.00     0.292 C 
HETATM   51  O5  UNL     1      12.643  -2.802   1.335  1.00  0.00    -0.356 OA
HETATM   52  C19 UNL     1      13.355  -3.946   1.555  1.00  0.00     0.205 C 
HETATM   53  C20 UNL     1      12.539  -4.870   2.443  1.00  0.00     0.173 C 
HETATM   54  C21 UNL     1      11.435  -5.412   1.555  1.00  0.00     0.184 C 
HETATM   55  C22 UNL     1      11.020  -4.383   0.521  1.00  0.00     0.269 C 
BRANCH  53  56
HETATM   56  O6  UNL     1      13.291  -5.881   3.006  1.00  0.00    -0.391 OA
ATOM     57  H6  UNL     1      13.618  -5.664   3.870  1.00  0.00     0.210 HD
ENDBRANCH  53  56
BRANCH  54  58
HETATM   58  O7  UNL     1      11.922  -6.528   0.880  1.00  0.00    -0.391 OA
ATOM     59  H7  UNL     1      12.868  -6.541   0.966  1.00  0.00     0.210 HD
ENDBRANCH  54  58
BRANCH  55  60
HETATM   60  N10 UNL     1      11.606  -4.634  -0.781  1.00  0.00    -0.068 N 
ATOM     61 3H10 UNL     1      11.279  -5.512  -1.183  1.00  0.00     0.275 HD
ATOM     62 2H10 UNL     1      11.244  -3.999  -1.492  1.00  0.00     0.275 HD
ATOM     63 1H10 UNL     1      12.624  -4.598  -0.720  1.00  0.00     0.275 HD
ENDBRANCH  55  60
ENDBRANCH  49  50
ENDBRANCH  48  49
ENDBRANCH  47  48
ENDBRANCH  46  47
ENDBRANCH  45  46
ENDBRANCH  44  45
ENDBRANCH  42  44
ENDBRANCH   4  42
TORSDOF 19
ENDMDL
